# generated using pymatgen
data_H28C49N8
_symmetry_space_group_name_H-M   'P 1'
_cell_length_a   31.67680000
_cell_length_b   43.04930000
_cell_length_c   43.04930000
_cell_angle_alpha   90.00000000
_cell_angle_beta   90.00000000
_cell_angle_gamma   90.00000000
_symmetry_Int_Tables_number   1
_chemical_formula_structural   H28C49N8
_chemical_formula_sum   'H336 C588 N96'
_cell_volume   58704.78348679
_cell_formula_units_Z   12
loop_
 _symmetry_equiv_pos_site_id
 _symmetry_equiv_pos_as_xyz
  1  'x, y, z'
loop_
 _atom_site_type_symbol
 _atom_site_label
 _atom_site_symmetry_multiplicity
 _atom_site_fract_x
 _atom_site_fract_y
 _atom_site_fract_z
 _atom_site_occupancy
  H  25  1  0.00892400  0.10786900  0.27094500  1
  H  26  1  0.05979800  0.09391700  0.30984500  1
  H  27  1  0.10502700  0.07132500  0.35003400  1
  H  28  1  0.14166700  0.04158900  0.38875000  1
  H  29  1  0.05122900  0.96968400  0.38077800  1
  H  30  1  0.94332400  0.02359300  0.28618400  1
  H  31  1  0.95259000  0.03628100  0.37932300  1
  H  32  1  0.86499600  0.96354700  0.39414800  1
  H  33  1  0.90132200  0.93177200  0.35700900  1
  H  34  1  0.05624000  0.97860200  0.28422100  1
  H  35  1  0.94388900  0.90796900  0.31627700  1
  H  36  1  0.99148000  0.89304400  0.27556800  1
  H  66  1  0.50901600  0.89866500  0.73560800  1
  H  67  1  0.55984200  0.91270300  0.69669900  1
  H  68  1  0.60498800  0.93536500  0.65648900  1
  H  69  1  0.64154800  0.96517300  0.61778500  1
  H  70  1  0.55110400  0.03704800  0.62597300  1
  H  71  1  0.44339700  0.98297800  0.72059500  1
  H  72  1  0.45254900  0.97039700  0.62742700  1
  H  73  1  0.36488200  0.04311200  0.61271900  1
  H  74  1  0.40124900  0.07488000  0.64985100  1
  H  75  1  0.55627100  0.02801700  0.72250700  1
  H  76  1  0.44387700  0.09866800  0.69057800  1
  H  77  1  0.49154300  0.11357800  0.73124800  1
  H  107  1  0.25899400  0.73561300  0.10797900  1
  H  108  1  0.30983000  0.69671300  0.09395000  1
  H  109  1  0.35497300  0.65649900  0.07131500  1
  H  110  1  0.39153600  0.61778500  0.04153100  1
  H  111  1  0.30117700  0.62599900  0.96960300  1
  H  112  1  0.19341400  0.72060900  0.02364700  1
  H  113  1  0.20244300  0.62752500  0.03618600  1
  H  114  1  0.11499500  0.61281200  0.96332800  1
  H  115  1  0.15151000  0.64988800  0.93159300  1
  H  116  1  0.30635500  0.72257900  0.97870200  1
  H  117  1  0.19418200  0.69061800  0.90787300  1
  H  118  1  0.24186200  0.73131300  0.89304400  1
  H  148  1  0.75896600  0.27100300  0.89870300  1
  H  149  1  0.80982300  0.30990100  0.91270500  1
  H  150  1  0.85499500  0.35010800  0.93532300  1
  H  151  1  0.89158900  0.38882200  0.96509200  1
  H  152  1  0.80117000  0.38072600  0.03699300  1
  H  153  1  0.69334000  0.28613300  0.98299200  1
  H  154  1  0.70255500  0.37924000  0.97032000  1
  H  155  1  0.61488500  0.39403700  0.04302000  1
  H  156  1  0.65124600  0.35693500  0.07482700  1
  H  157  1  0.80620200  0.28416700  0.02803800  1
  H  158  1  0.69377600  0.31618400  0.09862300  1
  H  159  1  0.74135600  0.27547300  0.11355500  1
  H  177  1  0.94752300  0.08805000  0.16334700  1
  H  178  1  0.86027300  0.16380800  0.21503600  1
  H  179  1  0.89400800  0.12486100  0.24530300  1
  H  180  1  0.83720300  0.24557400  0.16624200  1
  H  181  1  0.85426200  0.20017300  0.08012200  1
  H  182  1  0.87765800  0.15473900  0.10780000  1
  H  185  1  0.97996000  0.08009100  0.21664100  1
  H  186  1  0.82912400  0.27438300  0.11813400  1
  H  199  1  0.44838800  0.91830800  0.84334000  1
  H  200  1  0.35975200  0.84320100  0.79195000  1
  H  201  1  0.39357800  0.88204300  0.76157800  1
  H  202  1  0.33639100  0.76140600  0.84069900  1
  H  203  1  0.35586900  0.80623600  0.92683500  1
  H  204  1  0.37901200  0.85172200  0.89911800  1
  H  207  1  0.48025400  0.92644300  0.78996400  1
  H  208  1  0.33012800  0.73222600  0.88892800  1
  H  221  1  0.19791800  0.84332900  0.08827000  1
  H  222  1  0.11001800  0.79173000  0.16370800  1
  H  223  1  0.14380400  0.76142300  0.12478400  1
  H  224  1  0.08723500  0.84044400  0.24561200  1
  H  225  1  0.10442000  0.92658200  0.20027200  1
  H  226  1  0.12780200  0.89891600  0.15482100  1
  H  229  1  0.23011600  0.78998300  0.08012600  1
  H  230  1  0.07924800  0.88857500  0.27449900  1
  H  243  1  0.69755500  0.16329700  0.91861000  1
  H  244  1  0.61040300  0.21498600  0.84278300  1
  H  245  1  0.64415000  0.24527000  0.88170100  1
  H  246  1  0.58727800  0.16611600  0.76105600  1
  H  247  1  0.60459400  0.08002500  0.80645500  1
  H  248  1  0.62786000  0.10774000  0.85190300  1
  H  251  1  0.73005500  0.21667100  0.92661000  1
  H  252  1  0.57954100  0.11796800  0.73221200  1
  H  265  1  0.63258600  0.01549800  0.50734400  1
  H  266  1  0.76467900  0.04269100  0.55589100  1
  H  267  1  0.70479000  0.03251100  0.58794900  1
  H  268  1  0.87217100  0.02470300  0.49976000  1
  H  269  1  0.79826900  0.02680000  0.41821400  1
  H  270  1  0.73710700  0.03571600  0.44927300  1
  H  273  1  0.61660900  0.99145400  0.56102400  1
  H  274  1  0.88977700  0.99480900  0.44851400  1
  H  287  1  0.13275100  0.99158400  0.49930900  1
  H  288  1  0.26473500  0.96374200  0.45093000  1
  H  289  1  0.20493600  0.97401400  0.41878300  1
  H  290  1  0.37217800  0.98191400  0.50705400  1
  H  291  1  0.29821900  0.98001900  0.58857900  1
  H  292  1  0.23706700  0.97110600  0.55750300  1
  H  295  1  0.11681700  0.01539100  0.44557800  1
  H  296  1  0.38973900  0.01190400  0.55832300  1
  H  309  1  0.88259900  0.49931400  0.01553400  1
  H  310  1  0.01485000  0.45083000  0.04251500  1
  H  311  1  0.95497000  0.41871100  0.03233100  1
  H  312  1  0.12204500  0.50713000  0.02393200  1
  H  313  1  0.04812100  0.58862300  0.02730900  1
  H  314  1  0.98706000  0.55742400  0.03626300  1
  H  317  1  0.86666300  0.44565400  0.99140600  1
  H  318  1  0.13964300  0.55847600  0.99462100  1
  H  331  1  0.38257000  0.50731200  0.99107800  1
  H  332  1  0.51474300  0.55584700  0.96403500  1
  H  333  1  0.45489100  0.58792600  0.97425800  1
  H  334  1  0.62211100  0.49964600  0.98209100  1
  H  335  1  0.54823700  0.41811600  0.97951900  1
  H  336  1  0.48706900  0.44922900  0.97064800  1
  H  339  1  0.36670400  0.56102200  0.01523400  1
  H  340  1  0.63974600  0.44840000  0.01175100  1
  H  365  1  0.00892400  0.10786900  0.59615400  1
  H  366  1  0.05979800  0.09391700  0.63505400  1
  H  367  1  0.10502700  0.07132500  0.67524300  1
  H  368  1  0.14166700  0.04158900  0.71395900  1
  H  369  1  0.05122900  0.96968400  0.70598700  1
  H  370  1  0.94332400  0.02359300  0.61139300  1
  H  371  1  0.95259000  0.03628100  0.70453200  1
  H  372  1  0.86499600  0.96354700  0.71935700  1
  H  373  1  0.90132200  0.93177200  0.68221800  1
  H  374  1  0.05624000  0.97860200  0.60943000  1
  H  375  1  0.94388900  0.90796900  0.64148600  1
  H  376  1  0.99148000  0.89304400  0.60077700  1
  H  406  1  0.50901600  0.89866500  0.06081650  1
  H  407  1  0.55984200  0.91270300  0.02190750  1
  H  408  1  0.60498800  0.93536500  0.98169800  1
  H  409  1  0.64154800  0.96517300  0.94299400  1
  H  410  1  0.55110400  0.03704800  0.95118200  1
  H  411  1  0.44339700  0.98297800  0.04580350  1
  H  412  1  0.45254900  0.97039700  0.95263600  1
  H  413  1  0.36488200  0.04311200  0.93792800  1
  H  414  1  0.40124900  0.07488000  0.97506000  1
  H  415  1  0.55627100  0.02801700  0.04771550  1
  H  416  1  0.44387700  0.09866800  0.01578650  1
  H  417  1  0.49154300  0.11357800  0.05645650  1
  H  447  1  0.25899400  0.73561300  0.43318800  1
  H  448  1  0.30983000  0.69671300  0.41915900  1
  H  449  1  0.35497300  0.65649900  0.39652400  1
  H  450  1  0.39153600  0.61778500  0.36674000  1
  H  451  1  0.30117700  0.62599900  0.29481200  1
  H  452  1  0.19341400  0.72060900  0.34885600  1
  H  453  1  0.20244300  0.62752500  0.36139500  1
  H  454  1  0.11499500  0.61281200  0.28853700  1
  H  455  1  0.15151000  0.64988800  0.25680200  1
  H  456  1  0.30635500  0.72257900  0.30391100  1
  H  457  1  0.19418200  0.69061800  0.23308200  1
  H  458  1  0.24186200  0.73131300  0.21825300  1
  H  488  1  0.75896600  0.27100300  0.22391200  1
  H  489  1  0.80982300  0.30990100  0.23791400  1
  H  490  1  0.85499500  0.35010800  0.26053200  1
  H  491  1  0.89158900  0.38882200  0.29030100  1
  H  492  1  0.80117000  0.38072600  0.36220200  1
  H  493  1  0.69334000  0.28613300  0.30820100  1
  H  494  1  0.70255500  0.37924000  0.29552900  1
  H  495  1  0.61488500  0.39403700  0.36822900  1
  H  496  1  0.65124600  0.35693500  0.40003600  1
  H  497  1  0.80620200  0.28416700  0.35324700  1
  H  498  1  0.69377600  0.31618400  0.42383200  1
  H  499  1  0.74135600  0.27547300  0.43876400  1
  H  517  1  0.94752300  0.08805000  0.48855600  1
  H  518  1  0.86027300  0.16380800  0.54024500  1
  H  519  1  0.89400800  0.12486100  0.57051200  1
  H  520  1  0.83720300  0.24557400  0.49145100  1
  H  521  1  0.85426200  0.20017300  0.40533100  1
  H  522  1  0.87765800  0.15473900  0.43300900  1
  H  525  1  0.97996000  0.08009100  0.54185000  1
  H  526  1  0.82912400  0.27438300  0.44334300  1
  H  539  1  0.44838800  0.91830800  0.16854900  1
  H  540  1  0.35975200  0.84320100  0.11715900  1
  H  541  1  0.39357800  0.88204300  0.08678650  1
  H  542  1  0.33639100  0.76140600  0.16590800  1
  H  543  1  0.35586900  0.80623600  0.25204400  1
  H  544  1  0.37901200  0.85172200  0.22432700  1
  H  547  1  0.48025400  0.92644300  0.11517300  1
  H  548  1  0.33012800  0.73222600  0.21413700  1
  H  561  1  0.19791800  0.84332900  0.41347900  1
  H  562  1  0.11001800  0.79173000  0.48891700  1
  H  563  1  0.14380400  0.76142300  0.44999300  1
  H  564  1  0.08723500  0.84044400  0.57082100  1
  H  565  1  0.10442000  0.92658200  0.52548100  1
  H  566  1  0.12780200  0.89891600  0.48003000  1
  H  569  1  0.23011600  0.78998300  0.40533500  1
  H  570  1  0.07924800  0.88857500  0.59970800  1
  H  583  1  0.69755500  0.16329700  0.24381900  1
  H  584  1  0.61040300  0.21498600  0.16799200  1
  H  585  1  0.64415000  0.24527000  0.20691000  1
  H  586  1  0.58727800  0.16611600  0.08626450  1
  H  587  1  0.60459400  0.08002500  0.13166400  1
  H  588  1  0.62786000  0.10774000  0.17711200  1
  H  591  1  0.73005500  0.21667100  0.25181900  1
  H  592  1  0.57954100  0.11796800  0.05742050  1
  H  605  1  0.63258600  0.01549800  0.83255300  1
  H  606  1  0.76467900  0.04269100  0.88110000  1
  H  607  1  0.70479000  0.03251100  0.91315800  1
  H  608  1  0.87217100  0.02470300  0.82496900  1
  H  609  1  0.79826900  0.02680000  0.74342300  1
  H  610  1  0.73710700  0.03571600  0.77448200  1
  H  613  1  0.61660900  0.99145400  0.88623300  1
  H  614  1  0.88977700  0.99480900  0.77372300  1
  H  627  1  0.13275100  0.99158400  0.82451800  1
  H  628  1  0.26473500  0.96374200  0.77613900  1
  H  629  1  0.20493600  0.97401400  0.74399200  1
  H  630  1  0.37217800  0.98191400  0.83226300  1
  H  631  1  0.29821900  0.98001900  0.91378800  1
  H  632  1  0.23706700  0.97110600  0.88271200  1
  H  635  1  0.11681700  0.01539100  0.77078700  1
  H  636  1  0.38973900  0.01190400  0.88353200  1
  H  649  1  0.88259900  0.49931400  0.34074300  1
  H  650  1  0.01485000  0.45083000  0.36772400  1
  H  651  1  0.95497000  0.41871100  0.35754000  1
  H  652  1  0.12204500  0.50713000  0.34914100  1
  H  653  1  0.04812100  0.58862300  0.35251800  1
  H  654  1  0.98706000  0.55742400  0.36147200  1
  H  657  1  0.86666300  0.44565400  0.31661500  1
  H  658  1  0.13964300  0.55847600  0.31983000  1
  H  671  1  0.38257000  0.50731200  0.31628700  1
  H  672  1  0.51474300  0.55584700  0.28924400  1
  H  673  1  0.45489100  0.58792600  0.29946700  1
  H  674  1  0.62211100  0.49964600  0.30730000  1
  H  675  1  0.54823700  0.41811600  0.30472800  1
  H  676  1  0.48706900  0.44922900  0.29585700  1
  H  679  1  0.36670400  0.56102200  0.34044300  1
  H  680  1  0.63974600  0.44840000  0.33696000  1
  H  705  1  0.00892400  0.10786900  0.92136200  1
  H  706  1  0.05979800  0.09391700  0.96026200  1
  H  707  1  0.10502700  0.07132500  0.00045108  1
  H  708  1  0.14166700  0.04158900  0.03916710  1
  H  709  1  0.05122900  0.96968400  0.03119510  1
  H  710  1  0.94332400  0.02359300  0.93660100  1
  H  711  1  0.95259000  0.03628100  0.02974010  1
  H  712  1  0.86499600  0.96354700  0.04456510  1
  H  713  1  0.90132200  0.93177200  0.00742608  1
  H  714  1  0.05624000  0.97860200  0.93463800  1
  H  715  1  0.94388900  0.90796900  0.96669400  1
  H  716  1  0.99148000  0.89304400  0.92598500  1
  H  746  1  0.50901600  0.89866500  0.38602500  1
  H  747  1  0.55984200  0.91270300  0.34711600  1
  H  748  1  0.60498800  0.93536500  0.30690600  1
  H  749  1  0.64154800  0.96517300  0.26820200  1
  H  750  1  0.55110400  0.03704800  0.27639000  1
  H  751  1  0.44339700  0.98297800  0.37101200  1
  H  752  1  0.45254900  0.97039700  0.27784400  1
  H  753  1  0.36488200  0.04311200  0.26313600  1
  H  754  1  0.40124900  0.07488000  0.30026800  1
  H  755  1  0.55627100  0.02801700  0.37292400  1
  H  756  1  0.44387700  0.09866800  0.34099500  1
  H  757  1  0.49154300  0.11357800  0.38166500  1
  H  787  1  0.25899400  0.73561300  0.75839600  1
  H  788  1  0.30983000  0.69671300  0.74436700  1
  H  789  1  0.35497300  0.65649900  0.72173200  1
  H  790  1  0.39153600  0.61778500  0.69194800  1
  H  791  1  0.30117700  0.62599900  0.62002000  1
  H  792  1  0.19341400  0.72060900  0.67406400  1
  H  793  1  0.20244300  0.62752500  0.68660300  1
  H  794  1  0.11499500  0.61281200  0.61374500  1
  H  795  1  0.15151000  0.64988800  0.58201000  1
  H  796  1  0.30635500  0.72257900  0.62911900  1
  H  797  1  0.19418200  0.69061800  0.55829000  1
  H  798  1  0.24186200  0.73131300  0.54346100  1
  H  828  1  0.75896600  0.27100300  0.54912000  1
  H  829  1  0.80982300  0.30990100  0.56312200  1
  H  830  1  0.85499500  0.35010800  0.58574000  1
  H  831  1  0.89158900  0.38882200  0.61550900  1
  H  832  1  0.80117000  0.38072600  0.68741000  1
  H  833  1  0.69334000  0.28613300  0.63340900  1
  H  834  1  0.70255500  0.37924000  0.62073700  1
  H  835  1  0.61488500  0.39403700  0.69343700  1
  H  836  1  0.65124600  0.35693500  0.72524400  1
  H  837  1  0.80620200  0.28416700  0.67845500  1
  H  838  1  0.69377600  0.31618400  0.74904000  1
  H  839  1  0.74135600  0.27547300  0.76397200  1
  H  857  1  0.94752300  0.08805000  0.81376400  1
  H  858  1  0.86027300  0.16380800  0.86545300  1
  H  859  1  0.89400800  0.12486100  0.89572000  1
  H  860  1  0.83720300  0.24557400  0.81665900  1
  H  861  1  0.85426200  0.20017300  0.73053900  1
  H  862  1  0.87765800  0.15473900  0.75821700  1
  H  865  1  0.97996000  0.08009100  0.86705800  1
  H  866  1  0.82912400  0.27438300  0.76855100  1
  H  879  1  0.44838800  0.91830800  0.49375700  1
  H  880  1  0.35975200  0.84320100  0.44236700  1
  H  881  1  0.39357800  0.88204300  0.41199500  1
  H  882  1  0.33639100  0.76140600  0.49111600  1
  H  883  1  0.35586900  0.80623600  0.57725200  1
  H  884  1  0.37901200  0.85172200  0.54953500  1
  H  887  1  0.48025400  0.92644300  0.44038100  1
  H  888  1  0.33012800  0.73222600  0.53934500  1
  H  901  1  0.19791800  0.84332900  0.73868700  1
  H  902  1  0.11001800  0.79173000  0.81412500  1
  H  903  1  0.14380400  0.76142300  0.77520100  1
  H  904  1  0.08723500  0.84044400  0.89602900  1
  H  905  1  0.10442000  0.92658200  0.85068900  1
  H  906  1  0.12780200  0.89891600  0.80523800  1
  H  909  1  0.23011600  0.78998300  0.73054300  1
  H  910  1  0.07924800  0.88857500  0.92491600  1
  H  923  1  0.69755500  0.16329700  0.56902700  1
  H  924  1  0.61040300  0.21498600  0.49320000  1
  H  925  1  0.64415000  0.24527000  0.53211800  1
  H  926  1  0.58727800  0.16611600  0.41147300  1
  H  927  1  0.60459400  0.08002500  0.45687200  1
  H  928  1  0.62786000  0.10774000  0.50232000  1
  H  931  1  0.73005500  0.21667100  0.57702700  1
  H  932  1  0.57954100  0.11796800  0.38262900  1
  H  945  1  0.63258600  0.01549800  0.15776100  1
  H  946  1  0.76467900  0.04269100  0.20630800  1
  H  947  1  0.70479000  0.03251100  0.23836600  1
  H  948  1  0.87217100  0.02470300  0.15017700  1
  H  949  1  0.79826900  0.02680000  0.06863110  1
  H  950  1  0.73710700  0.03571600  0.09969010  1
  H  953  1  0.61660900  0.99145400  0.21144100  1
  H  954  1  0.88977700  0.99480900  0.09893110  1
  H  967  1  0.13275100  0.99158400  0.14972600  1
  H  968  1  0.26473500  0.96374200  0.10134700  1
  H  969  1  0.20493600  0.97401400  0.06920010  1
  H  970  1  0.37217800  0.98191400  0.15747100  1
  H  971  1  0.29821900  0.98001900  0.23899600  1
  H  972  1  0.23706700  0.97110600  0.20792000  1
  H  975  1  0.11681700  0.01539100  0.09599510  1
  H  976  1  0.38973900  0.01190400  0.20874000  1
  H  989  1  0.88259900  0.49931400  0.66595100  1
  H  990  1  0.01485000  0.45083000  0.69293200  1
  H  991  1  0.95497000  0.41871100  0.68274800  1
  H  992  1  0.12204500  0.50713000  0.67434900  1
  H  993  1  0.04812100  0.58862300  0.67772600  1
  H  994  1  0.98706000  0.55742400  0.68668000  1
  H  997  1  0.86666300  0.44565400  0.64182300  1
  H  998  1  0.13964300  0.55847600  0.64503800  1
  H  1011  1  0.38257000  0.50731200  0.64149500  1
  H  1012  1  0.51474300  0.55584700  0.61445200  1
  H  1013  1  0.45489100  0.58792600  0.62467500  1
  H  1014  1  0.62211100  0.49964600  0.63250800  1
  H  1015  1  0.54823700  0.41811600  0.62993600  1
  H  1016  1  0.48706900  0.44922900  0.62106500  1
  H  1019  1  0.36670400  0.56102200  0.66565100  1
  H  1020  1  0.63974600  0.44840000  0.66216800  1
  C  1  1  0.00478500  0.97239000  0.31517400  1
  C  2  1  0.97283500  0.95177400  0.32413100  1
  C  3  1  0.94848000  0.96539600  0.34706000  1
  C  4  1  0.96379700  0.99529200  0.35321800  1
  C  5  1  0.94228900  0.01417900  0.37510700  1
  C  6  1  0.90634800  0.00237000  0.39091900  1
  C  7  1  0.89170600  0.97209100  0.38381800  1
  C  8  1  0.91267100  0.95340700  0.36208000  1
  C  9  1  0.96773300  0.92265200  0.30993500  1
  C  10  1  0.99565300  0.91411700  0.28617200  1
  C  11  1  0.02886500  0.93409700  0.27683200  1
  C  12  1  0.03302100  0.96363700  0.29115200  1
  C  13  1  0.99804000  0.03006100  0.31384700  1
  C  14  1  0.03123300  0.05054300  0.32035800  1
  C  15  1  0.05655600  0.03791700  0.34330400  1
  C  16  1  0.04056300  0.00882700  0.35188000  1
  C  17  1  0.09332600  0.05024000  0.35673300  1
  C  18  1  0.11446200  0.03277400  0.37940000  1
  C  19  1  0.09904800  0.00339400  0.38896400  1
  C  20  1  0.06223500  0.99115200  0.37466400  1
  C  21  1  0.96791700  0.03822700  0.29090800  1
  C  22  1  0.97241200  0.06650900  0.27430000  1
  C  23  1  0.00601500  0.08686400  0.28190200  1
  C  24  1  0.03569500  0.07898600  0.30473400  1
  C  37  1  0.00170100  0.00169100  0.33357600  1
  C  42  1  0.50476700  0.03424300  0.69160500  1
  C  43  1  0.47280000  0.05486200  0.68268500  1
  C  44  1  0.44841600  0.04124900  0.65976500  1
  C  45  1  0.46374000  0.01136300  0.65357200  1
  C  46  1  0.44222900  0.99249000  0.63167400  1
  C  47  1  0.40622200  0.00428500  0.61593800  1
  C  48  1  0.39159900  0.03456600  0.62303900  1
  C  49  1  0.41257600  0.05323600  0.64478200  1
  C  50  1  0.46771500  0.08397500  0.69690400  1
  C  51  1  0.49569100  0.09250700  0.72063500  1
  C  52  1  0.52891700  0.07252300  0.72993600  1
  C  53  1  0.53304000  0.04298400  0.71560500  1
  C  54  1  0.49805800  0.97655700  0.69286200  1
  C  55  1  0.53124400  0.95608800  0.68628300  1
  C  56  1  0.55653300  0.96875900  0.66334000  1
  C  57  1  0.54052500  0.99786800  0.65483600  1
  C  58  1  0.59328000  0.95646700  0.64985100  1
  C  59  1  0.61436400  0.97397000  0.62718600  1
  C  60  1  0.59892100  0.00336300  0.61768700  1
  C  61  1  0.56213400  0.01557500  0.63204500  1
  C  62  1  0.46797000  0.96834800  0.71581200  1
  C  63  1  0.47246200  0.94000900  0.73232600  1
  C  64  1  0.50608300  0.91968500  0.72468300  1
  C  65  1  0.53573000  0.92761400  0.70184400  1
  C  78  1  0.50167900  0.00496000  0.67317500  1
  C  83  1  0.25490600  0.69164200  0.97238300  1
  C  84  1  0.22303100  0.68269200  0.95170000  1
  C  85  1  0.19857800  0.65980200  0.96529800  1
  C  86  1  0.21380600  0.65362100  0.99521300  1
  C  87  1  0.19220100  0.63176000  0.01407100  1
  C  88  1  0.15621000  0.61603300  0.00222800  1
  C  89  1  0.14169400  0.62312300  0.97191400  1
  C  90  1  0.16275900  0.64483300  0.95326100  1
  C  91  1  0.21798500  0.69694300  0.92259800  1
  C  92  1  0.24596100  0.72069000  0.91411500  1
  C  93  1  0.27912000  0.72999800  0.93415500  1
  C  94  1  0.28318000  0.71566100  0.96369300  1
  C  95  1  0.24809900  0.69289900  0.03006400  1
  C  96  1  0.28126100  0.68630900  0.05055100  1
  C  97  1  0.30654900  0.66335800  0.03789400  1
  C  98  1  0.29056600  0.65485600  0.00878100  1
  C  99  1  0.34327600  0.64985800  0.05021100  1
  C  100  1  0.36436100  0.62718400  0.03272000  1
  C  101  1  0.34893700  0.61767600  0.00332400  1
  C  102  1  0.31218200  0.63206200  0.99108500  1
  C  103  1  0.21799500  0.71583800  0.03827500  1
  C  104  1  0.22246300  0.73233700  0.06662300  1
  C  105  1  0.25607600  0.72469700  0.08695200  1
  C  106  1  0.28572900  0.70186300  0.07903100  1
  C  119  1  0.25174300  0.67321200  0.00166100  1
  C  124  1  0.75475700  0.31513000  0.03424400  1
  C  125  1  0.72281600  0.32410100  0.05486300  1
  C  126  1  0.69842900  0.34699500  0.04121600  1
  C  127  1  0.71377500  0.35317000  0.01133200  1
  C  128  1  0.69223800  0.37502100  0.99242100  1
  C  129  1  0.65625300  0.39079200  0.00420700  1
  C  130  1  0.64160200  0.38370700  0.03448500  1
  C  131  1  0.66258000  0.36198500  0.05318100  1
  C  132  1  0.71764800  0.30986300  0.08395700  1
  C  133  1  0.74556500  0.28609800  0.09249600  1
  C  134  1  0.77881600  0.27677800  0.07253900  1
  C  135  1  0.78298300  0.29110100  0.04300000  1
  C  136  1  0.74804600  0.31381900  0.97656000  1
  C  137  1  0.78123700  0.32036100  0.95608600  1
  C  138  1  0.80654300  0.34330900  0.96873200  1
  C  139  1  0.79054700  0.35184600  0.99783300  1
  C  140  1  0.84329200  0.35677200  0.95642000  1
  C  141  1  0.86439600  0.37944700  0.97390000  1
  C  142  1  0.84896500  0.38898400  0.00328500  1
  C  143  1  0.81218400  0.37463600  0.01552100  1
  C  144  1  0.71793900  0.29087400  0.96837200  1
  C  145  1  0.72243100  0.27432500  0.94005300  1
  C  146  1  0.75604200  0.28194400  0.91971600  1
  C  147  1  0.78570700  0.30477900  0.92762100  1
  C  160  1  0.75168600  0.33353200  0.00494400  1
  C  165  1  0.84372500  0.22802500  0.12009100  1
  C  166  1  0.85554100  0.20078900  0.10386300  1
  C  167  1  0.86923500  0.17410500  0.12008100  1
  C  168  1  0.87024900  0.17413800  0.15297700  1
  C  170  1  0.84587100  0.22697800  0.15288600  1
  C  171  1  0.88455300  0.14866000  0.17137000  1
  C  172  1  0.87762000  0.14719300  0.20383300  1
  C  173  1  0.89704800  0.12384500  0.22165400  1
  C  174  1  0.92339200  0.10131100  0.20758900  1
  C  175  1  0.92781500  0.10289700  0.17490700  1
  C  183  1  0.82767200  0.25459400  0.10606000  1
  C  184  1  0.95097700  0.08327300  0.22514000  1
  C  187  1  0.34411900  0.77868700  0.88684600  1
  C  188  1  0.35652600  0.80577200  0.90307700  1
  C  189  1  0.37008200  0.83247800  0.88683500  1
  C  190  1  0.37037500  0.83262200  0.85392800  1
  C  192  1  0.34549600  0.77990100  0.85403700  1
  C  193  1  0.38472300  0.85806800  0.83550300  1
  C  194  1  0.37742100  0.85967800  0.80308900  1
  C  195  1  0.39690900  0.88295800  0.78520900  1
  C  196  1  0.42371100  0.90524600  0.79919100  1
  C  197  1  0.42844600  0.90358300  0.83184000  1
  C  205  1  0.32849000  0.75202400  0.90095100  1
  C  206  1  0.45122600  0.92326000  0.78154400  1
  C  209  1  0.09386400  0.88660200  0.22810500  1
  C  210  1  0.10566300  0.90284000  0.20087000  1
  C  211  1  0.11933200  0.88662800  0.17417400  1
  C  212  1  0.12031400  0.85373300  0.17418800  1
  C  214  1  0.09594200  0.85380700  0.22703000  1
  C  215  1  0.13466900  0.83533800  0.14872800  1
  C  216  1  0.12760400  0.80289400  0.14720200  1
  C  217  1  0.14708400  0.78505800  0.12388900  1
  C  218  1  0.17360100  0.79911000  0.10146500  1
  C  219  1  0.17814800  0.83177700  0.10307900  1
  C  227  1  0.07781600  0.90060300  0.25468700  1
  C  228  1  0.20112600  0.78152800  0.08340400  1
  C  231  1  0.59396800  0.11997500  0.77859400  1
  C  232  1  0.60577800  0.10377000  0.80584600  1
  C  233  1  0.61939000  0.12001000  0.83253900  1
  C  234  1  0.62032100  0.15290700  0.83250400  1
  C  236  1  0.59596300  0.15277500  0.77965800  1
  C  237  1  0.63463500  0.17131900  0.85797000  1
  C  238  1  0.62774300  0.20378900  0.85940600  1
  C  239  1  0.64720500  0.22162200  0.88273000  1
  C  240  1  0.67353400  0.20754900  0.90526900  1
  C  241  1  0.67790900  0.17486900  0.90372900  1
  C  249  1  0.57803500  0.10590900  0.75199900  1
  C  250  1  0.70107100  0.22512300  0.92332500  1
  C  253  1  0.84238000  0.02618300  0.45545700  1
  C  254  1  0.80214900  0.02991700  0.44161500  1
  C  255  1  0.76590400  0.03471000  0.45997000  1
  C  256  1  0.76923800  0.03555600  0.49275800  1
  C  258  1  0.84446700  0.02850600  0.48816600  1
  C  259  1  0.73322700  0.03518200  0.51279600  1
  C  260  1  0.73631500  0.03820600  0.54546800  1
  C  261  1  0.70078700  0.03258000  0.56435300  1
  C  262  1  0.66146200  0.02419500  0.55116100  1
  C  263  1  0.65947000  0.02264900  0.51839000  1
  C  271  1  0.87578000  0.01325100  0.43897800  1
  C  272  1  0.62954600  0.01102200  0.56899400  1
  C  275  1  0.34237000  0.98048800  0.55135900  1
  C  276  1  0.30212100  0.97682700  0.56518900  1
  C  277  1  0.26588400  0.97201600  0.54682900  1
  C  278  1  0.26924200  0.97110800  0.51404300  1
  C  280  1  0.34449800  0.97806700  0.51865900  1
  C  281  1  0.23327700  0.97156800  0.49396600  1
  C  282  1  0.23639100  0.96839000  0.46131100  1
  C  283  1  0.20092500  0.97406700  0.44237900  1
  C  284  1  0.16168100  0.98269500  0.45553800  1
  C  285  1  0.15961600  0.98434400  0.48829600  1
  C  293  1  0.37578300  0.99342900  0.56781900  1
  C  294  1  0.12984200  0.99584500  0.43761200  1
  C  297  1  0.09226600  0.55142800  0.02606600  1
  C  298  1  0.05203700  0.56518000  0.03009300  1
  C  299  1  0.01586000  0.54676400  0.03493000  1
  C  300  1  0.01925400  0.51397800  0.03546400  1
  C  302  1  0.09440800  0.51869200  0.02807400  1
  C  303  1  0.98330000  0.49389200  0.03505300  1
  C  304  1  0.98647300  0.46121600  0.03798300  1
  C  305  1  0.95098000  0.44230700  0.03233700  1
  C  306  1  0.91163200  0.45550100  0.02401900  1
  C  307  1  0.90953600  0.48826800  0.02257100  1
  C  315  1  0.12549800  0.56798600  0.01302300  1
  C  316  1  0.87968200  0.43763600  0.01093100  1
  C  319  1  0.59234500  0.45533600  0.98036500  1
  C  320  1  0.55209800  0.44154000  0.97657100  1
  C  321  1  0.51586600  0.45991000  0.97177200  1
  C  322  1  0.51921900  0.49269800  0.97105700  1
  C  324  1  0.59441900  0.48806600  0.97821100  1
  C  325  1  0.48323700  0.51275700  0.97145900  1
  C  326  1  0.48636500  0.54543300  0.96850600  1
  C  327  1  0.45086300  0.56433000  0.97417900  1
  C  328  1  0.41153500  0.55112900  0.98253900  1
  C  329  1  0.40948300  0.51836400  0.98399800  1
  C  337  1  0.62574500  0.43886700  0.99330600  1
  C  338  1  0.37966600  0.56902700  0.99568200  1
  C  341  1  0.00478500  0.97239000  0.64038300  1
  C  342  1  0.97283500  0.95177400  0.64934000  1
  C  343  1  0.94848000  0.96539600  0.67226900  1
  C  344  1  0.96379700  0.99529200  0.67842700  1
  C  345  1  0.94228900  0.01417900  0.70031600  1
  C  346  1  0.90634800  0.00237000  0.71612800  1
  C  347  1  0.89170600  0.97209100  0.70902700  1
  C  348  1  0.91267100  0.95340700  0.68728900  1
  C  349  1  0.96773300  0.92265200  0.63514400  1
  C  350  1  0.99565300  0.91411700  0.61138100  1
  C  351  1  0.02886500  0.93409700  0.60204100  1
  C  352  1  0.03302100  0.96363700  0.61636100  1
  C  353  1  0.99804000  0.03006100  0.63905600  1
  C  354  1  0.03123300  0.05054300  0.64556700  1
  C  355  1  0.05655600  0.03791700  0.66851300  1
  C  356  1  0.04056300  0.00882700  0.67708900  1
  C  357  1  0.09332600  0.05024000  0.68194200  1
  C  358  1  0.11446200  0.03277400  0.70460900  1
  C  359  1  0.09904800  0.00339400  0.71417300  1
  C  360  1  0.06223500  0.99115200  0.69987300  1
  C  361  1  0.96791700  0.03822700  0.61611700  1
  C  362  1  0.97241200  0.06650900  0.59950900  1
  C  363  1  0.00601500  0.08686400  0.60711100  1
  C  364  1  0.03569500  0.07898600  0.62994300  1
  C  377  1  0.00170100  0.00169100  0.65878500  1
  C  382  1  0.50476700  0.03424300  0.01681350  1
  C  383  1  0.47280000  0.05486200  0.00789354  1
  C  384  1  0.44841600  0.04124900  0.98497400  1
  C  385  1  0.46374000  0.01136300  0.97878100  1
  C  386  1  0.44222900  0.99249000  0.95688300  1
  C  387  1  0.40622200  0.00428500  0.94114700  1
  C  388  1  0.39159900  0.03456600  0.94824800  1
  C  389  1  0.41257600  0.05323600  0.96999100  1
  C  390  1  0.46771500  0.08397500  0.02211250  1
  C  391  1  0.49569100  0.09250700  0.04584350  1
  C  392  1  0.52891700  0.07252300  0.05514450  1
  C  393  1  0.53304000  0.04298400  0.04081350  1
  C  394  1  0.49805800  0.97655700  0.01807050  1
  C  395  1  0.53124400  0.95608800  0.01149150  1
  C  396  1  0.55653300  0.96875900  0.98854900  1
  C  397  1  0.54052500  0.99786800  0.98004500  1
  C  398  1  0.59328000  0.95646700  0.97506000  1
  C  399  1  0.61436400  0.97397000  0.95239500  1
  C  400  1  0.59892100  0.00336300  0.94289600  1
  C  401  1  0.56213400  0.01557500  0.95725400  1
  C  402  1  0.46797000  0.96834800  0.04102050  1
  C  403  1  0.47246200  0.94000900  0.05753450  1
  C  404  1  0.50608300  0.91968500  0.04989150  1
  C  405  1  0.53573000  0.92761400  0.02705250  1
  C  418  1  0.50167900  0.00496000  0.99838400  1
  C  423  1  0.25490600  0.69164200  0.29759200  1
  C  424  1  0.22303100  0.68269200  0.27690900  1
  C  425  1  0.19857800  0.65980200  0.29050700  1
  C  426  1  0.21380600  0.65362100  0.32042200  1
  C  427  1  0.19220100  0.63176000  0.33928000  1
  C  428  1  0.15621000  0.61603300  0.32743700  1
  C  429  1  0.14169400  0.62312300  0.29712300  1
  C  430  1  0.16275900  0.64483300  0.27847000  1
  C  431  1  0.21798500  0.69694300  0.24780700  1
  C  432  1  0.24596100  0.72069000  0.23932400  1
  C  433  1  0.27912000  0.72999800  0.25936400  1
  C  434  1  0.28318000  0.71566100  0.28890200  1
  C  435  1  0.24809900  0.69289900  0.35527300  1
  C  436  1  0.28126100  0.68630900  0.37576000  1
  C  437  1  0.30654900  0.66335800  0.36310300  1
  C  438  1  0.29056600  0.65485600  0.33399000  1
  C  439  1  0.34327600  0.64985800  0.37542000  1
  C  440  1  0.36436100  0.62718400  0.35792900  1
  C  441  1  0.34893700  0.61767600  0.32853300  1
  C  442  1  0.31218200  0.63206200  0.31629400  1
  C  443  1  0.21799500  0.71583800  0.36348400  1
  C  444  1  0.22246300  0.73233700  0.39183200  1
  C  445  1  0.25607600  0.72469700  0.41216100  1
  C  446  1  0.28572900  0.70186300  0.40424000  1
  C  459  1  0.25174300  0.67321200  0.32687000  1
  C  464  1  0.75475700  0.31513000  0.35945300  1
  C  465  1  0.72281600  0.32410100  0.38007200  1
  C  466  1  0.69842900  0.34699500  0.36642500  1
  C  467  1  0.71377500  0.35317000  0.33654100  1
  C  468  1  0.69223800  0.37502100  0.31763000  1
  C  469  1  0.65625300  0.39079200  0.32941600  1
  C  470  1  0.64160200  0.38370700  0.35969400  1
  C  471  1  0.66258000  0.36198500  0.37839000  1
  C  472  1  0.71764800  0.30986300  0.40916600  1
  C  473  1  0.74556500  0.28609800  0.41770500  1
  C  474  1  0.77881600  0.27677800  0.39774800  1
  C  475  1  0.78298300  0.29110100  0.36820900  1
  C  476  1  0.74804600  0.31381900  0.30176900  1
  C  477  1  0.78123700  0.32036100  0.28129500  1
  C  478  1  0.80654300  0.34330900  0.29394100  1
  C  479  1  0.79054700  0.35184600  0.32304200  1
  C  480  1  0.84329200  0.35677200  0.28162900  1
  C  481  1  0.86439600  0.37944700  0.29910900  1
  C  482  1  0.84896500  0.38898400  0.32849400  1
  C  483  1  0.81218400  0.37463600  0.34073000  1
  C  484  1  0.71793900  0.29087400  0.29358100  1
  C  485  1  0.72243100  0.27432500  0.26526200  1
  C  486  1  0.75604200  0.28194400  0.24492500  1
  C  487  1  0.78570700  0.30477900  0.25283000  1
  C  500  1  0.75168600  0.33353200  0.33015300  1
  C  505  1  0.84372500  0.22802500  0.44530000  1
  C  506  1  0.85554100  0.20078900  0.42907200  1
  C  507  1  0.86923500  0.17410500  0.44529000  1
  C  508  1  0.87024900  0.17413800  0.47818600  1
  C  510  1  0.84587100  0.22697800  0.47809500  1
  C  511  1  0.88455300  0.14866000  0.49657900  1
  C  512  1  0.87762000  0.14719300  0.52904200  1
  C  513  1  0.89704800  0.12384500  0.54686300  1
  C  514  1  0.92339200  0.10131100  0.53279800  1
  C  515  1  0.92781500  0.10289700  0.50011600  1
  C  523  1  0.82767200  0.25459400  0.43126900  1
  C  524  1  0.95097700  0.08327300  0.55034900  1
  C  527  1  0.34411900  0.77868700  0.21205500  1
  C  528  1  0.35652600  0.80577200  0.22828600  1
  C  529  1  0.37008200  0.83247800  0.21204400  1
  C  530  1  0.37037500  0.83262200  0.17913700  1
  C  532  1  0.34549600  0.77990100  0.17924600  1
  C  533  1  0.38472300  0.85806800  0.16071200  1
  C  534  1  0.37742100  0.85967800  0.12829800  1
  C  535  1  0.39690900  0.88295800  0.11041800  1
  C  536  1  0.42371100  0.90524600  0.12440000  1
  C  537  1  0.42844600  0.90358300  0.15704900  1
  C  545  1  0.32849000  0.75202400  0.22616000  1
  C  546  1  0.45122600  0.92326000  0.10675300  1
  C  549  1  0.09386400  0.88660200  0.55331400  1
  C  550  1  0.10566300  0.90284000  0.52607900  1
  C  551  1  0.11933200  0.88662800  0.49938300  1
  C  552  1  0.12031400  0.85373300  0.49939700  1
  C  554  1  0.09594200  0.85380700  0.55223900  1
  C  555  1  0.13466900  0.83533800  0.47393700  1
  C  556  1  0.12760400  0.80289400  0.47241100  1
  C  557  1  0.14708400  0.78505800  0.44909800  1
  C  558  1  0.17360100  0.79911000  0.42667400  1
  C  559  1  0.17814800  0.83177700  0.42828800  1
  C  567  1  0.07781600  0.90060300  0.57989600  1
  C  568  1  0.20112600  0.78152800  0.40861300  1
  C  571  1  0.59396800  0.11997500  0.10380300  1
  C  572  1  0.60577800  0.10377000  0.13105500  1
  C  573  1  0.61939000  0.12001000  0.15774800  1
  C  574  1  0.62032100  0.15290700  0.15771300  1
  C  576  1  0.59596300  0.15277500  0.10486700  1
  C  577  1  0.63463500  0.17131900  0.18317900  1
  C  578  1  0.62774300  0.20378900  0.18461500  1
  C  579  1  0.64720500  0.22162200  0.20793900  1
  C  580  1  0.67353400  0.20754900  0.23047800  1
  C  581  1  0.67790900  0.17486900  0.22893800  1
  C  589  1  0.57803500  0.10590900  0.07720750  1
  C  590  1  0.70107100  0.22512300  0.24853400  1
  C  593  1  0.84238000  0.02618300  0.78066600  1
  C  594  1  0.80214900  0.02991700  0.76682400  1
  C  595  1  0.76590400  0.03471000  0.78517900  1
  C  596  1  0.76923800  0.03555600  0.81796700  1
  C  598  1  0.84446700  0.02850600  0.81337500  1
  C  599  1  0.73322700  0.03518200  0.83800500  1
  C  600  1  0.73631500  0.03820600  0.87067700  1
  C  601  1  0.70078700  0.03258000  0.88956200  1
  C  602  1  0.66146200  0.02419500  0.87637000  1
  C  603  1  0.65947000  0.02264900  0.84359900  1
  C  611  1  0.87578000  0.01325100  0.76418700  1
  C  612  1  0.62954600  0.01102200  0.89420300  1
  C  615  1  0.34237000  0.98048800  0.87656800  1
  C  616  1  0.30212100  0.97682700  0.89039800  1
  C  617  1  0.26588400  0.97201600  0.87203800  1
  C  618  1  0.26924200  0.97110800  0.83925200  1
  C  620  1  0.34449800  0.97806700  0.84386800  1
  C  621  1  0.23327700  0.97156800  0.81917500  1
  C  622  1  0.23639100  0.96839000  0.78652000  1
  C  623  1  0.20092500  0.97406700  0.76758800  1
  C  624  1  0.16168100  0.98269500  0.78074700  1
  C  625  1  0.15961600  0.98434400  0.81350500  1
  C  633  1  0.37578300  0.99342900  0.89302800  1
  C  634  1  0.12984200  0.99584500  0.76282100  1
  C  637  1  0.09226600  0.55142800  0.35127500  1
  C  638  1  0.05203700  0.56518000  0.35530200  1
  C  639  1  0.01586000  0.54676400  0.36013900  1
  C  640  1  0.01925400  0.51397800  0.36067300  1
  C  642  1  0.09440800  0.51869200  0.35328300  1
  C  643  1  0.98330000  0.49389200  0.36026200  1
  C  644  1  0.98647300  0.46121600  0.36319200  1
  C  645  1  0.95098000  0.44230700  0.35754600  1
  C  646  1  0.91163200  0.45550100  0.34922800  1
  C  647  1  0.90953600  0.48826800  0.34778000  1
  C  655  1  0.12549800  0.56798600  0.33823200  1
  C  656  1  0.87968200  0.43763600  0.33614000  1
  C  659  1  0.59234500  0.45533600  0.30557400  1
  C  660  1  0.55209800  0.44154000  0.30178000  1
  C  661  1  0.51586600  0.45991000  0.29698100  1
  C  662  1  0.51921900  0.49269800  0.29626600  1
  C  664  1  0.59441900  0.48806600  0.30342000  1
  C  665  1  0.48323700  0.51275700  0.29666800  1
  C  666  1  0.48636500  0.54543300  0.29371500  1
  C  667  1  0.45086300  0.56433000  0.29938800  1
  C  668  1  0.41153500  0.55112900  0.30774800  1
  C  669  1  0.40948300  0.51836400  0.30920700  1
  C  677  1  0.62574500  0.43886700  0.31851500  1
  C  678  1  0.37966600  0.56902700  0.32089100  1
  C  681  1  0.00478500  0.97239000  0.96559100  1
  C  682  1  0.97283500  0.95177400  0.97454800  1
  C  683  1  0.94848000  0.96539600  0.99747700  1
  C  684  1  0.96379700  0.99529200  0.00363508  1
  C  685  1  0.94228900  0.01417900  0.02552410  1
  C  686  1  0.90634800  0.00237000  0.04133610  1
  C  687  1  0.89170600  0.97209100  0.03423510  1
  C  688  1  0.91267100  0.95340700  0.01249710  1
  C  689  1  0.96773300  0.92265200  0.96035200  1
  C  690  1  0.99565300  0.91411700  0.93658900  1
  C  691  1  0.02886500  0.93409700  0.92724900  1
  C  692  1  0.03302100  0.96363700  0.94156900  1
  C  693  1  0.99804000  0.03006100  0.96426400  1
  C  694  1  0.03123300  0.05054300  0.97077500  1
  C  695  1  0.05655600  0.03791700  0.99372100  1
  C  696  1  0.04056300  0.00882700  0.00229708  1
  C  697  1  0.09332600  0.05024000  0.00715008  1
  C  698  1  0.11446200  0.03277400  0.02981710  1
  C  699  1  0.09904800  0.00339400  0.03938110  1
  C  700  1  0.06223500  0.99115200  0.02508110  1
  C  701  1  0.96791700  0.03822700  0.94132500  1
  C  702  1  0.97241200  0.06650900  0.92471700  1
  C  703  1  0.00601500  0.08686400  0.93231900  1
  C  704  1  0.03569500  0.07898600  0.95515100  1
  C  717  1  0.00170100  0.00169100  0.98399300  1
  C  722  1  0.50476700  0.03424300  0.34202200  1
  C  723  1  0.47280000  0.05486200  0.33310200  1
  C  724  1  0.44841600  0.04124900  0.31018200  1
  C  725  1  0.46374000  0.01136300  0.30398900  1
  C  726  1  0.44222900  0.99249000  0.28209100  1
  C  727  1  0.40622200  0.00428500  0.26635500  1
  C  728  1  0.39159900  0.03456600  0.27345600  1
  C  729  1  0.41257600  0.05323600  0.29519900  1
  C  730  1  0.46771500  0.08397500  0.34732100  1
  C  731  1  0.49569100  0.09250700  0.37105200  1
  C  732  1  0.52891700  0.07252300  0.38035300  1
  C  733  1  0.53304000  0.04298400  0.36602200  1
  C  734  1  0.49805800  0.97655700  0.34327900  1
  C  735  1  0.53124400  0.95608800  0.33670000  1
  C  736  1  0.55653300  0.96875900  0.31375700  1
  C  737  1  0.54052500  0.99786800  0.30525300  1
  C  738  1  0.59328000  0.95646700  0.30026800  1
  C  739  1  0.61436400  0.97397000  0.27760300  1
  C  740  1  0.59892100  0.00336300  0.26810400  1
  C  741  1  0.56213400  0.01557500  0.28246200  1
  C  742  1  0.46797000  0.96834800  0.36622900  1
  C  743  1  0.47246200  0.94000900  0.38274300  1
  C  744  1  0.50608300  0.91968500  0.37510000  1
  C  745  1  0.53573000  0.92761400  0.35226100  1
  C  758  1  0.50167900  0.00496000  0.32359200  1
  C  763  1  0.25490600  0.69164200  0.62280000  1
  C  764  1  0.22303100  0.68269200  0.60211700  1
  C  765  1  0.19857800  0.65980200  0.61571500  1
  C  766  1  0.21380600  0.65362100  0.64563000  1
  C  767  1  0.19220100  0.63176000  0.66448800  1
  C  768  1  0.15621000  0.61603300  0.65264500  1
  C  769  1  0.14169400  0.62312300  0.62233100  1
  C  770  1  0.16275900  0.64483300  0.60367800  1
  C  771  1  0.21798500  0.69694300  0.57301500  1
  C  772  1  0.24596100  0.72069000  0.56453200  1
  C  773  1  0.27912000  0.72999800  0.58457200  1
  C  774  1  0.28318000  0.71566100  0.61411000  1
  C  775  1  0.24809900  0.69289900  0.68048100  1
  C  776  1  0.28126100  0.68630900  0.70096800  1
  C  777  1  0.30654900  0.66335800  0.68831100  1
  C  778  1  0.29056600  0.65485600  0.65919800  1
  C  779  1  0.34327600  0.64985800  0.70062800  1
  C  780  1  0.36436100  0.62718400  0.68313700  1
  C  781  1  0.34893700  0.61767600  0.65374100  1
  C  782  1  0.31218200  0.63206200  0.64150200  1
  C  783  1  0.21799500  0.71583800  0.68869200  1
  C  784  1  0.22246300  0.73233700  0.71704000  1
  C  785  1  0.25607600  0.72469700  0.73736900  1
  C  786  1  0.28572900  0.70186300  0.72944800  1
  C  799  1  0.25174300  0.67321200  0.65207800  1
  C  804  1  0.75475700  0.31513000  0.68466100  1
  C  805  1  0.72281600  0.32410100  0.70528000  1
  C  806  1  0.69842900  0.34699500  0.69163300  1
  C  807  1  0.71377500  0.35317000  0.66174900  1
  C  808  1  0.69223800  0.37502100  0.64283800  1
  C  809  1  0.65625300  0.39079200  0.65462400  1
  C  810  1  0.64160200  0.38370700  0.68490200  1
  C  811  1  0.66258000  0.36198500  0.70359800  1
  C  812  1  0.71764800  0.30986300  0.73437400  1
  C  813  1  0.74556500  0.28609800  0.74291300  1
  C  814  1  0.77881600  0.27677800  0.72295600  1
  C  815  1  0.78298300  0.29110100  0.69341700  1
  C  816  1  0.74804600  0.31381900  0.62697700  1
  C  817  1  0.78123700  0.32036100  0.60650300  1
  C  818  1  0.80654300  0.34330900  0.61914900  1
  C  819  1  0.79054700  0.35184600  0.64825000  1
  C  820  1  0.84329200  0.35677200  0.60683700  1
  C  821  1  0.86439600  0.37944700  0.62431700  1
  C  822  1  0.84896500  0.38898400  0.65370200  1
  C  823  1  0.81218400  0.37463600  0.66593800  1
  C  824  1  0.71793900  0.29087400  0.61878900  1
  C  825  1  0.72243100  0.27432500  0.59047000  1
  C  826  1  0.75604200  0.28194400  0.57013300  1
  C  827  1  0.78570700  0.30477900  0.57803800  1
  C  840  1  0.75168600  0.33353200  0.65536100  1
  C  845  1  0.84372500  0.22802500  0.77050800  1
  C  846  1  0.85554100  0.20078900  0.75428000  1
  C  847  1  0.86923500  0.17410500  0.77049800  1
  C  848  1  0.87024900  0.17413800  0.80339400  1
  C  850  1  0.84587100  0.22697800  0.80330300  1
  C  851  1  0.88455300  0.14866000  0.82178700  1
  C  852  1  0.87762000  0.14719300  0.85425000  1
  C  853  1  0.89704800  0.12384500  0.87207100  1
  C  854  1  0.92339200  0.10131100  0.85800600  1
  C  855  1  0.92781500  0.10289700  0.82532400  1
  C  863  1  0.82767200  0.25459400  0.75647700  1
  C  864  1  0.95097700  0.08327300  0.87555700  1
  C  867  1  0.34411900  0.77868700  0.53726300  1
  C  868  1  0.35652600  0.80577200  0.55349400  1
  C  869  1  0.37008200  0.83247800  0.53725200  1
  C  870  1  0.37037500  0.83262200  0.50434500  1
  C  872  1  0.34549600  0.77990100  0.50445400  1
  C  873  1  0.38472300  0.85806800  0.48592000  1
  C  874  1  0.37742100  0.85967800  0.45350600  1
  C  875  1  0.39690900  0.88295800  0.43562600  1
  C  876  1  0.42371100  0.90524600  0.44960800  1
  C  877  1  0.42844600  0.90358300  0.48225700  1
  C  885  1  0.32849000  0.75202400  0.55136800  1
  C  886  1  0.45122600  0.92326000  0.43196100  1
  C  889  1  0.09386400  0.88660200  0.87852200  1
  C  890  1  0.10566300  0.90284000  0.85128700  1
  C  891  1  0.11933200  0.88662800  0.82459100  1
  C  892  1  0.12031400  0.85373300  0.82460500  1
  C  894  1  0.09594200  0.85380700  0.87744700  1
  C  895  1  0.13466900  0.83533800  0.79914500  1
  C  896  1  0.12760400  0.80289400  0.79761900  1
  C  897  1  0.14708400  0.78505800  0.77430600  1
  C  898  1  0.17360100  0.79911000  0.75188200  1
  C  899  1  0.17814800  0.83177700  0.75349600  1
  C  907  1  0.07781600  0.90060300  0.90510400  1
  C  908  1  0.20112600  0.78152800  0.73382100  1
  C  911  1  0.59396800  0.11997500  0.42901100  1
  C  912  1  0.60577800  0.10377000  0.45626300  1
  C  913  1  0.61939000  0.12001000  0.48295600  1
  C  914  1  0.62032100  0.15290700  0.48292100  1
  C  916  1  0.59596300  0.15277500  0.43007500  1
  C  917  1  0.63463500  0.17131900  0.50838700  1
  C  918  1  0.62774300  0.20378900  0.50982300  1
  C  919  1  0.64720500  0.22162200  0.53314700  1
  C  920  1  0.67353400  0.20754900  0.55568600  1
  C  921  1  0.67790900  0.17486900  0.55414600  1
  C  929  1  0.57803500  0.10590900  0.40241600  1
  C  930  1  0.70107100  0.22512300  0.57374200  1
  C  933  1  0.84238000  0.02618300  0.10587400  1
  C  934  1  0.80214900  0.02991700  0.09203210  1
  C  935  1  0.76590400  0.03471000  0.11038700  1
  C  936  1  0.76923800  0.03555600  0.14317500  1
  C  938  1  0.84446700  0.02850600  0.13858300  1
  C  939  1  0.73322700  0.03518200  0.16321300  1
  C  940  1  0.73631500  0.03820600  0.19588500  1
  C  941  1  0.70078700  0.03258000  0.21477000  1
  C  942  1  0.66146200  0.02419500  0.20157800  1
  C  943  1  0.65947000  0.02264900  0.16880700  1
  C  951  1  0.87578000  0.01325100  0.08939510  1
  C  952  1  0.62954600  0.01102200  0.21941100  1
  C  955  1  0.34237000  0.98048800  0.20177600  1
  C  956  1  0.30212100  0.97682700  0.21560600  1
  C  957  1  0.26588400  0.97201600  0.19724600  1
  C  958  1  0.26924200  0.97110800  0.16446000  1
  C  960  1  0.34449800  0.97806700  0.16907600  1
  C  961  1  0.23327700  0.97156800  0.14438300  1
  C  962  1  0.23639100  0.96839000  0.11172800  1
  C  963  1  0.20092500  0.97406700  0.09279610  1
  C  964  1  0.16168100  0.98269500  0.10595500  1
  C  965  1  0.15961600  0.98434400  0.13871300  1
  C  973  1  0.37578300  0.99342900  0.21823600  1
  C  974  1  0.12984200  0.99584500  0.08802910  1
  C  977  1  0.09226600  0.55142800  0.67648300  1
  C  978  1  0.05203700  0.56518000  0.68051000  1
  C  979  1  0.01586000  0.54676400  0.68534700  1
  C  980  1  0.01925400  0.51397800  0.68588100  1
  C  982  1  0.09440800  0.51869200  0.67849100  1
  C  983  1  0.98330000  0.49389200  0.68547000  1
  C  984  1  0.98647300  0.46121600  0.68840000  1
  C  985  1  0.95098000  0.44230700  0.68275400  1
  C  986  1  0.91163200  0.45550100  0.67443600  1
  C  987  1  0.90953600  0.48826800  0.67298800  1
  C  995  1  0.12549800  0.56798600  0.66344000  1
  C  996  1  0.87968200  0.43763600  0.66134800  1
  C  999  1  0.59234500  0.45533600  0.63078200  1
  C  1000  1  0.55209800  0.44154000  0.62698800  1
  C  1001  1  0.51586600  0.45991000  0.62218900  1
  C  1002  1  0.51921900  0.49269800  0.62147400  1
  C  1004  1  0.59441900  0.48806600  0.62862800  1
  C  1005  1  0.48323700  0.51275700  0.62187600  1
  C  1006  1  0.48636500  0.54543300  0.61892300  1
  C  1007  1  0.45086300  0.56433000  0.62459600  1
  C  1008  1  0.41153500  0.55112900  0.63295600  1
  C  1009  1  0.40948300  0.51836400  0.63441500  1
  C  1017  1  0.62574500  0.43886700  0.64372300  1
  C  1018  1  0.37966600  0.56902700  0.64609900  1
  N  38  1  0.12229500  0.98755400  0.40935600  1
  N  39  1  0.05323800  0.92445200  0.25349600  1
  N  40  1  0.88248800  0.01925500  0.41003900  1
  N  41  1  0.94400900  0.07669600  0.25392300  1
  N  79  1  0.62210800  0.01924000  0.59728800  1
  N  80  1  0.55331000  0.08215400  0.75326000  1
  N  81  1  0.38242800  0.98741200  0.59676500  1
  N  82  1  0.44414200  0.92983400  0.75277400  1
  N  120  1  0.37215900  0.59730400  0.98744500  1
  N  121  1  0.30349900  0.75333700  0.92455400  1
  N  122  1  0.13231900  0.59690000  0.01907800  1
  N  123  1  0.19411500  0.75274700  0.07683300  1
  N  161  1  0.87222500  0.40934700  0.01914700  1
  N  162  1  0.80315900  0.25342600  0.08218000  1
  N  163  1  0.63241900  0.40992300  0.98731500  1
  N  164  1  0.69407300  0.25392100  0.92984800  1
  N  169  1  0.85859000  0.20081500  0.16756700  1
  N  176  1  0.90918300  0.12614300  0.15851900  1
  N  191  1  0.35813600  0.80608100  0.83934000  1
  N  198  1  0.40972600  0.88041000  0.84827400  1
  N  213  1  0.10863200  0.83913400  0.20085500  1
  N  220  1  0.15945200  0.84817700  0.12629000  1
  N  235  1  0.60862500  0.16747800  0.80582500  1
  N  242  1  0.65924300  0.15847100  0.88050500  1
  N  257  1  0.80866700  0.03249700  0.50506800  1
  N  264  1  0.69462800  0.02760500  0.50103700  1
  N  279  1  0.30869000  0.97412300  0.50175500  1
  N  286  1  0.19471600  0.97930600  0.50569000  1
  N  301  1  0.05866200  0.50172700  0.03206300  1
  N  308  1  0.94466600  0.50564800  0.02755900  1
  N  323  1  0.55863900  0.50499100  0.97423500  1
  N  330  1  0.44461900  0.50100000  0.97899400  1
  N  378  1  0.12229500  0.98755400  0.73456500  1
  N  379  1  0.05323800  0.92445200  0.57870500  1
  N  380  1  0.88248800  0.01925500  0.73524800  1
  N  381  1  0.94400900  0.07669600  0.57913200  1
  N  419  1  0.62210800  0.01924000  0.92249700  1
  N  420  1  0.55331000  0.08215400  0.07846850  1
  N  421  1  0.38242800  0.98741200  0.92197400  1
  N  422  1  0.44414200  0.92983400  0.07798250  1
  N  460  1  0.37215900  0.59730400  0.31265400  1
  N  461  1  0.30349900  0.75333700  0.24976300  1
  N  462  1  0.13231900  0.59690000  0.34428700  1
  N  463  1  0.19411500  0.75274700  0.40204200  1
  N  501  1  0.87222500  0.40934700  0.34435600  1
  N  502  1  0.80315900  0.25342600  0.40738900  1
  N  503  1  0.63241900  0.40992300  0.31252400  1
  N  504  1  0.69407300  0.25392100  0.25505700  1
  N  509  1  0.85859000  0.20081500  0.49277600  1
  N  516  1  0.90918300  0.12614300  0.48372800  1
  N  531  1  0.35813600  0.80608100  0.16454900  1
  N  538  1  0.40972600  0.88041000  0.17348300  1
  N  553  1  0.10863200  0.83913400  0.52606400  1
  N  560  1  0.15945200  0.84817700  0.45149900  1
  N  575  1  0.60862500  0.16747800  0.13103400  1
  N  582  1  0.65924300  0.15847100  0.20571400  1
  N  597  1  0.80866700  0.03249700  0.83027700  1
  N  604  1  0.69462800  0.02760500  0.82624600  1
  N  619  1  0.30869000  0.97412300  0.82696400  1
  N  626  1  0.19471600  0.97930600  0.83089900  1
  N  641  1  0.05866200  0.50172700  0.35727200  1
  N  648  1  0.94466600  0.50564800  0.35276800  1
  N  663  1  0.55863900  0.50499100  0.29944400  1
  N  670  1  0.44461900  0.50100000  0.30420300  1
  N  718  1  0.12229500  0.98755400  0.05977310  1
  N  719  1  0.05323800  0.92445200  0.90391300  1
  N  720  1  0.88248800  0.01925500  0.06045610  1
  N  721  1  0.94400900  0.07669600  0.90434000  1
  N  759  1  0.62210800  0.01924000  0.24770500  1
  N  760  1  0.55331000  0.08215400  0.40367700  1
  N  761  1  0.38242800  0.98741200  0.24718200  1
  N  762  1  0.44414200  0.92983400  0.40319100  1
  N  800  1  0.37215900  0.59730400  0.63786200  1
  N  801  1  0.30349900  0.75333700  0.57497100  1
  N  802  1  0.13231900  0.59690000  0.66949500  1
  N  803  1  0.19411500  0.75274700  0.72725000  1
  N  841  1  0.87222500  0.40934700  0.66956400  1
  N  842  1  0.80315900  0.25342600  0.73259700  1
  N  843  1  0.63241900  0.40992300  0.63773200  1
  N  844  1  0.69407300  0.25392100  0.58026500  1
  N  849  1  0.85859000  0.20081500  0.81798400  1
  N  856  1  0.90918300  0.12614300  0.80893600  1
  N  871  1  0.35813600  0.80608100  0.48975700  1
  N  878  1  0.40972600  0.88041000  0.49869100  1
  N  893  1  0.10863200  0.83913400  0.85127200  1
  N  900  1  0.15945200  0.84817700  0.77670700  1
  N  915  1  0.60862500  0.16747800  0.45624200  1
  N  922  1  0.65924300  0.15847100  0.53092200  1
  N  937  1  0.80866700  0.03249700  0.15548500  1
  N  944  1  0.69462800  0.02760500  0.15145400  1
  N  959  1  0.30869000  0.97412300  0.15217200  1
  N  966  1  0.19471600  0.97930600  0.15610700  1
  N  981  1  0.05866200  0.50172700  0.68248000  1
  N  988  1  0.94466600  0.50564800  0.67797600  1
  N  1003  1  0.55863900  0.50499100  0.62465200  1
  N  1010  1  0.44461900  0.50100000  0.62941100  1
