# generated using pymatgen
data_H17C24(NO)2
_symmetry_space_group_name_H-M   'P 1'
_cell_length_a   49.07300000
_cell_length_b   49.07300000
_cell_length_c   70.44150000
_cell_angle_alpha   90.00000000
_cell_angle_beta   90.00000000
_cell_angle_gamma   90.00000000
_symmetry_Int_Tables_number   1
_chemical_formula_structural   H17C24(NO)2
_chemical_formula_sum   'H1088 C1536 N128 O128'
_cell_volume   169634.35537375
_cell_formula_units_Z   64
loop_
 _symmetry_equiv_pos_site_id
 _symmetry_equiv_pos_as_xyz
  1  'x, y, z'
loop_
 _atom_site_type_symbol
 _atom_site_label
 _atom_site_symmetry_multiplicity
 _atom_site_fract_x
 _atom_site_fract_y
 _atom_site_fract_z
 _atom_site_occupancy
  H  9  1  0.21221900  0.40510500  0.92794400  1
  H  17  1  0.13584900  0.43317900  0.81106200  1
  H  19  1  0.12520400  0.47235400  0.87275500  1
  H  20  1  0.14567600  0.46600000  0.90245300  1
  H  21  1  0.20458500  0.37445500  0.83620100  1
  H  22  1  0.22366500  0.36687800  0.86616600  1
  H  27  1  0.24781300  0.36980200  0.89997200  1
  H  28  1  0.17318000  0.37831200  0.80829100  1
  H  29  1  0.11530500  0.48275000  0.83872800  1
  H  30  1  0.18584700  0.46435700  0.92849900  1
  H  39  1  0.28621000  0.58665700  0.42808600  1
  H  47  1  0.36214600  0.55838500  0.31108800  1
  H  49  1  0.37302800  0.51932000  0.37279800  1
  H  50  1  0.35265600  0.52571700  0.40252400  1
  H  51  1  0.29359100  0.61723400  0.33632000  1
  H  52  1  0.27462800  0.62486700  0.36631700  1
  H  57  1  0.25056200  0.62195300  0.40014600  1
  H  58  1  0.32497100  0.61320700  0.30827300  1
  H  59  1  0.38278100  0.50884400  0.33878800  1
  H  60  1  0.31255900  0.52732100  0.42855000  1
  H  69  1  0.83869000  0.95999300  0.17673400  1
  H  77  1  0.81431000  0.88154800  0.06016000  1
  H  79  1  0.77150000  0.87369900  0.12086700  1
  H  80  1  0.77708100  0.89458000  0.15054500  1
  H  81  1  0.87257600  0.95026200  0.08567000  1
  H  82  1  0.87921900  0.96988400  0.11557200  1
  H  87  1  0.87481800  0.99491800  0.15066300  1
  H  88  1  0.86911400  0.91876400  0.05780000  1
  H  89  1  0.77076200  0.85950200  0.07469600  1
  H  90  1  0.77946600  0.93466900  0.17701400  1
  H  99  1  0.65949300  0.03192400  0.67692000  1
  H  107  1  0.68337600  0.10961000  0.56005000  1
  H  109  1  0.72620600  0.11812900  0.62070800  1
  H  110  1  0.72072500  0.09748300  0.65046900  1
  H  111  1  0.62534000  0.04096100  0.58586800  1
  H  112  1  0.61882900  0.02151600  0.61584200  1
  H  117  1  0.62321100  0.99677100  0.65004900  1
  H  118  1  0.62884300  0.07254700  0.55767600  1
  H  119  1  0.72683400  0.13197100  0.57449700  1
  H  120  1  0.71889500  0.05809500  0.67676100  1
  H  129  1  0.31170700  0.38273400  0.56083600  1
  H  137  1  0.33941300  0.45842300  0.67797600  1
  H  139  1  0.37780500  0.47023600  0.61630000  1
  H  140  1  0.37037100  0.45128100  0.58627400  1
  H  141  1  0.27869300  0.39190400  0.65223200  1
  H  142  1  0.27244700  0.37159400  0.62247400  1
  H  147  1  0.26202800  0.36203400  0.58859500  1
  H  148  1  0.27996100  0.43155300  0.67817600  1
  H  149  1  0.37459900  0.49427800  0.65086500  1
  H  150  1  0.36651100  0.41972800  0.55812500  1
  H  159  1  0.18652800  0.60876100  0.06078400  1
  H  167  1  0.15884000  0.53298000  0.17789700  1
  H  169  1  0.12043500  0.52122200  0.11622000  1
  H  170  1  0.12787000  0.54019500  0.08619800  1
  H  171  1  0.21961400  0.59946200  0.15216200  1
  H  172  1  0.22584100  0.61980800  0.12241400  1
  H  177  1  0.23619900  0.62947900  0.08854700  1
  H  178  1  0.21832400  0.55978300  0.17810300  1
  H  179  1  0.12370300  0.49717000  0.15102900  1
  H  180  1  0.13174400  0.57176900  0.05804700  1
  H  189  1  0.63767500  0.93654400  0.31108700  1
  H  197  1  0.70930500  0.90451800  0.42884600  1
  H  199  1  0.72612900  0.87115000  0.36621500  1
  H  200  1  0.70798400  0.87952100  0.33608900  1
  H  201  1  0.64414300  0.96642600  0.40310800  1
  H  202  1  0.62479400  0.97376800  0.37315400  1
  H  207  1  0.61567900  0.98507400  0.33901600  1
  H  208  1  0.68412000  0.96388300  0.42994400  1
  H  209  1  0.74193600  0.87069300  0.41297700  1
  H  210  1  0.67521900  0.88178900  0.30855400  1
  H  219  1  0.86040800  0.05493300  0.81122500  1
  H  227  1  0.78914300  0.08716700  0.92906900  1
  H  229  1  0.77222500  0.12051900  0.86644900  1
  H  230  1  0.79030700  0.11212800  0.83630900  1
  H  231  1  0.85427700  0.02526100  0.90329100  1
  H  232  1  0.87352200  0.01785500  0.87331400  1
  H  237  1  0.88243500  0.00641900  0.83929700  1
  H  238  1  0.81443000  0.02772300  0.93006200  1
  H  239  1  0.75636900  0.12088400  0.91315100  1
  H  240  1  0.82296600  0.10971200  0.80866400  1
  H  249  1  0.78393300  0.58484900  0.07142800  1
  H  257  1  0.86295600  0.56117600  0.18788100  1
  H  259  1  0.87068500  0.51816300  0.12724000  1
  H  260  1  0.84970400  0.52360800  0.09758200  1
  H  261  1  0.79400900  0.61918400  0.16239400  1
  H  262  1  0.77420000  0.62561900  0.13253700  1
  H  267  1  0.74913100  0.62139900  0.09881200  1
  H  268  1  0.82561700  0.61595200  0.19015500  1
  H  269  1  0.88491100  0.51752900  0.17338400  1
  H  270  1  0.80943100  0.52594700  0.07100800  1
  H  279  1  0.71401000  0.40666400  0.57131000  1
  H  287  1  0.63532900  0.43044300  0.68786600  1
  H  289  1  0.62742500  0.47340500  0.62721500  1
  H  290  1  0.64833000  0.46794400  0.59753500  1
  H  291  1  0.70412700  0.37234800  0.66229000  1
  H  292  1  0.72384600  0.36588200  0.63240600  1
  H  297  1  0.74882800  0.37005700  0.59869900  1
  H  298  1  0.67248400  0.37572600  0.69019000  1
  H  299  1  0.61327800  0.47402500  0.67341600  1
  H  300  1  0.68847100  0.46565500  0.57098600  1
  H  309  1  0.15866900  0.03400800  0.82028500  1
  H  317  1  0.18749600  0.10795600  0.93769900  1
  H  319  1  0.22797100  0.11807200  0.87636900  1
  H  320  1  0.22123800  0.09827500  0.84644300  1
  H  321  1  0.13096900  0.03743500  0.91262700  1
  H  322  1  0.12341500  0.01865700  0.88259400  1
  H  327  1  0.12416200  0.00185600  0.83606900  1
  H  328  1  0.13293200  0.07063100  0.94007000  1
  H  329  1  0.23013100  0.13124300  0.92270400  1
  H  330  1  0.21739700  0.05771000  0.81887000  1
  H  339  1  0.33945000  0.95719300  0.32012300  1
  H  347  1  0.31052300  0.88413800  0.43779100  1
  H  349  1  0.27013600  0.87350700  0.37647200  1
  H  350  1  0.27690400  0.89306400  0.34647400  1
  H  351  1  0.36695800  0.95456600  0.41250300  1
  H  352  1  0.37452800  0.97313000  0.38240600  1
  H  357  1  0.37397800  0.98935900  0.33567900  1
  H  358  1  0.36494400  0.92116900  0.44018000  1
  H  359  1  0.26800500  0.86056300  0.42281900  1
  H  360  1  0.28051300  0.93312100  0.31894600  1
  H  369  1  0.68998100  0.60693700  0.43673900  1
  H  377  1  0.65833600  0.53494800  0.31903500  1
  H  379  1  0.62508700  0.51802900  0.38168400  1
  H  380  1  0.63328500  0.53634600  0.41178300  1
  H  381  1  0.71986900  0.60051000  0.34471000  1
  H  382  1  0.72712500  0.61993800  0.37465200  1
  H  387  1  0.73847000  0.62904100  0.40868800  1
  H  388  1  0.71730700  0.56033300  0.31770100  1
  H  389  1  0.62472500  0.50212200  0.33493200  1
  H  390  1  0.63540300  0.56961700  0.43939200  1
  H  399  1  0.80802100  0.38469900  0.93685700  1
  H  407  1  0.83969000  0.45663000  0.81914100  1
  H  409  1  0.87294300  0.47356400  0.88178900  1
  H  410  1  0.86473700  0.45526300  0.91189200  1
  H  411  1  0.77811700  0.39111800  0.84483100  1
  H  412  1  0.77085800  0.37169700  0.87477500  1
  H  417  1  0.75952200  0.36255200  0.90875600  1
  H  418  1  0.78067600  0.43127200  0.81783000  1
  H  419  1  0.87339100  0.48934900  0.83496000  1
  H  420  1  0.86260900  0.42199000  0.93950800  1
  H  429  1  0.36143300  0.05780300  0.68778100  1
  H  437  1  0.28644500  0.08555500  0.57056300  1
  H  439  1  0.27135100  0.12106100  0.63283100  1
  H  440  1  0.29041900  0.11380100  0.66281000  1
  H  441  1  0.35122600  0.02346700  0.59665600  1
  H  442  1  0.37130600  0.01702900  0.62652500  1
  H  447  1  0.38464800  0.01505900  0.67277900  1
  H  448  1  0.31004800  0.02728200  0.56892500  1
  H  449  1  0.25444600  0.12016500  0.58621300  1
  H  450  1  0.32385000  0.11217900  0.69012100  1
  H  459  1  0.13691000  0.93400500  0.18765500  1
  H  467  1  0.21167500  0.90597100  0.07040700  1
  H  469  1  0.22677900  0.87049500  0.13267700  1
  H  470  1  0.20775000  0.87780900  0.16266400  1
  H  471  1  0.14715700  0.96831300  0.09652800  1
  H  472  1  0.12716100  0.97485000  0.12641100  1
  H  477  1  0.11358900  0.97656000  0.17278900  1
  H  478  1  0.18773000  0.96462500  0.06899700  1
  H  479  1  0.24367400  0.87132100  0.08611100  1
  H  480  1  0.17432100  0.87954500  0.19000500  1
  H  487  1  0.23833500  0.37418200  0.72210500  1
  H  488  1  0.26578400  0.37957800  0.69424000  1
  H  495  1  0.22908700  0.43690600  0.74532500  1
  H  496  1  0.19748600  0.44349900  0.77070200  1
  H  497  1  0.22098500  0.36889100  0.79492500  1
  H  498  1  0.32119300  0.42807500  0.72479600  1
  H  502  1  0.28125900  0.36037600  0.76840600  1
  H  503  1  0.25540500  0.34213500  0.75650800  1
  H  504  1  0.26485200  0.34436700  0.79633100  1
  H  506  1  0.28619800  0.42168200  0.77122900  1
  H  507  1  0.31910800  0.42251400  0.76134200  1
  H  508  1  0.30169400  0.46556200  0.76726000  1
  H  517  1  0.26000100  0.61713400  0.22204800  1
  H  518  1  0.23261700  0.61168700  0.19414700  1
  H  525  1  0.26900300  0.55449300  0.24540900  1
  H  526  1  0.30051000  0.54793500  0.27085200  1
  H  527  1  0.27711000  0.62270500  0.29487900  1
  H  528  1  0.17698100  0.56347500  0.22471600  1
  H  532  1  0.21693600  0.63125200  0.26823700  1
  H  533  1  0.24288900  0.64937600  0.25635800  1
  H  534  1  0.23327100  0.64732400  0.29616500  1
  H  536  1  0.21185800  0.56994300  0.27119100  1
  H  537  1  0.17897100  0.56917900  0.26126200  1
  H  538  1  0.19623600  0.52609800  0.26727900  1
  H  547  1  0.87509900  0.98595200  0.97205000  1
  H  548  1  0.86964400  0.01388300  0.94441700  1
  H  555  1  0.81195600  0.97567300  0.99458500  1
  H  556  1  0.80496400  0.94356600  0.01959000  1
  H  557  1  0.87890900  0.96693300  0.04482200  1
  H  558  1  0.81999300  0.06796800  0.97520400  1
  H  562  1  0.88765800  0.02777100  0.01899300  1
  H  563  1  0.90633000  0.00229400  0.00702600  1
  H  564  1  0.90316300  0.01087700  0.04691300  1
  H  566  1  0.82633500  0.03218500  0.02134700  1
  H  567  1  0.82506700  0.06526700  0.01176900  1
  H  568  1  0.78224500  0.04699500  0.01721100  1
  H  577  1  0.62315000  0.00562900  0.47185000  1
  H  578  1  0.62873900  0.97787000  0.44415000  1
  H  585  1  0.68611300  0.01569500  0.49455400  1
  H  586  1  0.69307400  0.04759100  0.51969400  1
  H  587  1  0.61901100  0.02415400  0.54471800  1
  H  588  1  0.67809800  0.92350400  0.47493200  1
  H  592  1  0.61025200  0.96353000  0.51866200  1
  H  593  1  0.59166200  0.98911100  0.50674000  1
  H  594  1  0.59465900  0.98026100  0.54660400  1
  H  596  1  0.67151600  0.95903300  0.52115600  1
  H  597  1  0.67279400  0.92600300  0.51149100  1
  H  598  1  0.71561000  0.94418000  0.51711600  1
  H  607  1  0.75877400  0.62192300  0.27603600  1
  H  608  1  0.73110300  0.61627800  0.30376600  1
  H  615  1  0.76895100  0.55889800  0.25356500  1
  H  616  1  0.80100900  0.55184100  0.22853600  1
  H  617  1  0.77755600  0.62571300  0.20322300  1
  H  618  1  0.67682900  0.56670500  0.27307400  1
  H  622  1  0.71677700  0.63452600  0.22909400  1
  H  623  1  0.74226600  0.65321100  0.24103700  1
  H  624  1  0.73364200  0.64999700  0.20115600  1
  H  626  1  0.71222500  0.57335800  0.22680400  1
  H  627  1  0.67921900  0.57195800  0.23650400  1
  H  628  1  0.69755900  0.52921000  0.23089100  1
  H  637  1  0.73916400  0.36982700  0.77609600  1
  H  638  1  0.76677400  0.37549600  0.80386600  1
  H  645  1  0.72928300  0.43280800  0.75350700  1
  H  646  1  0.69732500  0.43987600  0.72841300  1
  H  647  1  0.72061900  0.36583500  0.70326900  1
  H  648  1  0.82130700  0.42477600  0.77317700  1
  H  652  1  0.78129400  0.35691700  0.72926000  1
  H  653  1  0.75568700  0.33836100  0.74118000  1
  H  654  1  0.76448600  0.34141800  0.70131200  1
  H  656  1  0.78603100  0.41809200  0.72685900  1
  H  657  1  0.81901500  0.41940600  0.73660300  1
  H  658  1  0.80084000  0.46220100  0.73090200  1
  H  667  1  0.12660700  0.00799800  0.02741000  1
  H  668  1  0.13163900  0.98082500  0.05546200  1
  H  675  1  0.18913500  0.01562600  0.00440700  1
  H  676  1  0.19690600  0.04649600  0.97876500  1
  H  677  1  0.12245000  0.02377900  0.95395300  1
  H  678  1  0.17840900  0.92380400  0.02505600  1
  H  682  1  0.11213700  0.96436600  0.98104300  1
  H  683  1  0.09417100  0.99082200  0.99249100  1
  H  684  1  0.09700800  0.98046200  0.95279800  1
  H  686  1  0.17256200  0.95827900  0.97841400  1
  H  687  1  0.17274200  0.92549500  0.98851600  1
  H  688  1  0.21612500  0.94193800  0.98243000  1
  H  697  1  0.37162400  0.98343300  0.52757900  1
  H  698  1  0.36672100  0.01047500  0.55570100  1
  H  705  1  0.30913300  0.97617300  0.50458200  1
  H  706  1  0.30115800  0.94557100  0.47881200  1
  H  707  1  0.37564100  0.96818700  0.45400300  1
  H  708  1  0.32023700  0.06788900  0.52543600  1
  H  712  1  0.38628200  0.02731000  0.48132000  1
  H  713  1  0.40416300  0.00069600  0.49265200  1
  H  714  1  0.40128600  0.01137300  0.45300000  1
  H  716  1  0.32590200  0.03360600  0.47871200  1
  H  717  1  0.32588600  0.06634400  0.48888700  1
  H  718  1  0.28242200  0.05013700  0.48277700  1
  H  727  1  0.73629100  0.87720600  0.22075900  1
  H  728  1  0.76332000  0.88210900  0.19263200  1
  H  735  1  0.72883700  0.93930500  0.24421300  1
  H  736  1  0.69831700  0.94659600  0.27013600  1
  H  737  1  0.72174800  0.87191400  0.29429500  1
  H  738  1  0.82093200  0.92830900  0.22294100  1
  H  742  1  0.78075600  0.86216700  0.26668700  1
  H  743  1  0.75417100  0.84429800  0.25531300  1
  H  744  1  0.76514600  0.84658200  0.29494300  1
  H  746  1  0.78664300  0.92266100  0.26966200  1
  H  747  1  0.81937000  0.92246100  0.25947100  1
  H  748  1  0.80351800  0.96602100  0.26569400  1
  H  757  1  0.76154300  0.11417900  0.72117500  1
  H  758  1  0.73458200  0.10923500  0.69301800  1
  H  765  1  0.76874100  0.05200600  0.74467700  1
  H  766  1  0.79937100  0.04474800  0.77054200  1
  H  767  1  0.77632300  0.11964800  0.79456200  1
  H  768  1  0.67684900  0.06314800  0.72329700  1
  H  772  1  0.71719700  0.12944900  0.76704800  1
  H  773  1  0.74382100  0.14717000  0.75560300  1
  H  774  1  0.73295300  0.14508400  0.79525500  1
  H  776  1  0.71101300  0.06890800  0.77006100  1
  H  777  1  0.67831000  0.06910300  0.75982700  1
  H  778  1  0.69410900  0.02554800  0.76614000  1
  H  787  1  0.37085800  0.48517100  0.47189700  1
  H  788  1  0.36550700  0.51283000  0.44411500  1
  H  795  1  0.30811300  0.47577300  0.49518100  1
  H  796  1  0.30150200  0.44424500  0.52059500  1
  H  797  1  0.37610300  0.46777500  0.54480100  1
  H  798  1  0.31696700  0.56801900  0.47482300  1
  H  802  1  0.38462500  0.52798700  0.51822000  1
  H  803  1  0.40289000  0.50212200  0.50635200  1
  H  804  1  0.40062400  0.51164200  0.54616600  1
  H  806  1  0.32325900  0.53271700  0.52114500  1
  H  807  1  0.32243800  0.56568800  0.51135900  1
  H  808  1  0.27938200  0.54821800  0.51717400  1
  H  817  1  0.12737800  0.50640900  0.97181600  1
  H  818  1  0.13279700  0.47884600  0.94400000  1
  H  825  1  0.19005200  0.51575600  0.99506500  1
  H  826  1  0.19671500  0.54725000  0.02049400  1
  H  827  1  0.12216500  0.52369600  0.04475700  1
  H  828  1  0.18127600  0.42356500  0.97467900  1
  H  832  1  0.11358200  0.46352000  0.01815700  1
  H  833  1  0.09530300  0.48939200  0.00630800  1
  H  834  1  0.09762400  0.47984900  0.04611700  1
  H  836  1  0.17486800  0.45874500  0.02104400  1
  H  837  1  0.17572100  0.42579600  0.01122000  1
  H  838  1  0.21875800  0.44326600  0.01710000  1
  H  847  1  0.26082800  0.11886600  0.77726100  1
  H  848  1  0.23361500  0.11395300  0.80529400  1
  H  855  1  0.26866300  0.05621700  0.75449900  1
  H  856  1  0.29966600  0.04834100  0.72894400  1
  H  857  1  0.27693500  0.12261500  0.70386800  1
  H  858  1  0.17676600  0.06685000  0.77497400  1
  H  862  1  0.21738200  0.13299300  0.73078400  1
  H  863  1  0.24374700  0.15105600  0.74225900  1
  H  864  1  0.23360900  0.14800400  0.70254500  1
  H  866  1  0.21135100  0.07249300  0.72835400  1
  H  867  1  0.17853700  0.07230800  0.73841200  1
  H  868  1  0.19508500  0.02892200  0.73247600  1
  H  877  1  0.23747900  0.87266400  0.27702200  1
  H  878  1  0.26464900  0.87761300  0.30508000  1
  H  885  1  0.22991900  0.93534400  0.25426800  1
  H  886  1  0.19888300  0.94332000  0.22874500  1
  H  887  1  0.22125800  0.86893000  0.20367700  1
  H  888  1  0.32166200  0.92449900  0.27475600  1
  H  892  1  0.28083900  0.85833600  0.23054500  1
  H  893  1  0.25440700  0.84039300  0.24203500  1
  H  894  1  0.26451200  0.84338900  0.20231600  1
  H  896  1  0.28716200  0.91879900  0.22810600  1
  H  897  1  0.31995800  0.91895000  0.23819100  1
  H  898  1  0.30349900  0.96235000  0.23219000  1
  H  907  1  0.63082600  0.50886500  0.52741100  1
  H  908  1  0.63580400  0.48185600  0.55555200  1
  H  915  1  0.69284400  0.51606200  0.50375900  1
  H  916  1  0.70015500  0.54637000  0.47772600  1
  H  917  1  0.62530300  0.52305200  0.45377300  1
  H  918  1  0.68166600  0.42406400  0.52516400  1
  H  922  1  0.61545500  0.46426800  0.48159100  1
  H  923  1  0.59770200  0.49098100  0.49290600  1
  H  924  1  0.59982700  0.47973700  0.45331000  1
  H  926  1  0.67587300  0.45827700  0.47842900  1
  H  927  1  0.67565100  0.42557200  0.48865500  1
  H  928  1  0.71921500  0.44131400  0.48231100  1
  H  937  1  0.86728800  0.48274000  0.02750500  1
  H  938  1  0.86227900  0.50969800  0.05566100  1
  H  945  1  0.80530900  0.47554700  0.00391700  1
  H  946  1  0.79792800  0.44525900  0.97788000  1
  H  947  1  0.87270600  0.46859600  0.95383500  1
  H  948  1  0.81642300  0.56752400  0.02529800  1
  H  952  1  0.88263000  0.52736200  0.98164900  1
  H  953  1  0.90041400  0.50065000  0.99294500  1
  H  954  1  0.89819700  0.51189300  0.95335100  1
  H  956  1  0.82226500  0.53336500  0.97854500  1
  H  957  1  0.82246700  0.56606100  0.98878400  1
  H  958  1  0.77891300  0.55030700  0.98242000  1
  H  967  1  0.18659600  0.26432900  0.91750800  1
  H  968  1  0.18101400  0.31252800  0.91767600  1
  H  975  1  0.23685100  0.22755900  0.93577000  1
  H  976  1  0.22912400  0.17951500  0.93398600  1
  H  977  1  0.20901500  0.18650800  0.87626700  1
  H  978  1  0.26271700  0.32265400  0.90097200  1
  H  982  1  0.23351300  0.25408100  0.86934200  1
  H  983  1  0.19838000  0.25419300  0.87465800  1
  H  984  1  0.22653800  0.21732100  0.85040300  1
  H  986  1  0.27872400  0.24875200  0.89856900  1
  H  987  1  0.28331700  0.27875400  0.88512100  1
  H  988  1  0.31599700  0.27321100  0.90849900  1
  H  997  1  0.31176600  0.72743300  0.41770900  1
  H  998  1  0.31734800  0.67922300  0.41786600  1
  H  1005  1  0.26142900  0.76419000  0.43591400  1
  H  1006  1  0.26907300  0.81226000  0.43412800  1
  H  1007  1  0.28934900  0.80527400  0.37643500  1
  H  1008  1  0.23568600  0.66910600  0.40107400  1
  H  1012  1  0.26496700  0.73767900  0.36949000  1
  H  1013  1  0.30008400  0.73757300  0.37485200  1
  H  1014  1  0.27198500  0.77443400  0.35055800  1
  H  1016  1  0.21968300  0.74301200  0.39866000  1
  H  1017  1  0.21512000  0.71301000  0.38520900  1
  H  1018  1  0.18238400  0.71855600  0.40854800  1
  H  1027  1  0.98059700  0.93275400  0.16622200  1
  H  1028  1  0.93238900  0.92715000  0.16599900  1
  H  1035  1  0.01710100  0.98255300  0.18548000  1
  H  1036  1  0.06516300  0.97489900  0.18388200  1
  H  1037  1  0.05890100  0.95637600  0.12586300  1
  H  1038  1  0.92241600  0.00938700  0.15059600  1
  H  1042  1  0.99141300  0.98107400  0.11887000  1
  H  1043  1  0.99122200  0.94579600  0.12370200  1
  H  1044  1  0.02840500  0.97461200  0.10006000  1
  H  1046  1  0.99634300  0.02549100  0.14885000  1
  H  1047  1  0.96647900  0.03051300  0.13532900  1
  H  1048  1  0.97177300  0.06243300  0.15923700  1
  H  1057  1  0.51778600  0.05860600  0.66699600  1
  H  1058  1  0.56599800  0.06414100  0.66690100  1
  H  1065  1  0.48105100  0.00876200  0.68579800  1
  H  1066  1  0.43301600  0.01655800  0.68408000  1
  H  1067  1  0.43970600  0.03568200  0.62619100  1
  H  1068  1  0.57589100  0.98211900  0.65089900  1
  H  1072  1  0.50719000  0.01093400  0.61926600  1
  H  1073  1  0.50741400  0.04614700  0.62431800  1
  H  1074  1  0.47034000  0.01770600  0.60037500  1
  H  1076  1  0.50194800  0.96616500  0.64893600  1
  H  1077  1  0.53183700  0.96129700  0.63541300  1
  H  1078  1  0.52643800  0.92903700  0.65908800  1
  H  1087  1  0.31300700  0.24994600  0.57703700  1
  H  1088  1  0.32326800  0.29724500  0.57464500  1
  H  1095  1  0.25846400  0.21499200  0.56246400  1
  H  1096  1  0.26188800  0.16686800  0.56792000  1
  H  1097  1  0.28625100  0.18118700  0.62414700  1
  H  1098  1  0.24365500  0.31683200  0.59212700  1
  H  1102  1  0.26818600  0.25133600  0.62635600  1
  H  1103  1  0.30284100  0.24736000  0.62029000  1
  H  1104  1  0.27297900  0.21721500  0.64783700  1
  H  1106  1  0.22059000  0.24527600  0.59798700  1
  H  1107  1  0.21972400  0.27660800  0.61029300  1
  H  1108  1  0.18543700  0.27256800  0.58790800  1
  H  1117  1  0.18502900  0.74148300  0.07692800  1
  H  1118  1  0.17487100  0.69415000  0.07454700  1
  H  1125  1  0.23964900  0.77646200  0.06242700  1
  H  1126  1  0.23622800  0.82460700  0.06782900  1
  H  1127  1  0.21157500  0.81041100  0.12401400  1
  H  1128  1  0.25445000  0.67473600  0.09218900  1
  H  1132  1  0.22962100  0.74027700  0.12633000  1
  H  1133  1  0.19499000  0.74420000  0.12018200  1
  H  1134  1  0.22469000  0.77444100  0.14776400  1
  H  1136  1  0.27735200  0.74634800  0.09807100  1
  H  1137  1  0.27823700  0.71501900  0.11038000  1
  H  1138  1  0.31260200  0.71912900  0.08806100  1
  H  1147  1  0.50463200  0.93174100  0.32735000  1
  H  1148  1  0.55215900  0.92242400  0.32510400  1
  H  1155  1  0.46891800  0.98587900  0.31247700  1
  H  1156  1  0.42077700  0.98205400  0.31769800  1
  H  1157  1  0.43473600  0.95781000  0.37400300  1
  H  1158  1  0.57004500  0.00253000  0.34237400  1
  H  1162  1  0.50466900  0.97655400  0.37653300  1
  H  1163  1  0.50116400  0.94184600  0.37047400  1
  H  1164  1  0.47038900  0.97138800  0.39785000  1
  H  1166  1  0.49801700  0.02418000  0.34804100  1
  H  1167  1  0.52929700  0.02577600  0.36037300  1
  H  1168  1  0.52461300  0.05980200  0.33785600  1
  H  1177  1  0.99355500  0.05947600  0.82743600  1
  H  1178  1  0.94605400  0.06890800  0.82520400  1
  H  1185  1  0.02922800  0.00542900  0.81254400  1
  H  1186  1  0.07735700  0.00933700  0.81780700  1
  H  1187  1  0.06327800  0.03342500  0.87411600  1
  H  1188  1  0.92799300  0.98881900  0.84244000  1
  H  1192  1  0.99334900  0.01459800  0.87659300  1
  H  1193  1  0.99686400  0.04931100  0.87055100  1
  H  1194  1  0.02759800  0.01974700  0.89793900  1
  H  1196  1  0.99998200  0.96701500  0.84807000  1
  H  1197  1  0.96871600  0.96547600  0.86042500  1
  H  1198  1  0.97329500  0.93145800  0.83789200  1
  H  1207  1  0.81138100  0.72617600  0.08099500  1
  H  1208  1  0.81652100  0.67793500  0.08106100  1
  H  1215  1  0.76202000  0.76327100  0.06229800  1
  H  1216  1  0.77057300  0.81117400  0.06391200  1
  H  1217  1  0.78946300  0.80444500  0.12184500  1
  H  1218  1  0.73456500  0.66869800  0.09740400  1
  H  1222  1  0.76369100  0.73736500  0.12888500  1
  H  1223  1  0.79890800  0.73663200  0.12386800  1
  H  1224  1  0.77092700  0.77419800  0.14770600  1
  H  1226  1  0.71921100  0.74277300  0.09938200  1
  H  1227  1  0.71419100  0.71294400  0.11294400  1
  H  1228  1  0.68181500  0.71856900  0.08937200  1
  H  1237  1  0.68642100  0.26543100  0.58070800  1
  H  1238  1  0.68138300  0.31369000  0.58080300  1
  H  1245  1  0.73571000  0.22822700  0.56207500  1
  H  1246  1  0.72709100  0.18032500  0.56369400  1
  H  1247  1  0.70815800  0.18710600  0.62162000  1
  H  1248  1  0.76330600  0.32273400  0.59726900  1
  H  1252  1  0.73403100  0.25412400  0.62866400  1
  H  1253  1  0.69882700  0.25497100  0.62362400  1
  H  1254  1  0.72665000  0.21731900  0.64748100  1
  H  1256  1  0.77850600  0.24862000  0.59921700  1
  H  1257  1  0.78354300  0.27842000  0.61280700  1
  H  1258  1  0.81598300  0.27276100  0.58928200  1
  H  1267  1  0.68485400  0.73998200  0.42021800  1
  H  1268  1  0.67558800  0.69244000  0.42242600  1
  H  1275  1  0.73869200  0.77553700  0.43559400  1
  H  1276  1  0.73469400  0.82370200  0.43061200  1
  H  1277  1  0.71131200  0.81027100  0.37407100  1
  H  1278  1  0.75593700  0.67467700  0.40564900  1
  H  1282  1  0.73041200  0.74042200  0.37130800  1
  H  1283  1  0.69560500  0.74376200  0.37713700  1
  H  1284  1  0.72545200  0.77491300  0.35012800  1
  H  1286  1  0.77753000  0.74673900  0.40007400  1
  H  1287  1  0.77936400  0.71544300  0.38778000  1
  H  1288  1  0.81305600  0.72023300  0.41052800  1
  H  1297  1  0.81319700  0.25168800  0.92038100  1
  H  1298  1  0.82245100  0.29923400  0.92253400  1
  H  1305  1  0.75953000  0.21608200  0.93584000  1
  H  1306  1  0.76364800  0.16792300  0.93086000  1
  H  1307  1  0.78679800  0.18138000  0.87428600  1
  H  1308  1  0.74206000  0.31693200  0.90580000  1
  H  1312  1  0.76754100  0.25119100  0.87152000  1
  H  1313  1  0.80236200  0.24791000  0.87731700  1
  H  1314  1  0.77251700  0.21669600  0.85034300  1
  H  1316  1  0.72050200  0.24483900  0.90032600  1
  H  1317  1  0.71863600  0.27609700  0.88798600  1
  H  1318  1  0.68497400  0.27136100  0.91076200  1
  H  1327  1  0.48040500  0.43271500  0.66716500  1
  H  1328  1  0.43222200  0.42706000  0.66720100  1
  H  1335  1  0.51704800  0.48224500  0.68599200  1
  H  1336  1  0.56498100  0.47395100  0.68427200  1
  H  1337  1  0.55817300  0.45551500  0.62627300  1
  H  1338  1  0.42201400  0.50904400  0.65121200  1
  H  1342  1  0.49091200  0.48098200  0.61944600  1
  H  1343  1  0.49043700  0.44571800  0.62431000  1
  H  1344  1  0.52773400  0.47416700  0.60053600  1
  H  1346  1  0.49591900  0.52520800  0.64910600  1
  H  1347  1  0.46597300  0.53000000  0.63563000  1
  H  1348  1  0.47135700  0.56226900  0.65929800  1
  H  1357  1  0.01779400  0.55886200  0.16700300  1
  H  1358  1  0.06598600  0.56451200  0.16699400  1
  H  1365  1  0.98119800  0.50932500  0.18589900  1
  H  1366  1  0.93325300  0.51762900  0.18422200  1
  H  1367  1  0.93995500  0.53603400  0.12621000  1
  H  1368  1  0.07616200  0.48250200  0.15107400  1
  H  1372  1  0.00718700  0.51052700  0.11933200  1
  H  1373  1  0.00771300  0.54579700  0.12417800  1
  H  1374  1  0.97033200  0.51736800  0.10045600  1
  H  1376  1  0.00224800  0.46634400  0.14902200  1
  H  1377  1  0.03218500  0.46151900  0.13553900  1
  H  1378  1  0.02680400  0.42928900  0.15923400  1
  H  1387  1  0.00322300  0.43142500  0.82756200  1
  H  1388  1  0.05055300  0.42117700  0.82533600  1
  H  1395  1  0.96858400  0.48553800  0.81227300  1
  H  1396  1  0.92041300  0.48196800  0.81734100  1
  H  1397  1  0.93383000  0.45888000  0.87394000  1
  H  1398  1  0.06999600  0.50110300  0.84219700  1
  H  1402  1  0.00386400  0.47735200  0.87654800  1
  H  1403  1  0.00015000  0.44255500  0.87080400  1
  H  1404  1  0.96939500  0.47284700  0.89779500  1
  H  1406  1  0.99838700  0.52418900  0.84776200  1
  H  1407  1  0.02969500  0.52533600  0.86008600  1
  H  1408  1  0.02565200  0.55918400  0.83738100  1
  H  1417  1  0.49488100  0.56000100  0.32747500  1
  H  1418  1  0.44756800  0.57033800  0.32532100  1
  H  1425  1  0.52949100  0.50599700  0.31211000  1
  H  1426  1  0.57766000  0.50960800  0.31719700  1
  H  1427  1  0.56420300  0.53248000  0.37382000  1
  H  1428  1  0.42803400  0.49040600  0.34212400  1
  H  1432  1  0.49417000  0.51397300  0.37640200  1
  H  1433  1  0.49789500  0.54878100  0.37069100  1
  H  1434  1  0.52863100  0.51843200  0.39766100  1
  H  1436  1  0.49962500  0.46719800  0.34755700  1
  H  1437  1  0.46836200  0.46607900  0.35993700  1
  H  1438  1  0.47226600  0.43226400  0.33719600  1
  H  1449  1  0.21221900  0.40510500  0.35382900  1
  H  1457  1  0.13584900  0.43317900  0.23694700  1
  H  1459  1  0.12520400  0.47235400  0.29864000  1
  H  1460  1  0.14567600  0.46600000  0.32833800  1
  H  1461  1  0.20458500  0.37445500  0.26208600  1
  H  1462  1  0.22366500  0.36687800  0.29205100  1
  H  1467  1  0.24781300  0.36980200  0.32585700  1
  H  1468  1  0.17318000  0.37831200  0.23417600  1
  H  1469  1  0.11530500  0.48275000  0.26461300  1
  H  1470  1  0.18584700  0.46435700  0.35438400  1
  H  1479  1  0.28621000  0.58665700  0.85397100  1
  H  1487  1  0.36214600  0.55838500  0.73697300  1
  H  1489  1  0.37302800  0.51932000  0.79868300  1
  H  1490  1  0.35265600  0.52571700  0.82840900  1
  H  1491  1  0.29359100  0.61723400  0.76220500  1
  H  1492  1  0.27462800  0.62486700  0.79220200  1
  H  1497  1  0.25056200  0.62195300  0.82603100  1
  H  1498  1  0.32497100  0.61320700  0.73415800  1
  H  1499  1  0.38278100  0.50884400  0.76467300  1
  H  1500  1  0.31255900  0.52732100  0.85443500  1
  H  1509  1  0.83869000  0.95999300  0.60261900  1
  H  1517  1  0.81431000  0.88154800  0.48604500  1
  H  1519  1  0.77150000  0.87369900  0.54675200  1
  H  1520  1  0.77708100  0.89458000  0.57643000  1
  H  1521  1  0.87257600  0.95026200  0.51155500  1
  H  1522  1  0.87921900  0.96988400  0.54145700  1
  H  1527  1  0.87481800  0.99491800  0.57654800  1
  H  1528  1  0.86911400  0.91876400  0.48368500  1
  H  1529  1  0.77076200  0.85950200  0.50058100  1
  H  1530  1  0.77946600  0.93466900  0.60289900  1
  H  1539  1  0.65949300  0.03192400  0.10280500  1
  H  1547  1  0.68337600  0.10961000  0.98593500  1
  H  1549  1  0.72620600  0.11812900  0.04659330  1
  H  1550  1  0.72072500  0.09748300  0.07635430  1
  H  1551  1  0.62534000  0.04096100  0.01175330  1
  H  1552  1  0.61882900  0.02151600  0.04172730  1
  H  1557  1  0.62321100  0.99677100  0.07593430  1
  H  1558  1  0.62884300  0.07254700  0.98356100  1
  H  1559  1  0.72683400  0.13197100  0.00038231  1
  H  1560  1  0.71889500  0.05809500  0.10264600  1
  H  1569  1  0.31170700  0.38273400  0.98672100  1
  H  1577  1  0.33941300  0.45842300  0.10386100  1
  H  1579  1  0.37780500  0.47023600  0.04218530  1
  H  1580  1  0.37037100  0.45128100  0.01215930  1
  H  1581  1  0.27869300  0.39190400  0.07811730  1
  H  1582  1  0.27244700  0.37159400  0.04835930  1
  H  1587  1  0.26202800  0.36203400  0.01448030  1
  H  1588  1  0.27996100  0.43155300  0.10406100  1
  H  1589  1  0.37459900  0.49427800  0.07675030  1
  H  1590  1  0.36651100  0.41972800  0.98401000  1
  H  1599  1  0.18652800  0.60876100  0.48666900  1
  H  1607  1  0.15884000  0.53298000  0.60378200  1
  H  1609  1  0.12043500  0.52122200  0.54210500  1
  H  1610  1  0.12787000  0.54019500  0.51208300  1
  H  1611  1  0.21961400  0.59946200  0.57804700  1
  H  1612  1  0.22584100  0.61980800  0.54829900  1
  H  1617  1  0.23619900  0.62947900  0.51443200  1
  H  1618  1  0.21832400  0.55978300  0.60398800  1
  H  1619  1  0.12370300  0.49717000  0.57691400  1
  H  1620  1  0.13174400  0.57176900  0.48393200  1
  H  1629  1  0.63767500  0.93654400  0.73697200  1
  H  1637  1  0.70930500  0.90451800  0.85473100  1
  H  1639  1  0.72612900  0.87115000  0.79210000  1
  H  1640  1  0.70798400  0.87952100  0.76197400  1
  H  1641  1  0.64414300  0.96642600  0.82899300  1
  H  1642  1  0.62479400  0.97376800  0.79903900  1
  H  1647  1  0.61567900  0.98507400  0.76490100  1
  H  1648  1  0.68412000  0.96388300  0.85582900  1
  H  1649  1  0.74193600  0.87069300  0.83886200  1
  H  1650  1  0.67521900  0.88178900  0.73443900  1
  H  1659  1  0.86040800  0.05493300  0.23711000  1
  H  1667  1  0.78914300  0.08716700  0.35495400  1
  H  1669  1  0.77222500  0.12051900  0.29233400  1
  H  1670  1  0.79030700  0.11212800  0.26219400  1
  H  1671  1  0.85427700  0.02526100  0.32917600  1
  H  1672  1  0.87352200  0.01785500  0.29919900  1
  H  1677  1  0.88243500  0.00641900  0.26518200  1
  H  1678  1  0.81443000  0.02772300  0.35594700  1
  H  1679  1  0.75636900  0.12088400  0.33903600  1
  H  1680  1  0.82296600  0.10971200  0.23454900  1
  H  1689  1  0.78393300  0.58484900  0.49731300  1
  H  1697  1  0.86295600  0.56117600  0.61376600  1
  H  1699  1  0.87068500  0.51816300  0.55312500  1
  H  1700  1  0.84970400  0.52360800  0.52346700  1
  H  1701  1  0.79400900  0.61918400  0.58827900  1
  H  1702  1  0.77420000  0.62561900  0.55842200  1
  H  1707  1  0.74913100  0.62139900  0.52469700  1
  H  1708  1  0.82561700  0.61595200  0.61604000  1
  H  1709  1  0.88491100  0.51752900  0.59926900  1
  H  1710  1  0.80943100  0.52594700  0.49689300  1
  H  1719  1  0.71401000  0.40666400  0.99719500  1
  H  1727  1  0.63532900  0.43044300  0.11375100  1
  H  1729  1  0.62742500  0.47340500  0.05310030  1
  H  1730  1  0.64833000  0.46794400  0.02342030  1
  H  1731  1  0.70412700  0.37234800  0.08817530  1
  H  1732  1  0.72384600  0.36588200  0.05829130  1
  H  1737  1  0.74882800  0.37005700  0.02458430  1
  H  1738  1  0.67248400  0.37572600  0.11607500  1
  H  1739  1  0.61327800  0.47402500  0.09930130  1
  H  1740  1  0.68847100  0.46565500  0.99687100  1
  H  1749  1  0.15866900  0.03400800  0.24617000  1
  H  1757  1  0.18749600  0.10795600  0.36358400  1
  H  1759  1  0.22797100  0.11807200  0.30225400  1
  H  1760  1  0.22123800  0.09827500  0.27232800  1
  H  1761  1  0.13096900  0.03743500  0.33851200  1
  H  1762  1  0.12341500  0.01865700  0.30847900  1
  H  1767  1  0.12416200  0.00185600  0.26195400  1
  H  1768  1  0.13293200  0.07063100  0.36595500  1
  H  1769  1  0.23013100  0.13124300  0.34858900  1
  H  1770  1  0.21739700  0.05771000  0.24475500  1
  H  1779  1  0.33945000  0.95719300  0.74600800  1
  H  1787  1  0.31052300  0.88413800  0.86367600  1
  H  1789  1  0.27013600  0.87350700  0.80235700  1
  H  1790  1  0.27690400  0.89306400  0.77235900  1
  H  1791  1  0.36695800  0.95456600  0.83838800  1
  H  1792  1  0.37452800  0.97313000  0.80829100  1
  H  1797  1  0.37397800  0.98935900  0.76156400  1
  H  1798  1  0.36494400  0.92116900  0.86606500  1
  H  1799  1  0.26800500  0.86056300  0.84870400  1
  H  1800  1  0.28051300  0.93312100  0.74483100  1
  H  1809  1  0.68998100  0.60693700  0.86262400  1
  H  1817  1  0.65833600  0.53494800  0.74492000  1
  H  1819  1  0.62508700  0.51802900  0.80756900  1
  H  1820  1  0.63328500  0.53634600  0.83766800  1
  H  1821  1  0.71986900  0.60051000  0.77059500  1
  H  1822  1  0.72712500  0.61993800  0.80053700  1
  H  1827  1  0.73847000  0.62904100  0.83457300  1
  H  1828  1  0.71730700  0.56033300  0.74358600  1
  H  1829  1  0.62472500  0.50212200  0.76081700  1
  H  1830  1  0.63540300  0.56961700  0.86527700  1
  H  1839  1  0.80802100  0.38469900  0.36274200  1
  H  1847  1  0.83969000  0.45663000  0.24502600  1
  H  1849  1  0.87294300  0.47356400  0.30767400  1
  H  1850  1  0.86473700  0.45526300  0.33777700  1
  H  1851  1  0.77811700  0.39111800  0.27071600  1
  H  1852  1  0.77085800  0.37169700  0.30066000  1
  H  1857  1  0.75952200  0.36255200  0.33464100  1
  H  1858  1  0.78067600  0.43127200  0.24371500  1
  H  1859  1  0.87339100  0.48934900  0.26084500  1
  H  1860  1  0.86260900  0.42199000  0.36539300  1
  H  1869  1  0.36143300  0.05780300  0.11366600  1
  H  1877  1  0.28644500  0.08555500  0.99644800  1
  H  1879  1  0.27135100  0.12106100  0.05871630  1
  H  1880  1  0.29041900  0.11380100  0.08869530  1
  H  1881  1  0.35122600  0.02346700  0.02254130  1
  H  1882  1  0.37130600  0.01702900  0.05241030  1
  H  1887  1  0.38464800  0.01505900  0.09866430  1
  H  1888  1  0.31004800  0.02728200  0.99481000  1
  H  1889  1  0.25444600  0.12016500  0.01209830  1
  H  1890  1  0.32385000  0.11217900  0.11600600  1
  H  1899  1  0.13691000  0.93400500  0.61354000  1
  H  1907  1  0.21167500  0.90597100  0.49629200  1
  H  1909  1  0.22677900  0.87049500  0.55856200  1
  H  1910  1  0.20775000  0.87780900  0.58854900  1
  H  1911  1  0.14715700  0.96831300  0.52241300  1
  H  1912  1  0.12716100  0.97485000  0.55229600  1
  H  1917  1  0.11358900  0.97656000  0.59867400  1
  H  1918  1  0.18773000  0.96462500  0.49488200  1
  H  1919  1  0.24367400  0.87132100  0.51199600  1
  H  1920  1  0.17432100  0.87954500  0.61589000  1
  H  1927  1  0.23833500  0.37418200  0.14799000  1
  H  1928  1  0.26578400  0.37957800  0.12012500  1
  H  1935  1  0.22908700  0.43690600  0.17121000  1
  H  1936  1  0.19748600  0.44349900  0.19658700  1
  H  1937  1  0.22098500  0.36889100  0.22081000  1
  H  1938  1  0.32119300  0.42807500  0.15068100  1
  H  1942  1  0.28125900  0.36037600  0.19429100  1
  H  1943  1  0.25540500  0.34213500  0.18239300  1
  H  1944  1  0.26485200  0.34436700  0.22221600  1
  H  1946  1  0.28619800  0.42168200  0.19711400  1
  H  1947  1  0.31910800  0.42251400  0.18722700  1
  H  1948  1  0.30169400  0.46556200  0.19314500  1
  H  1957  1  0.26000100  0.61713400  0.64793300  1
  H  1958  1  0.23261700  0.61168700  0.62003200  1
  H  1965  1  0.26900300  0.55449300  0.67129400  1
  H  1966  1  0.30051000  0.54793500  0.69673700  1
  H  1967  1  0.27711000  0.62270500  0.72076400  1
  H  1968  1  0.17698100  0.56347500  0.65060100  1
  H  1972  1  0.21693600  0.63125200  0.69412200  1
  H  1973  1  0.24288900  0.64937600  0.68224300  1
  H  1974  1  0.23327100  0.64732400  0.72205000  1
  H  1976  1  0.21185800  0.56994300  0.69707600  1
  H  1977  1  0.17897100  0.56917900  0.68714700  1
  H  1978  1  0.19623600  0.52609800  0.69316400  1
  H  1987  1  0.87509900  0.98595200  0.39793500  1
  H  1988  1  0.86964400  0.01388300  0.37030200  1
  H  1995  1  0.81195600  0.97567300  0.42047000  1
  H  1996  1  0.80496400  0.94356600  0.44547500  1
  H  1997  1  0.87890900  0.96693300  0.47070700  1
  H  1998  1  0.81999300  0.06796800  0.40108900  1
  H  2002  1  0.88765800  0.02777100  0.44487800  1
  H  2003  1  0.90633000  0.00229400  0.43291100  1
  H  2004  1  0.90316300  0.01087700  0.47279800  1
  H  2006  1  0.82633500  0.03218500  0.44723200  1
  H  2007  1  0.82506700  0.06526700  0.43765400  1
  H  2008  1  0.78224500  0.04699500  0.44309600  1
  H  2017  1  0.62315000  0.00562900  0.89773500  1
  H  2018  1  0.62873900  0.97787000  0.87003500  1
  H  2025  1  0.68611300  0.01569500  0.92043900  1
  H  2026  1  0.69307400  0.04759100  0.94557900  1
  H  2027  1  0.61901100  0.02415400  0.97060300  1
  H  2028  1  0.67809800  0.92350400  0.90081700  1
  H  2032  1  0.61025200  0.96353000  0.94454700  1
  H  2033  1  0.59166200  0.98911100  0.93262500  1
  H  2034  1  0.59465900  0.98026100  0.97248900  1
  H  2036  1  0.67151600  0.95903300  0.94704100  1
  H  2037  1  0.67279400  0.92600300  0.93737600  1
  H  2038  1  0.71561000  0.94418000  0.94300100  1
  H  2047  1  0.75877400  0.62192300  0.70192100  1
  H  2048  1  0.73110300  0.61627800  0.72965100  1
  H  2055  1  0.76895100  0.55889800  0.67945000  1
  H  2056  1  0.80100900  0.55184100  0.65442100  1
  H  2057  1  0.77755600  0.62571300  0.62910800  1
  H  2058  1  0.67682900  0.56670500  0.69895900  1
  H  2062  1  0.71677700  0.63452600  0.65497900  1
  H  2063  1  0.74226600  0.65321100  0.66692200  1
  H  2064  1  0.73364200  0.64999700  0.62704100  1
  H  2066  1  0.71222500  0.57335800  0.65268900  1
  H  2067  1  0.67921900  0.57195800  0.66238900  1
  H  2068  1  0.69755900  0.52921000  0.65677600  1
  H  2077  1  0.73916400  0.36982700  0.20198100  1
  H  2078  1  0.76677400  0.37549600  0.22975100  1
  H  2085  1  0.72928300  0.43280800  0.17939200  1
  H  2086  1  0.69732500  0.43987600  0.15429800  1
  H  2087  1  0.72061900  0.36583500  0.12915400  1
  H  2088  1  0.82130700  0.42477600  0.19906200  1
  H  2092  1  0.78129400  0.35691700  0.15514500  1
  H  2093  1  0.75568700  0.33836100  0.16706500  1
  H  2094  1  0.76448600  0.34141800  0.12719700  1
  H  2096  1  0.78603100  0.41809200  0.15274400  1
  H  2097  1  0.81901500  0.41940600  0.16248800  1
  H  2098  1  0.80084000  0.46220100  0.15678700  1
  H  2107  1  0.12660700  0.00799800  0.45329500  1
  H  2108  1  0.13163900  0.98082500  0.48134700  1
  H  2115  1  0.18913500  0.01562600  0.43029200  1
  H  2116  1  0.19690600  0.04649600  0.40465000  1
  H  2117  1  0.12245000  0.02377900  0.37983800  1
  H  2118  1  0.17840900  0.92380400  0.45094100  1
  H  2122  1  0.11213700  0.96436600  0.40692800  1
  H  2123  1  0.09417100  0.99082200  0.41837600  1
  H  2124  1  0.09700800  0.98046200  0.37868300  1
  H  2126  1  0.17256200  0.95827900  0.40429900  1
  H  2127  1  0.17274200  0.92549500  0.41440100  1
  H  2128  1  0.21612500  0.94193800  0.40831500  1
  H  2137  1  0.37162400  0.98343300  0.95346400  1
  H  2138  1  0.36672100  0.01047500  0.98158600  1
  H  2145  1  0.30913300  0.97617300  0.93046700  1
  H  2146  1  0.30115800  0.94557100  0.90469700  1
  H  2147  1  0.37564100  0.96818700  0.87988800  1
  H  2148  1  0.32023700  0.06788900  0.95132100  1
  H  2152  1  0.38628200  0.02731000  0.90720500  1
  H  2153  1  0.40416300  0.00069600  0.91853700  1
  H  2154  1  0.40128600  0.01137300  0.87888500  1
  H  2156  1  0.32590200  0.03360600  0.90459700  1
  H  2157  1  0.32588600  0.06634400  0.91477200  1
  H  2158  1  0.28242200  0.05013700  0.90866200  1
  H  2167  1  0.73629100  0.87720600  0.64664400  1
  H  2168  1  0.76332000  0.88210900  0.61851700  1
  H  2175  1  0.72883700  0.93930500  0.67009800  1
  H  2176  1  0.69831700  0.94659600  0.69602100  1
  H  2177  1  0.72174800  0.87191400  0.72018000  1
  H  2178  1  0.82093200  0.92830900  0.64882600  1
  H  2182  1  0.78075600  0.86216700  0.69257200  1
  H  2183  1  0.75417100  0.84429800  0.68119800  1
  H  2184  1  0.76514600  0.84658200  0.72082800  1
  H  2186  1  0.78664300  0.92266100  0.69554700  1
  H  2187  1  0.81937000  0.92246100  0.68535600  1
  H  2188  1  0.80351800  0.96602100  0.69157900  1
  H  2197  1  0.76154300  0.11417900  0.14706000  1
  H  2198  1  0.73458200  0.10923500  0.11890300  1
  H  2205  1  0.76874100  0.05200600  0.17056200  1
  H  2206  1  0.79937100  0.04474800  0.19642700  1
  H  2207  1  0.77632300  0.11964800  0.22044700  1
  H  2208  1  0.67684900  0.06314800  0.14918200  1
  H  2212  1  0.71719700  0.12944900  0.19293300  1
  H  2213  1  0.74382100  0.14717000  0.18148800  1
  H  2214  1  0.73295300  0.14508400  0.22114000  1
  H  2216  1  0.71101300  0.06890800  0.19594600  1
  H  2217  1  0.67831000  0.06910300  0.18571200  1
  H  2218  1  0.69410900  0.02554800  0.19202500  1
  H  2227  1  0.37085800  0.48517100  0.89778200  1
  H  2228  1  0.36550700  0.51283000  0.87000000  1
  H  2235  1  0.30811300  0.47577300  0.92106600  1
  H  2236  1  0.30150200  0.44424500  0.94648000  1
  H  2237  1  0.37610300  0.46777500  0.97068600  1
  H  2238  1  0.31696700  0.56801900  0.90070800  1
  H  2242  1  0.38462500  0.52798700  0.94410500  1
  H  2243  1  0.40289000  0.50212200  0.93223700  1
  H  2244  1  0.40062400  0.51164200  0.97205100  1
  H  2246  1  0.32325900  0.53271700  0.94703000  1
  H  2247  1  0.32243800  0.56568800  0.93724400  1
  H  2248  1  0.27938200  0.54821800  0.94305900  1
  H  2257  1  0.12737800  0.50640900  0.39770100  1
  H  2258  1  0.13279700  0.47884600  0.36988500  1
  H  2265  1  0.19005200  0.51575600  0.42095000  1
  H  2266  1  0.19671500  0.54725000  0.44637900  1
  H  2267  1  0.12216500  0.52369600  0.47064200  1
  H  2268  1  0.18127600  0.42356500  0.40056400  1
  H  2272  1  0.11358200  0.46352000  0.44404200  1
  H  2273  1  0.09530300  0.48939200  0.43219300  1
  H  2274  1  0.09762400  0.47984900  0.47200200  1
  H  2276  1  0.17486800  0.45874500  0.44692900  1
  H  2277  1  0.17572100  0.42579600  0.43710500  1
  H  2278  1  0.21875800  0.44326600  0.44298500  1
  H  2287  1  0.26082800  0.11886600  0.20314600  1
  H  2288  1  0.23361500  0.11395300  0.23117900  1
  H  2295  1  0.26866300  0.05621700  0.18038400  1
  H  2296  1  0.29966600  0.04834100  0.15482900  1
  H  2297  1  0.27693500  0.12261500  0.12975300  1
  H  2298  1  0.17676600  0.06685000  0.20085900  1
  H  2302  1  0.21738200  0.13299300  0.15666900  1
  H  2303  1  0.24374700  0.15105600  0.16814400  1
  H  2304  1  0.23360900  0.14800400  0.12843000  1
  H  2306  1  0.21135100  0.07249300  0.15423900  1
  H  2307  1  0.17853700  0.07230800  0.16429700  1
  H  2308  1  0.19508500  0.02892200  0.15836100  1
  H  2317  1  0.23747900  0.87266400  0.70290700  1
  H  2318  1  0.26464900  0.87761300  0.73096500  1
  H  2325  1  0.22991900  0.93534400  0.68015300  1
  H  2326  1  0.19888300  0.94332000  0.65463000  1
  H  2327  1  0.22125800  0.86893000  0.62956200  1
  H  2328  1  0.32166200  0.92449900  0.70064100  1
  H  2332  1  0.28083900  0.85833600  0.65643000  1
  H  2333  1  0.25440700  0.84039300  0.66792000  1
  H  2334  1  0.26451200  0.84338900  0.62820100  1
  H  2336  1  0.28716200  0.91879900  0.65399100  1
  H  2337  1  0.31995800  0.91895000  0.66407600  1
  H  2338  1  0.30349900  0.96235000  0.65807500  1
  H  2347  1  0.63082600  0.50886500  0.95329600  1
  H  2348  1  0.63580400  0.48185600  0.98143700  1
  H  2355  1  0.69284400  0.51606200  0.92964400  1
  H  2356  1  0.70015500  0.54637000  0.90361100  1
  H  2357  1  0.62530300  0.52305200  0.87965800  1
  H  2358  1  0.68166600  0.42406400  0.95104900  1
  H  2362  1  0.61545500  0.46426800  0.90747600  1
  H  2363  1  0.59770200  0.49098100  0.91879100  1
  H  2364  1  0.59982700  0.47973700  0.87919500  1
  H  2366  1  0.67587300  0.45827700  0.90431400  1
  H  2367  1  0.67565100  0.42557200  0.91454000  1
  H  2368  1  0.71921500  0.44131400  0.90819600  1
  H  2377  1  0.86728800  0.48274000  0.45339000  1
  H  2378  1  0.86227900  0.50969800  0.48154600  1
  H  2385  1  0.80530900  0.47554700  0.42980200  1
  H  2386  1  0.79792800  0.44525900  0.40376500  1
  H  2387  1  0.87270600  0.46859600  0.37972000  1
  H  2388  1  0.81642300  0.56752400  0.45118300  1
  H  2392  1  0.88263000  0.52736200  0.40753400  1
  H  2393  1  0.90041400  0.50065000  0.41883000  1
  H  2394  1  0.89819700  0.51189300  0.37923600  1
  H  2396  1  0.82226500  0.53336500  0.40443000  1
  H  2397  1  0.82246700  0.56606100  0.41466900  1
  H  2398  1  0.77891300  0.55030700  0.40830500  1
  H  2407  1  0.18659600  0.26432900  0.34339300  1
  H  2408  1  0.18101400  0.31252800  0.34356100  1
  H  2415  1  0.23685100  0.22755900  0.36165500  1
  H  2416  1  0.22912400  0.17951500  0.35987100  1
  H  2417  1  0.20901500  0.18650800  0.30215200  1
  H  2418  1  0.26271700  0.32265400  0.32685700  1
  H  2422  1  0.23351300  0.25408100  0.29522700  1
  H  2423  1  0.19838000  0.25419300  0.30054300  1
  H  2424  1  0.22653800  0.21732100  0.27628800  1
  H  2426  1  0.27872400  0.24875200  0.32445400  1
  H  2427  1  0.28331700  0.27875400  0.31100600  1
  H  2428  1  0.31599700  0.27321100  0.33438400  1
  H  2437  1  0.31176600  0.72743300  0.84359400  1
  H  2438  1  0.31734800  0.67922300  0.84375100  1
  H  2445  1  0.26142900  0.76419000  0.86179900  1
  H  2446  1  0.26907300  0.81226000  0.86001300  1
  H  2447  1  0.28934900  0.80527400  0.80232000  1
  H  2448  1  0.23568600  0.66910600  0.82695900  1
  H  2452  1  0.26496700  0.73767900  0.79537500  1
  H  2453  1  0.30008400  0.73757300  0.80073700  1
  H  2454  1  0.27198500  0.77443400  0.77644300  1
  H  2456  1  0.21968300  0.74301200  0.82454500  1
  H  2457  1  0.21512000  0.71301000  0.81109400  1
  H  2458  1  0.18238400  0.71855600  0.83443300  1
  H  2467  1  0.98059700  0.93275400  0.59210700  1
  H  2468  1  0.93238900  0.92715000  0.59188400  1
  H  2475  1  0.01710100  0.98255300  0.61136500  1
  H  2476  1  0.06516300  0.97489900  0.60976700  1
  H  2477  1  0.05890100  0.95637600  0.55174800  1
  H  2478  1  0.92241600  0.00938700  0.57648100  1
  H  2482  1  0.99141300  0.98107400  0.54475500  1
  H  2483  1  0.99122200  0.94579600  0.54958700  1
  H  2484  1  0.02840500  0.97461200  0.52594500  1
  H  2486  1  0.99634300  0.02549100  0.57473500  1
  H  2487  1  0.96647900  0.03051300  0.56121400  1
  H  2488  1  0.97177300  0.06243300  0.58512200  1
  H  2497  1  0.51778600  0.05860600  0.09288130  1
  H  2498  1  0.56599800  0.06414100  0.09278630  1
  H  2505  1  0.48105100  0.00876200  0.11168300  1
  H  2506  1  0.43301600  0.01655800  0.10996500  1
  H  2507  1  0.43970600  0.03568200  0.05207630  1
  H  2508  1  0.57589100  0.98211900  0.07678430  1
  H  2512  1  0.50719000  0.01093400  0.04515130  1
  H  2513  1  0.50741400  0.04614700  0.05020330  1
  H  2514  1  0.47034000  0.01770600  0.02626030  1
  H  2516  1  0.50194800  0.96616500  0.07482130  1
  H  2517  1  0.53183700  0.96129700  0.06129830  1
  H  2518  1  0.52643800  0.92903700  0.08497330  1
  H  2527  1  0.31300700  0.24994600  0.00292231  1
  H  2528  1  0.32326800  0.29724500  0.00053031  1
  H  2535  1  0.25846400  0.21499200  0.98834900  1
  H  2536  1  0.26188800  0.16686800  0.99380500  1
  H  2537  1  0.28625100  0.18118700  0.05003230  1
  H  2538  1  0.24365500  0.31683200  0.01801230  1
  H  2542  1  0.26818600  0.25133600  0.05224130  1
  H  2543  1  0.30284100  0.24736000  0.04617530  1
  H  2544  1  0.27297900  0.21721500  0.07372230  1
  H  2546  1  0.22059000  0.24527600  0.02387230  1
  H  2547  1  0.21972400  0.27660800  0.03617830  1
  H  2548  1  0.18543700  0.27256800  0.01379330  1
  H  2557  1  0.18502900  0.74148300  0.50281300  1
  H  2558  1  0.17487100  0.69415000  0.50043200  1
  H  2565  1  0.23964900  0.77646200  0.48831200  1
  H  2566  1  0.23622800  0.82460700  0.49371400  1
  H  2567  1  0.21157500  0.81041100  0.54989900  1
  H  2568  1  0.25445000  0.67473600  0.51807400  1
  H  2572  1  0.22962100  0.74027700  0.55221500  1
  H  2573  1  0.19499000  0.74420000  0.54606700  1
  H  2574  1  0.22469000  0.77444100  0.57364900  1
  H  2576  1  0.27735200  0.74634800  0.52395600  1
  H  2577  1  0.27823700  0.71501900  0.53626500  1
  H  2578  1  0.31260200  0.71912900  0.51394600  1
  H  2587  1  0.50463200  0.93174100  0.75323500  1
  H  2588  1  0.55215900  0.92242400  0.75098900  1
  H  2595  1  0.46891800  0.98587900  0.73836200  1
  H  2596  1  0.42077700  0.98205400  0.74358300  1
  H  2597  1  0.43473600  0.95781000  0.79988800  1
  H  2598  1  0.57004500  0.00253000  0.76825900  1
  H  2602  1  0.50466900  0.97655400  0.80241800  1
  H  2603  1  0.50116400  0.94184600  0.79635900  1
  H  2604  1  0.47038900  0.97138800  0.82373500  1
  H  2606  1  0.49801700  0.02418000  0.77392600  1
  H  2607  1  0.52929700  0.02577600  0.78625800  1
  H  2608  1  0.52461300  0.05980200  0.76374100  1
  H  2617  1  0.99355500  0.05947600  0.25332100  1
  H  2618  1  0.94605400  0.06890800  0.25108900  1
  H  2625  1  0.02922800  0.00542900  0.23842900  1
  H  2626  1  0.07735700  0.00933700  0.24369200  1
  H  2627  1  0.06327800  0.03342500  0.30000100  1
  H  2628  1  0.92799300  0.98881900  0.26832500  1
  H  2632  1  0.99334900  0.01459800  0.30247800  1
  H  2633  1  0.99686400  0.04931100  0.29643600  1
  H  2634  1  0.02759800  0.01974700  0.32382400  1
  H  2636  1  0.99998200  0.96701500  0.27395500  1
  H  2637  1  0.96871600  0.96547600  0.28631000  1
  H  2638  1  0.97329500  0.93145800  0.26377700  1
  H  2647  1  0.81138100  0.72617600  0.50688000  1
  H  2648  1  0.81652100  0.67793500  0.50694600  1
  H  2655  1  0.76202000  0.76327100  0.48818300  1
  H  2656  1  0.77057300  0.81117400  0.48979700  1
  H  2657  1  0.78946300  0.80444500  0.54773000  1
  H  2658  1  0.73456500  0.66869800  0.52328900  1
  H  2662  1  0.76369100  0.73736500  0.55477000  1
  H  2663  1  0.79890800  0.73663200  0.54975300  1
  H  2664  1  0.77092700  0.77419800  0.57359100  1
  H  2666  1  0.71921100  0.74277300  0.52526700  1
  H  2667  1  0.71419100  0.71294400  0.53882900  1
  H  2668  1  0.68181500  0.71856900  0.51525700  1
  H  2677  1  0.68642100  0.26543100  0.00659331  1
  H  2678  1  0.68138300  0.31369000  0.00668831  1
  H  2685  1  0.73571000  0.22822700  0.98796000  1
  H  2686  1  0.72709100  0.18032500  0.98957900  1
  H  2687  1  0.70815800  0.18710600  0.04750530  1
  H  2688  1  0.76330600  0.32273400  0.02315430  1
  H  2692  1  0.73403100  0.25412400  0.05454930  1
  H  2693  1  0.69882700  0.25497100  0.04950930  1
  H  2694  1  0.72665000  0.21731900  0.07336630  1
  H  2696  1  0.77850600  0.24862000  0.02510230  1
  H  2697  1  0.78354300  0.27842000  0.03869230  1
  H  2698  1  0.81598300  0.27276100  0.01516730  1
  H  2707  1  0.68485400  0.73998200  0.84610300  1
  H  2708  1  0.67558800  0.69244000  0.84831100  1
  H  2715  1  0.73869200  0.77553700  0.86147900  1
  H  2716  1  0.73469400  0.82370200  0.85649700  1
  H  2717  1  0.71131200  0.81027100  0.79995600  1
  H  2718  1  0.75593700  0.67467700  0.83153400  1
  H  2722  1  0.73041200  0.74042200  0.79719300  1
  H  2723  1  0.69560500  0.74376200  0.80302200  1
  H  2724  1  0.72545200  0.77491300  0.77601300  1
  H  2726  1  0.77753000  0.74673900  0.82595900  1
  H  2727  1  0.77936400  0.71544300  0.81366500  1
  H  2728  1  0.81305600  0.72023300  0.83641300  1
  H  2737  1  0.81319700  0.25168800  0.34626600  1
  H  2738  1  0.82245100  0.29923400  0.34841900  1
  H  2745  1  0.75953000  0.21608200  0.36172500  1
  H  2746  1  0.76364800  0.16792300  0.35674500  1
  H  2747  1  0.78679800  0.18138000  0.30017100  1
  H  2748  1  0.74206000  0.31693200  0.33168500  1
  H  2752  1  0.76754100  0.25119100  0.29740500  1
  H  2753  1  0.80236200  0.24791000  0.30320200  1
  H  2754  1  0.77251700  0.21669600  0.27622800  1
  H  2756  1  0.72050200  0.24483900  0.32621100  1
  H  2757  1  0.71863600  0.27609700  0.31387100  1
  H  2758  1  0.68497400  0.27136100  0.33664700  1
  H  2767  1  0.48040500  0.43271500  0.09305030  1
  H  2768  1  0.43222200  0.42706000  0.09308630  1
  H  2775  1  0.51704800  0.48224500  0.11187700  1
  H  2776  1  0.56498100  0.47395100  0.11015700  1
  H  2777  1  0.55817300  0.45551500  0.05215830  1
  H  2778  1  0.42201400  0.50904400  0.07709730  1
  H  2782  1  0.49091200  0.48098200  0.04533130  1
  H  2783  1  0.49043700  0.44571800  0.05019530  1
  H  2784  1  0.52773400  0.47416700  0.02642130  1
  H  2786  1  0.49591900  0.52520800  0.07499130  1
  H  2787  1  0.46597300  0.53000000  0.06151530  1
  H  2788  1  0.47135700  0.56226900  0.08518330  1
  H  2797  1  0.01779400  0.55886200  0.59288800  1
  H  2798  1  0.06598600  0.56451200  0.59287900  1
  H  2805  1  0.98119800  0.50932500  0.61178400  1
  H  2806  1  0.93325300  0.51762900  0.61010700  1
  H  2807  1  0.93995500  0.53603400  0.55209500  1
  H  2808  1  0.07616200  0.48250200  0.57695900  1
  H  2812  1  0.00718700  0.51052700  0.54521700  1
  H  2813  1  0.00771300  0.54579700  0.55006300  1
  H  2814  1  0.97033200  0.51736800  0.52634100  1
  H  2816  1  0.00224800  0.46634400  0.57490700  1
  H  2817  1  0.03218500  0.46151900  0.56142400  1
  H  2818  1  0.02680400  0.42928900  0.58511900  1
  H  2827  1  0.00322300  0.43142500  0.25344700  1
  H  2828  1  0.05055300  0.42117700  0.25122100  1
  H  2835  1  0.96858400  0.48553800  0.23815800  1
  H  2836  1  0.92041300  0.48196800  0.24322600  1
  H  2837  1  0.93383000  0.45888000  0.29982500  1
  H  2838  1  0.06999600  0.50110300  0.26808200  1
  H  2842  1  0.00386400  0.47735200  0.30243300  1
  H  2843  1  0.00015000  0.44255500  0.29668900  1
  H  2844  1  0.96939500  0.47284700  0.32368000  1
  H  2846  1  0.99838700  0.52418900  0.27364700  1
  H  2847  1  0.02969500  0.52533600  0.28597100  1
  H  2848  1  0.02565200  0.55918400  0.26326600  1
  H  2857  1  0.49488100  0.56000100  0.75336000  1
  H  2858  1  0.44756800  0.57033800  0.75120600  1
  H  2865  1  0.52949100  0.50599700  0.73799500  1
  H  2866  1  0.57766000  0.50960800  0.74308200  1
  H  2867  1  0.56420300  0.53248000  0.79970500  1
  H  2868  1  0.42803400  0.49040600  0.76800900  1
  H  2872  1  0.49417000  0.51397300  0.80228700  1
  H  2873  1  0.49789500  0.54878100  0.79657600  1
  H  2874  1  0.52863100  0.51843200  0.82354600  1
  H  2876  1  0.49962500  0.46719800  0.77344200  1
  H  2877  1  0.46836200  0.46607900  0.78582200  1
  H  2878  1  0.47226600  0.43226400  0.76308100  1
  C  1  1  0.18102300  0.41800800  0.87843600  1
  C  2  1  0.17281500  0.43420400  0.89424600  1
  C  3  1  0.18484500  0.42971700  0.91233900  1
  C  4  1  0.20419800  0.40878500  0.91471000  1
  C  5  1  0.21222500  0.39235000  0.89933000  1
  C  6  1  0.20108800  0.39727000  0.88099400  1
  C  7  1  0.15237100  0.45411100  0.89147500  1
  C  8  1  0.20913500  0.38174000  0.86505600  1
  C  10  1  0.16882500  0.42221400  0.86019800  1
  C  11  1  0.14796800  0.44221700  0.85780200  1
  C  12  1  0.13545600  0.44579100  0.83973700  1
  C  13  1  0.14455700  0.43022700  0.82417100  1
  C  14  1  0.16543900  0.41076000  0.82621400  1
  C  15  1  0.17736200  0.40626400  0.84434400  1
  C  16  1  0.14005700  0.45781000  0.87375800  1
  C  18  1  0.19782900  0.38637200  0.84713900  1
  C  23  1  0.22814000  0.36983700  0.90324400  1
  C  24  1  0.17513500  0.39832700  0.80999900  1
  C  25  1  0.11332600  0.46278000  0.83692300  1
  C  26  1  0.17865600  0.44538000  0.92798200  1
  C  31  1  0.31725800  0.57370300  0.37854000  1
  C  32  1  0.32549900  0.55751100  0.39434300  1
  C  33  1  0.31352900  0.56202000  0.41245200  1
  C  34  1  0.29421300  0.58298100  0.41484700  1
  C  35  1  0.28614700  0.59940700  0.39947100  1
  C  36  1  0.29721900  0.59446200  0.38112100  1
  C  37  1  0.34591700  0.53758300  0.39154800  1
  C  38  1  0.28913500  0.60998500  0.36518800  1
  C  40  1  0.32938700  0.56946600  0.36028400  1
  C  41  1  0.35022300  0.54944500  0.35786300  1
  C  42  1  0.36266600  0.54584000  0.33977700  1
  C  43  1  0.35350400  0.56137200  0.32421400  1
  C  44  1  0.33263700  0.58084900  0.32628400  1
  C  45  1  0.32079800  0.58539600  0.34443400  1
  C  46  1  0.35817900  0.53386600  0.37381400  1
  C  48  1  0.30035900  0.60530900  0.34725300  1
  C  53  1  0.27024200  0.62192300  0.40339900  1
  C  54  1  0.32283800  0.59322700  0.31008000  1
  C  55  1  0.38474700  0.52880400  0.33692700  1
  C  56  1  0.31970800  0.54631700  0.42807900  1
  C  61  1  0.82713100  0.92807900  0.12729600  1
  C  62  1  0.81011400  0.92052100  0.14283900  1
  C  63  1  0.81414700  0.93281100  0.16089700  1
  C  64  1  0.83531100  0.95186000  0.16349300  1
  C  65  1  0.85243500  0.95934500  0.14835600  1
  C  66  1  0.84805100  0.94790100  0.13005000  1
  C  67  1  0.78977300  0.90057500  0.13980900  1
  C  68  1  0.86427000  0.95546300  0.11433200  1
  C  70  1  0.82355900  0.91546900  0.10913400  1
  C  71  1  0.80343200  0.89476900  0.10657100  1
  C  72  1  0.80055100  0.88174400  0.08861100  1
  C  73  1  0.81667600  0.89055300  0.07323400  1
  C  74  1  0.83619500  0.91134900  0.07541200  1
  C  75  1  0.84019400  0.92352700  0.09350500  1
  C  76  1  0.78663300  0.88790400  0.12215400  1
  C  78  1  0.86017200  0.94386600  0.09644900  1
  C  83  1  0.87511700  0.97487100  0.15253900  1
  C  84  1  0.84907600  0.92083500  0.05931100  1
  C  85  1  0.78400600  0.85934100  0.08538200  1
  C  86  1  0.79816600  0.92680500  0.17640600  1
  C  91  1  0.67079700  0.06358000  0.62737800  1
  C  92  1  0.68780400  0.07132700  0.64288100  1
  C  93  1  0.68385100  0.05916100  0.66099000  1
  C  94  1  0.66278800  0.04001500  0.66365800  1
  C  95  1  0.64570000  0.03230300  0.64855100  1
  C  96  1  0.64997700  0.04367600  0.63021300  1
  C  97  1  0.70804300  0.09134800  0.63976700  1
  C  98  1  0.63373600  0.03596800  0.61454000  1
  C  100  1  0.67429400  0.07607200  0.60916800  1
  C  101  1  0.69433700  0.09682500  0.60651100  1
  C  102  1  0.69716400  0.10970900  0.58849600  1
  C  103  1  0.68105100  0.10071500  0.57316400  1
  C  104  1  0.66160000  0.07987700  0.57544000  1
  C  105  1  0.65766700  0.06783300  0.59358100  1
  C  106  1  0.71113100  0.10387600  0.62205700  1
  C  108  1  0.63774400  0.04747200  0.59661700  1
  C  113  1  0.62315400  0.01660900  0.65280600  1
  C  114  1  0.64880900  0.07011900  0.55938700  1
  C  115  1  0.71357800  0.13218400  0.58517700  1
  C  116  1  0.69991100  0.06528200  0.67644700  1
  C  121  1  0.32255800  0.41535300  0.61010200  1
  C  122  1  0.33855300  0.42399300  0.59429600  1
  C  123  1  0.33411300  0.41218400  0.57612700  1
  C  124  1  0.31464600  0.39132300  0.57398300  1
  C  125  1  0.29905100  0.38210600  0.58950200  1
  C  126  1  0.30257400  0.39450000  0.60761400  1
  C  127  1  0.35842700  0.44445200  0.59717800  1
  C  128  1  0.28695400  0.38647500  0.62353100  1
  C  130  1  0.32669100  0.42745700  0.62837900  1
  C  131  1  0.34740500  0.44752500  0.63102100  1
  C  132  1  0.35224700  0.45859700  0.64938200  1
  C  133  1  0.33577300  0.45046800  0.66471800  1
  C  134  1  0.31486600  0.43110300  0.66227300  1
  C  135  1  0.31045200  0.41915700  0.64414200  1
  C  136  1  0.36298200  0.45567400  0.61512900  1
  C  138  1  0.29058800  0.39869600  0.64128600  1
  C  143  1  0.28195400  0.36009000  0.58655700  1
  C  144  1  0.29912200  0.42483900  0.67787100  1
  C  145  1  0.37481500  0.47437700  0.65338500  1
  C  146  1  0.34655700  0.42205100  0.55997000  1
  C  151  1  0.17571400  0.57607500  0.11003100  1
  C  152  1  0.15970700  0.56745700  0.09422600  1
  C  153  1  0.16413300  0.57929000  0.07606200  1
  C  154  1  0.18360300  0.60014900  0.07392600  1
  C  155  1  0.19920400  0.60935200  0.08944600  1
  C  156  1  0.19570000  0.59692700  0.10755000  1
  C  157  1  0.13983400  0.54699400  0.09710000  1
  C  158  1  0.21133400  0.60492800  0.12346600  1
  C  160  1  0.17158400  0.56395400  0.12830300  1
  C  161  1  0.15085100  0.54390800  0.13094100  1
  C  162  1  0.14600000  0.53284700  0.14930400  1
  C  163  1  0.16248100  0.54094300  0.16464200  1
  C  164  1  0.18342400  0.56027200  0.16219400  1
  C  165  1  0.18783900  0.57222700  0.14406700  1
  C  166  1  0.13527100  0.53576900  0.11504900  1
  C  168  1  0.20772100  0.59267400  0.14121300  1
  C  173  1  0.21627000  0.63139600  0.08651600  1
  C  174  1  0.19917200  0.56652200  0.17779200  1
  C  175  1  0.12338300  0.51713200  0.15330900  1
  C  176  1  0.15169600  0.56943200  0.05990100  1
  C  181  1  0.66960500  0.92474900  0.36047100  1
  C  182  1  0.67906400  0.90966200  0.34446600  1
  C  183  1  0.66744700  0.91439500  0.32627000  1
  C  184  1  0.64623600  0.93350800  0.32423400  1
  C  185  1  0.63650500  0.94849400  0.33988700  1
  C  186  1  0.64850400  0.94449700  0.35807600  1
  C  187  1  0.70020400  0.89046800  0.34718900  1
  C  188  1  0.63979800  0.95937900  0.37416000  1
  C  190  1  0.68100400  0.91980800  0.37887200  1
  C  191  1  0.70113700  0.89912600  0.38144700  1
  C  192  1  0.71093300  0.89285200  0.39999500  1
  C  193  1  0.70219300  0.90883600  0.41545100  1
  C  194  1  0.68312500  0.93000900  0.41305100  1
  C  195  1  0.67189700  0.93520700  0.39481900  1
  C  196  1  0.71083700  0.88523300  0.36522500  1
  C  198  1  0.65145800  0.95511200  0.39202600  1
  C  203  1  0.61409600  0.96509900  0.33705000  1
  C  204  1  0.67639700  0.94516600  0.42882400  1
  C  205  1  0.72598200  0.86969000  0.40429200  1
  C  206  1  0.67708100  0.90184500  0.31008700  1
  C  211  1  0.82871900  0.06689600  0.86066500  1
  C  212  1  0.81922300  0.08197100  0.84466500  1
  C  213  1  0.83076900  0.07719200  0.82645200  1
  C  214  1  0.85192500  0.05802600  0.82439000  1
  C  215  1  0.86168400  0.04304000  0.84003500  1
  C  216  1  0.84978300  0.04711400  0.85824800  1
  C  217  1  0.79811700  0.10119700  0.84740600  1
  C  218  1  0.85853600  0.03225900  0.87433000  1
  C  220  1  0.81737200  0.07186800  0.87907800  1
  C  221  1  0.79723900  0.09254700  0.88166400  1
  C  222  1  0.78743500  0.09880100  0.90021300  1
  C  223  1  0.79623700  0.08284800  0.91567000  1
  C  224  1  0.81532000  0.06169200  0.91326200  1
  C  225  1  0.82651200  0.05648000  0.89502000  1
  C  226  1  0.78751300  0.10643700  0.86544900  1
  C  228  1  0.84695100  0.03658000  0.89221500  1
  C  233  1  0.88402400  0.02635300  0.83714900  1
  C  234  1  0.82203500  0.04649900  0.92902400  1
  C  235  1  0.77239300  0.12195900  0.90453300  1
  C  236  1  0.82104500  0.08967400  0.81027000  1
  C  241  1  0.81609900  0.57360100  0.12081900  1
  C  242  1  0.82367900  0.55657500  0.10528700  1
  C  243  1  0.81131800  0.56051200  0.08724500  1
  C  244  1  0.79212800  0.58154800  0.08465900  1
  C  245  1  0.78458700  0.59866100  0.09979200  1
  C  246  1  0.79615900  0.59441700  0.11807600  1
  C  247  1  0.84371700  0.53632200  0.10830700  1
  C  248  1  0.78865000  0.61070100  0.13377300  1
  C  250  1  0.82880400  0.57014300  0.13895900  1
  C  251  1  0.84956300  0.55007500  0.14152000  1
  C  252  1  0.86263600  0.54725800  0.15946900  1
  C  253  1  0.85388800  0.56346700  0.17482000  1
  C  254  1  0.83307000  0.58296000  0.17264300  1
  C  255  1  0.82078400  0.58683000  0.15457000  1
  C  256  1  0.85643700  0.53325500  0.12595100  1
  C  258  1  0.80038800  0.60674900  0.15162800  1
  C  263  1  0.76882600  0.62118900  0.09560900  1
  C  264  1  0.82363500  0.59589200  0.18874000  1
  C  265  1  0.88508600  0.53077900  0.16270000  1
  C  266  1  0.81740500  0.54459100  0.07172400  1
  C  271  1  0.68197000  0.41794100  0.62073700  1
  C  272  1  0.67436300  0.43497100  0.60521300  1
  C  273  1  0.68667500  0.43102100  0.58715600  1
  C  274  1  0.70582600  0.40995700  0.58454500  1
  C  275  1  0.71340500  0.39285000  0.59967200  1
  C  276  1  0.70188500  0.39710700  0.61797000  1
  C  277  1  0.65435000  0.45524000  0.60825700  1
  C  278  1  0.70941900  0.38081900  0.63366000  1
  C  280  1  0.66931300  0.42141500  0.63889200  1
  C  281  1  0.64857100  0.44149100  0.64147700  1
  C  282  1  0.63554300  0.44431400  0.65944100  1
  C  283  1  0.64434000  0.42812800  0.67479000  1
  C  284  1  0.66515400  0.40863600  0.67258600  1
  C  285  1  0.67737500  0.40473400  0.65449700  1
  C  286  1  0.64167300  0.45831700  0.62591400  1
  C  288  1  0.69774900  0.38480000  0.65153300  1
  C  293  1  0.72914100  0.37031000  0.59547200  1
  C  294  1  0.67468500  0.39574900  0.68867100  1
  C  295  1  0.61312800  0.46083000  0.66270100  1
  C  296  1  0.68058400  0.44696900  0.57164800  1
  C  301  1  0.17282100  0.06311600  0.87018800  1
  C  302  1  0.18889100  0.07164500  0.85441200  1
  C  303  1  0.18405800  0.06012900  0.83622100  1
  C  304  1  0.16274500  0.04125000  0.83368500  1
  C  305  1  0.14623400  0.03296600  0.84898900  1
  C  306  1  0.15203400  0.04311300  0.86751600  1
  C  307  1  0.20918600  0.09165600  0.85735700  1
  C  308  1  0.13756100  0.03388200  0.88362300  1
  C  310  1  0.17721300  0.07496500  0.88851400  1
  C  311  1  0.19703600  0.09598200  0.89098100  1
  C  312  1  0.20042000  0.10853500  0.90906400  1
  C  313  1  0.18499100  0.09907300  0.92459800  1
  C  314  1  0.16587200  0.07789100  0.92251600  1
  C  315  1  0.16156400  0.06596000  0.90437800  1
  C  316  1  0.21300700  0.10367500  0.87516500  1
  C  318  1  0.14232100  0.04488000  0.90161300  1
  C  323  1  0.12303300  0.01807700  0.84450400  1
  C  324  1  0.15297500  0.06849300  0.93862900  1
  C  325  1  0.21650800  0.13128500  0.91225000  1
  C  326  1  0.19934700  0.06672500  0.82050100  1
  C  331  1  0.32521400  0.92849700  0.37012600  1
  C  332  1  0.30919300  0.91981400  0.35436700  1
  C  333  1  0.31405300  0.93117900  0.33613300  1
  C  334  1  0.33534800  0.95006700  0.33354800  1
  C  335  1  0.35179900  0.95853400  0.34883700  1
  C  336  1  0.34597700  0.94851000  0.36739600  1
  C  337  1  0.28893100  0.89978600  0.35737200  1
  C  338  1  0.36040600  0.95789000  0.38347900  1
  C  340  1  0.32080400  0.91678800  0.38849300  1
  C  341  1  0.30101500  0.89575800  0.39102400  1
  C  342  1  0.29761400  0.88334000  0.40915100  1
  C  343  1  0.31301100  0.89294000  0.42465900  1
  C  344  1  0.33209700  0.91413900  0.42251100  1
  C  345  1  0.33641100  0.92594100  0.40433600  1
  C  346  1  0.28508200  0.88791800  0.37522500  1
  C  348  1  0.35564200  0.94701400  0.40150400  1
  C  353  1  0.37503300  0.97334600  0.34430600  1
  C  354  1  0.34496800  0.92369600  0.43858400  1
  C  355  1  0.28166800  0.86050200  0.41238900  1
  C  356  1  0.29876100  0.92446400  0.32043600  1
  C  361  1  0.67834500  0.57489300  0.38737100  1
  C  362  1  0.66328800  0.56539500  0.40337900  1
  C  363  1  0.66794200  0.57708300  0.42156100  1
  C  364  1  0.68698100  0.59835800  0.42359400  1
  C  365  1  0.70194000  0.60812300  0.40793900  1
  C  366  1  0.69798900  0.59609400  0.38975200  1
  C  367  1  0.64419600  0.54415700  0.40067600  1
  C  368  1  0.71281800  0.60485400  0.37365900  1
  C  370  1  0.67347700  0.56342000  0.36898400  1
  C  371  1  0.65292800  0.54314000  0.36643100  1
  C  372  1  0.64675100  0.53321400  0.34790200  1
  C  373  1  0.66264600  0.54206600  0.33243100  1
  C  374  1  0.68365700  0.56131700  0.33480600  1
  C  375  1  0.68880500  0.57260200  0.35302700  1
  C  376  1  0.63906500  0.53341800  0.38265700  1
  C  378  1  0.70858300  0.59317000  0.35579800  1
  C  383  1  0.71851800  0.63055500  0.41078800  1
  C  384  1  0.69867000  0.56819500  0.31900100  1
  C  385  1  0.62363400  0.51809800  0.34359300  1
  C  386  1  0.65540800  0.56740600  0.43773200  1
  C  391  1  0.81965100  0.41673400  0.88748700  1
  C  392  1  0.83471600  0.42622600  0.90349400  1
  C  393  1  0.83006800  0.41453800  0.92167600  1
  C  394  1  0.81102100  0.39327300  0.92371200  1
  C  395  1  0.79605300  0.38351000  0.90805900  1
  C  396  1  0.79999800  0.39554000  0.88987200  1
  C  397  1  0.85380600  0.44746400  0.90078800  1
  C  398  1  0.78516500  0.38678300  0.87378100  1
  C  400  1  0.82452300  0.42819900  0.86909900  1
  C  401  1  0.84508600  0.44846300  0.86654100  1
  C  402  1  0.85128300  0.45835200  0.84800600  1
  C  403  1  0.83538900  0.44950200  0.83253500  1
  C  404  1  0.81434400  0.43029000  0.83491900  1
  C  405  1  0.80918700  0.41901900  0.85314400  1
  C  406  1  0.85894500  0.45819300  0.88276600  1
  C  408  1  0.78939000  0.39847400  0.85591900  1
  C  413  1  0.77946200  0.36109100  0.91091700  1
  C  414  1  0.79931800  0.42342000  0.81911900  1
  C  415  1  0.87441000  0.47345800  0.84370100  1
  C  416  1  0.84260600  0.42421700  0.93784600  1
  C  421  1  0.32801400  0.06761900  0.63868800  1
  C  422  1  0.31904700  0.08331700  0.65454100  1
  C  423  1  0.33115200  0.07919100  0.67264500  1
  C  424  1  0.35244200  0.06019000  0.67470400  1
  C  425  1  0.36185900  0.04471200  0.65918000  1
  C  426  1  0.34915800  0.04792600  0.64113400  1
  C  427  1  0.29783800  0.10242500  0.65179900  1
  C  428  1  0.35681600  0.03190500  0.62533400  1
  C  430  1  0.31599100  0.07183100  0.62039700  1
  C  431  1  0.29584900  0.09249100  0.61774100  1
  C  432  1  0.28553600  0.09814400  0.59923400  1
  C  433  1  0.29379300  0.08158200  0.58395000  1
  C  434  1  0.31279700  0.06038000  0.58647700  1
  C  435  1  0.32448800  0.05571900  0.60463400  1
  C  436  1  0.28666100  0.10700500  0.63384300  1
  C  438  1  0.34463200  0.03554900  0.60756100  1
  C  443  1  0.38468000  0.02871500  0.66234400  1
  C  444  1  0.31941000  0.04511300  0.57075300  1
  C  445  1  0.27057100  0.12129200  0.59473400  1
  C  446  1  0.32179400  0.09211800  0.68875800  1
  C  451  1  0.17028300  0.92410900  0.13855500  1
  C  452  1  0.17920700  0.90838200  0.15440500  1
  C  453  1  0.16712000  0.91253500  0.17250900  1
  C  454  1  0.14589600  0.93160800  0.17457800  1
  C  455  1  0.13653000  0.94713800  0.15906300  1
  C  456  1  0.14920600  0.94387200  0.14101000  1
  C  457  1  0.20034800  0.88919800  0.15165500  1
  C  458  1  0.14159000  0.95991700  0.12521200  1
  C  460  1  0.18227500  0.91985500  0.12025900  1
  C  461  1  0.20235200  0.89913600  0.11759800  1
  C  462  1  0.21265500  0.89345300  0.09909200  1
  C  463  1  0.20437700  0.90999400  0.08380000  1
  C  464  1  0.18543200  0.93125000  0.08632700  1
  C  465  1  0.17380200  0.93597700  0.10449500  1
  C  466  1  0.21151200  0.88459900  0.13369500  1
  C  468  1  0.15372000  0.95620700  0.10743000  1
  C  473  1  0.11369400  0.96313100  0.16221400  1
  C  474  1  0.17881400  0.94652300  0.07060400  1
  C  475  1  0.22748200  0.87022600  0.09457300  1
  C  476  1  0.17646200  0.89959500  0.18862000  1
  C  481  1  0.29589800  0.40420400  0.70730700  1
  C  482  1  0.30421000  0.41591300  0.72460900  1
  C  483  1  0.28837500  0.41302000  0.74126700  1
  C  484  1  0.26384600  0.39752200  0.74031400  1
  C  485  1  0.25634900  0.38462700  0.72315200  1
  C  486  1  0.27235400  0.38777100  0.70679100  1
  C  489  1  0.24404700  0.39857800  0.75493500  1
  C  490  1  0.22725300  0.42197400  0.75541600  1
  C  491  1  0.20863000  0.42586600  0.77023300  1
  C  492  1  0.20593400  0.40612000  0.78454700  1
  C  493  1  0.22244200  0.38253200  0.78401300  1
  C  494  1  0.24184000  0.37839400  0.76937900  1
  C  499  1  0.29775000  0.42762200  0.75863400  1
  C  500  1  0.25995600  0.35388900  0.76927600  1
  C  511  1  0.20240200  0.58719300  0.20721900  1
  C  512  1  0.19398600  0.57560400  0.22453800  1
  C  513  1  0.20978800  0.57850200  0.24121200  1
  C  514  1  0.23435300  0.59393800  0.24025900  1
  C  515  1  0.24196000  0.60673300  0.22308700  1
  C  516  1  0.22601800  0.60352800  0.20670200  1
  C  519  1  0.25410100  0.59289500  0.25491800  1
  C  520  1  0.27084200  0.56946400  0.25547300  1
  C  521  1  0.28938500  0.56557800  0.27033800  1
  C  522  1  0.29208900  0.58538300  0.28461100  1
  C  523  1  0.27562200  0.60899500  0.28401000  1
  C  524  1  0.25630200  0.61313200  0.26932600  1
  C  529  1  0.20032100  0.56399500  0.25859200  1
  C  530  1  0.23825300  0.63768500  0.26913800  1
  C  541  1  0.84457100  0.04344600  0.95765500  1
  C  542  1  0.83247900  0.05122500  0.97495300  1
  C  543  1  0.83539300  0.03510300  0.99147600  1
  C  544  1  0.85120000  0.01078300  0.99036000  1
  C  545  1  0.86446800  0.00384000  0.97322500  1
  C  546  1  0.86129700  0.02012400  0.95700200  1
  C  549  1  0.85001800  0.99060200  0.00472300  1
  C  550  1  0.82672000  0.97365600  0.00478100  1
  C  551  1  0.82257900  0.95475800  0.01939200  1
  C  552  1  0.84204200  0.95184600  0.03387400  1
  C  553  1  0.86551700  0.96852500  0.03377000  1
  C  554  1  0.86988800  0.98821800  0.01936200  1
  C  559  1  0.82037000  0.04388000  0.00882200  1
  C  560  1  0.89426800  0.00649300  0.01971200  1
  C  571  1  0.65367100  0.94817800  0.45738400  1
  C  572  1  0.66563700  0.94026500  0.47469400  1
  C  573  1  0.66264600  0.95629800  0.49124900  1
  C  574  1  0.64685900  0.98063300  0.49017000  1
  C  575  1  0.63371900  0.98770000  0.47300700  1
  C  576  1  0.63695300  0.97150200  0.45674700  1
  C  579  1  0.64799000  0.00075300  0.50457400  1
  C  580  1  0.67131200  0.01766500  0.50472700  1
  C  581  1  0.67543300  0.03644600  0.51941400  1
  C  582  1  0.65595000  0.03925000  0.53389300  1
  C  583  1  0.63242100  0.02264400  0.53367000  1
  C  584  1  0.62807500  0.00305700  0.51918900  1
  C  589  1  0.67754200  0.94739900  0.50861800  1
  C  590  1  0.60367000  0.98481300  0.51943400  1
  C  601  1  0.70145500  0.59124600  0.29057600  1
  C  602  1  0.69353400  0.57924100  0.27328200  1
  C  603  1  0.70951900  0.58226300  0.25670500  1
  C  604  1  0.73381100  0.59812100  0.25775200  1
  C  605  1  0.74087600  0.61130200  0.27489800  1
  C  606  1  0.72471700  0.60805400  0.29117700  1
  C  609  1  0.75395900  0.59690700  0.24337200  1
  C  610  1  0.77090900  0.57360900  0.24332800  1
  C  611  1  0.78980700  0.56945200  0.22872200  1
  C  612  1  0.79263600  0.58885000  0.21419300  1
  C  613  1  0.77601000  0.61236400  0.21430300  1
  C  614  1  0.75632700  0.61675300  0.22871600  1
  C  619  1  0.70064200  0.56730200  0.23935900  1
  C  620  1  0.73805400  0.64113300  0.22836000  1
  C  631  1  0.79653600  0.40038900  0.79067800  1
  C  632  1  0.80457300  0.41227800  0.77337000  1
  C  633  1  0.78862100  0.40927000  0.75677700  1
  C  634  1  0.76428400  0.39348500  0.75781800  1
  C  635  1  0.75709900  0.38039500  0.77497300  1
  C  636  1  0.77319100  0.38369000  0.79127700  1
  C  639  1  0.74418600  0.39471800  0.74340000  1
  C  640  1  0.72730900  0.41806500  0.74329200  1
  C  641  1  0.70849200  0.42224700  0.72863600  1
  C  642  1  0.70563900  0.40279800  0.71414200  1
  C  643  1  0.72220600  0.37924300  0.71431200  1
  C  644  1  0.74180700  0.37482700  0.72877400  1
  C  649  1  0.79760000  0.42414600  0.73942100  1
  C  650  1  0.75999700  0.35038200  0.72849400  1
  C  661  1  0.15519000  0.94985700  0.04243500  1
  C  662  1  0.16658500  0.94102500  0.02515400  1
  C  663  1  0.16393700  0.95668700  0.00840200  1
  C  664  1  0.14909200  0.98162200  0.00927800  1
  C  665  1  0.13650900  0.98967300  0.02643000  1
  C  666  1  0.13942700  0.97383900  0.04289400  1
  C  669  1  0.15072000  0.00121300  0.99455600  1
  C  670  1  0.17443700  0.01755600  0.99415800  1
  C  671  1  0.17905000  0.03570400  0.97915800  1
  C  672  1  0.15969700  0.03842500  0.96458700  1
  C  673  1  0.13581600  0.02233100  0.96502800  1
  C  674  1  0.13093800  0.00341000  0.97984800  1
  C  679  1  0.17829700  0.94678000  0.99107700  1
  C  680  1  0.10608800  0.98577100  0.97988900  1
  C  691  1  0.34335000  0.04164200  0.54274200  1
  C  692  1  0.33198700  0.05061800  0.52548700  1
  C  693  1  0.33454900  0.03501900  0.50870200  1
  C  694  1  0.34930000  0.01002400  0.50950500  1
  C  695  1  0.36183900  0.00182700  0.52664400  1
  C  696  1  0.35902000  0.01760000  0.54314500  1
  C  699  1  0.34758600  0.99050000  0.49474600  1
  C  700  1  0.32380100  0.97425900  0.49431100  1
  C  701  1  0.31907000  0.95626800  0.47923900  1
  C  702  1  0.33835100  0.95362100  0.46461700  1
  C  703  1  0.36232600  0.96957200  0.46511400  1
  C  704  1  0.36731800  0.98835100  0.48000100  1
  C  709  1  0.32023100  0.04507500  0.49140200  1
  C  710  1  0.39224000  0.00589100  0.48008100  1
  C  721  1  0.79450500  0.90550700  0.20557400  1
  C  722  1  0.80354800  0.91672500  0.22285300  1
  C  723  1  0.78796300  0.91415500  0.23964600  1
  C  724  1  0.76294100  0.89945200  0.23884400  1
  C  725  1  0.75464800  0.88706300  0.22167800  1
  C  726  1  0.77040000  0.88991100  0.20517000  1
  C  729  1  0.74358200  0.90084400  0.25372300  1
  C  730  1  0.72716800  0.92449300  0.25440600  1
  C  731  1  0.70920500  0.92881100  0.26955600  1
  C  732  1  0.70683500  0.90927800  0.28404000  1
  C  733  1  0.72296600  0.88543600  0.28329900  1
  C  734  1  0.74168500  0.88084500  0.26831100  1
  C  739  1  0.79814400  0.92829700  0.25698100  1
  C  740  1  0.75938700  0.85604300  0.26796000  1
  C  751  1  0.70336100  0.08584900  0.70593000  1
  C  752  1  0.69423100  0.07473600  0.72322200  1
  C  753  1  0.70978000  0.07731700  0.74003200  1
  C  754  1  0.73481600  0.09199100  0.73924100  1
  C  755  1  0.74317900  0.10433600  0.72207800  1
  C  756  1  0.72749000  0.10142100  0.70554900  1
  C  759  1  0.75416500  0.09056200  0.75412700  1
  C  760  1  0.77049700  0.06685600  0.75483400  1
  C  761  1  0.78850500  0.06254800  0.76996000  1
  C  762  1  0.79103600  0.08216200  0.78437600  1
  C  763  1  0.77496000  0.10604000  0.78362400  1
  C  764  1  0.75620000  0.11062700  0.76866100  1
  C  769  1  0.69953800  0.06323800  0.75737400  1
  C  770  1  0.73859200  0.13549600  0.76828100  1
  C  781  1  0.34089400  0.54286300  0.45727500  1
  C  782  1  0.32912400  0.55103600  0.47459000  1
  C  783  1  0.33199100  0.53508900  0.49119900  1
  C  784  1  0.34747000  0.51055200  0.49016300  1
  C  785  1  0.36040800  0.50317500  0.47299400  1
  C  786  1  0.35726800  0.51928200  0.45668100  1
  C  789  1  0.34646400  0.49071400  0.50476000  1
  C  790  1  0.32307400  0.47391300  0.50524900  1
  C  791  1  0.31915300  0.45536100  0.52010600  1
  C  792  1  0.33890800  0.45266500  0.53441500  1
  C  793  1  0.36246400  0.46921500  0.53388600  1
  C  794  1  0.36662900  0.48855600  0.51922000  1
  C  799  1  0.31734400  0.54434400  0.50858000  1
  C  800  1  0.39112400  0.50668800  0.51911200  1
  C  811  1  0.15737600  0.44877000  0.95714700  1
  C  812  1  0.16910300  0.44053800  0.97446000  1
  C  813  1  0.16620100  0.45644300  0.99108500  1
  C  814  1  0.15069500  0.48096300  0.99008000  1
  C  815  1  0.13779900  0.48838700  0.97290200  1
  C  816  1  0.14096200  0.47232100  0.95657200  1
  C  819  1  0.15171900  0.50080700  0.00467300  1
  C  820  1  0.17510900  0.51760900  0.00514700  1
  C  821  1  0.17905800  0.53614400  0.02000900  1
  C  822  1  0.15934900  0.53880400  0.03435300  1
  C  823  1  0.13576800  0.52228500  0.03381900  1
  C  824  1  0.13158100  0.50294900  0.01915300  1
  C  829  1  0.18081400  0.44714800  0.00847100  1
  C  830  1  0.10708700  0.48481900  0.01905800  1
  C  841  1  0.20272300  0.09024800  0.79230300  1
  C  842  1  0.19395300  0.07872500  0.77505100  1
  C  843  1  0.20965500  0.08129400  0.75831300  1
  C  844  1  0.23454000  0.09622500  0.75915800  1
  C  845  1  0.24252200  0.10892300  0.77628900  1
  C  846  1  0.22664200  0.10611100  0.79273900  1
  C  849  1  0.25420300  0.09452800  0.74448800  1
  C  850  1  0.27058500  0.07083500  0.74419400  1
  C  851  1  0.28884100  0.06618000  0.72926500  1
  C  852  1  0.29155800  0.08543200  0.71463200  1
  C  853  1  0.27547700  0.10932600  0.71498800  1
  C  854  1  0.25645900  0.11424300  0.72974100  1
  C  859  1  0.19982500  0.06681100  0.74101700  1
  C  860  1  0.23878300  0.13906800  0.72967300  1
  C  871  1  0.29560900  0.90122500  0.29209100  1
  C  872  1  0.30447100  0.91263300  0.27482300  1
  C  873  1  0.28878800  0.91006900  0.25807500  1
  C  874  1  0.26387200  0.89519300  0.25892100  1
  C  875  1  0.25581100  0.88255900  0.27605500  1
  C  876  1  0.27164200  0.88543000  0.29252200  1
  C  879  1  0.24420800  0.89697200  0.24425200  1
  C  880  1  0.22791800  0.92072900  0.24396900  1
  C  881  1  0.20966500  0.92545400  0.22904800  1
  C  882  1  0.20682700  0.90619300  0.21443200  1
  C  883  1  0.22283100  0.88224900  0.21477100  1
  C  884  1  0.24184400  0.87725500  0.22951500  1
  C  889  1  0.29867600  0.92449300  0.24077200  1
  C  890  1  0.25941200  0.85235300  0.22944400  1
  C  901  1  0.65902900  0.45058200  0.54257100  1
  C  902  1  0.67013300  0.44148300  0.52526900  1
  C  903  1  0.66751000  0.45704000  0.50846800  1
  C  904  1  0.65291300  0.48212300  0.50930200  1
  C  905  1  0.64062300  0.49047800  0.52648400  1
  C  906  1  0.64354400  0.47475800  0.54300000  1
  C  909  1  0.65427300  0.50142300  0.49438400  1
  C  910  1  0.67797400  0.51775700  0.49361100  1
  C  911  1  0.68232100  0.53556800  0.47837700  1
  C  912  1  0.66273100  0.53794200  0.46393000  1
  C  913  1  0.63886500  0.52185300  0.46474800  1
  C  914  1  0.63424500  0.50327500  0.47981400  1
  C  919  1  0.68154800  0.44679000  0.49111000  1
  C  920  1  0.60939200  0.48564600  0.48025800  1
  C  931  1  0.83906700  0.54099000  0.04269100  1
  C  932  1  0.82797500  0.55011700  0.02539300  1
  C  933  1  0.83060800  0.53457700  0.00858500  1
  C  934  1  0.84523700  0.50951300  0.00939600  1
  C  935  1  0.85751500  0.50114100  0.02658300  1
  C  936  1  0.85459300  0.51684500  0.04310700  1
  C  939  1  0.84385300  0.49019200  0.99449300  1
  C  940  1  0.82015400  0.47385600  0.99375000  1
  C  941  1  0.81576700  0.45605100  0.97851800  1
  C  942  1  0.83530100  0.45371000  0.96403000  1
  C  943  1  0.85918800  0.46977000  0.96483700  1
  C  944  1  0.86384200  0.48835200  0.97989600  1
  C  949  1  0.81657800  0.54483800  0.99122700  1
  C  950  1  0.88869300  0.50598300  0.98031100  1
  C  961  1  0.22158800  0.32188200  0.90968200  1
  C  962  1  0.24706300  0.31020100  0.90506200  1
  C  963  1  0.25090600  0.28155800  0.90485100  1
  C  964  1  0.22835800  0.26445100  0.90934400  1
  C  965  1  0.20322100  0.27628400  0.91464300  1
  C  966  1  0.19989500  0.30464400  0.91478000  1
  C  969  1  0.22840500  0.23575500  0.90673500  1
  C  970  1  0.23224400  0.21909000  0.92287300  1
  C  971  1  0.22792600  0.19083900  0.92182800  1
  C  972  1  0.21942600  0.17878400  0.90464100  1
  C  973  1  0.21613100  0.19533900  0.88846100  1
  C  974  1  0.22072800  0.22381800  0.88906500  1
  C  979  1  0.27820400  0.27098400  0.89924000  1
  C  980  1  0.21582100  0.24100200  0.87183300  1
  C  991  1  0.27679400  0.66987800  0.40982500  1
  C  992  1  0.25132200  0.68156000  0.40519600  1
  C  993  1  0.24748200  0.71020400  0.40497600  1
  C  994  1  0.27002400  0.72730500  0.40949800  1
  C  995  1  0.29515000  0.71547500  0.41482000  1
  C  996  1  0.29848400  0.68711800  0.41492900  1
  C  999  1  0.26998000  0.75600300  0.40689300  1
  C  1000  1  0.26606900  0.77266600  0.42302400  1
  C  1001  1  0.27041600  0.80091300  0.42198700  1
  C  1002  1  0.27889300  0.81298500  0.40480100  1
  C  1003  1  0.28227600  0.79642400  0.38863500  1
  C  1004  1  0.27769500  0.76794400  0.38923000  1
  C  1009  1  0.22020100  0.72078000  0.39933300  1
  C  1010  1  0.28264800  0.75076100  0.37200400  1
  C  1021  1  0.92312100  0.96798100  0.15863200  1
  C  1022  1  0.93483400  0.99362000  0.15452800  1
  C  1023  1  0.96347700  0.99747600  0.15453400  1
  C  1024  1  0.98054200  0.97477300  0.15872900  1
  C  1025  1  0.96866400  0.94946600  0.16356400  1
  C  1026  1  0.94030800  0.94611700  0.16345100  1
  C  1029  1  0.00926800  0.97493000  0.15628400  1
  C  1030  1  0.02573500  0.97834700  0.17256900  1
  C  1031  1  0.05399100  0.97399600  0.17164200  1
  C  1032  1  0.06626400  0.96596100  0.15442000  1
  C  1033  1  0.04990800  0.96310600  0.13810600  1
  C  1034  1  0.02142800  0.96771800  0.13859300  1
  C  1039  1  0.97410400  0.02494700  0.14940400  1
  C  1040  1  0.00445500  0.96330600  0.12119600  1
  C  1051  1  0.57522900  0.02341800  0.65921800  1
  C  1052  1  0.56349100  0.99785500  0.65491800  1
  C  1053  1  0.53484200  0.99404800  0.65485300  1
  C  1054  1  0.51779800  0.01670200  0.65920700  1
  C  1055  1  0.52970500  0.04191400  0.66425000  1
  C  1056  1  0.55806900  0.04521400  0.66422400  1
  C  1059  1  0.48908600  0.01665500  0.65666400  1
  C  1060  1  0.47251100  0.01310500  0.67287800  1
  C  1061  1  0.44426900  0.01751100  0.67188000  1
  C  1062  1  0.43211400  0.02572300  0.65465700  1
  C  1063  1  0.44859700  0.02875200  0.63841700  1
  C  1064  1  0.47706700  0.02409500  0.63897200  1
  C  1069  1  0.52418700  0.96666600  0.64951700  1
  C  1070  1  0.49416600  0.02869500  0.62166000  1
  C  1081  1  0.28414600  0.31127500  0.58280700  1
  C  1082  1  0.25781400  0.30258600  0.58824500  1
  C  1083  1  0.25119500  0.27454600  0.58978900  1
  C  1084  1  0.27177500  0.25492000  0.58573800  1
  C  1085  1  0.29769700  0.26371500  0.57948100  1
  C  1086  1  0.30380100  0.29154700  0.57808600  1
  C  1089  1  0.26939700  0.22688700  0.59046100  1
  C  1090  1  0.26308200  0.20820000  0.57583100  1
  C  1091  1  0.26483000  0.17998300  0.57901800  1
  C  1092  1  0.27329300  0.17008400  0.59684600  1
  C  1093  1  0.27914800  0.18867400  0.61151800  1
  C  1094  1  0.27702600  0.21716200  0.60879200  1
  C  1099  1  0.22329000  0.26725500  0.59641000  1
  C  1100  1  0.28447600  0.23636200  0.62448700  1
  C  1111  1  0.21398500  0.68021100  0.08279200  1
  C  1112  1  0.24028900  0.68895600  0.08826000  1
  C  1113  1  0.24684300  0.71701000  0.08981600  1
  C  1114  1  0.22623700  0.73658500  0.08571200  1
  C  1115  1  0.20035100  0.72774500  0.07941600  1
  C  1116  1  0.19430100  0.69989800  0.07804800  1
  C  1119  1  0.22855300  0.76463500  0.09040500  1
  C  1120  1  0.23495200  0.78328700  0.07577200  1
  C  1121  1  0.23312200  0.81150800  0.07891600  1
  C  1122  1  0.22462700  0.82145400  0.09672300  1
  C  1123  1  0.21867400  0.80289200  0.11139300  1
  C  1124  1  0.22082600  0.77439800  0.10870700  1
  C  1129  1  0.27470500  0.72436200  0.09649100  1
  C  1130  1  0.21332500  0.75522800  0.12440800  1
  C  1141  1  0.56534800  0.96185100  0.33321900  1
  C  1142  1  0.55610200  0.98805100  0.33852500  1
  C  1143  1  0.52792800  0.99411300  0.33998200  1
  C  1144  1  0.50874800  0.97310000  0.33597400  1
  C  1145  1  0.51808400  0.94732600  0.32980300  1
  C  1146  1  0.54604000  0.94177300  0.32851500  1
  C  1149  1  0.48062700  0.97503200  0.34052800  1
  C  1150  1  0.46203600  0.98118600  0.32580800  1
  C  1151  1  0.43380500  0.97912100  0.32884900  1
  C  1152  1  0.42379300  0.97057900  0.34663000  1
  C  1153  1  0.44229200  0.96488100  0.36138500  1
  C  1154  1  0.47078700  0.96728600  0.35880400  1
  C  1159  1  0.52005200  0.02191400  0.34649500  1
  C  1160  1  0.48990700  0.96008600  0.37460300  1
  C  1171  1  0.93278200  0.02950300  0.83331200  1
  C  1172  1  0.94196400  0.00327300  0.83859600  1
  C  1173  1  0.97012500  0.99715200  0.84004700  1
  C  1174  1  0.98935700  0.01811000  0.83601600  1
  C  1175  1  0.98006900  0.04391500  0.82986800  1
  C  1176  1  0.95212300  0.04952900  0.82857600  1
  C  1179  1  0.01746700  0.01615700  0.84060700  1
  C  1180  1  0.03608400  0.01006300  0.82589200  1
  C  1181  1  0.06430600  0.01214300  0.82895900  1
  C  1182  1  0.07428800  0.02063100  0.84676100  1
  C  1183  1  0.05575200  0.02630500  0.86150300  1
  C  1184  1  0.02726400  0.02388100  0.85889800  1
  C  1189  1  0.97795000  0.96932800  0.84654100  1
  C  1190  1  0.00811500  0.03106700  0.87468200  1
  C  1201  1  0.77577900  0.66902000  0.08888600  1
  C  1202  1  0.75036600  0.68097200  0.09332900  1
  C  1203  1  0.74678600  0.70965100  0.09339700  1
  C  1204  1  0.76953600  0.72651400  0.08894900  1
  C  1205  1  0.79461500  0.71440100  0.08382100  1
  C  1206  1  0.79767900  0.68601300  0.08381900  1
  C  1209  1  0.76975600  0.75523200  0.09145000  1
  C  1210  1  0.76649900  0.77179500  0.07520100  1
  C  1211  1  0.77130800  0.79997400  0.07614300  1
  C  1212  1  0.77972400  0.81205800  0.09334200  1
  C  1213  1  0.78239000  0.79562100  0.10963600  1
  C  1214  1  0.77730600  0.76722100  0.10913100  1
  C  1219  1  0.71952800  0.72053100  0.09881700  1
  C  1220  1  0.78163400  0.75013200  0.12648300  1
  C  1231  1  0.72211600  0.32250300  0.58869600  1
  C  1232  1  0.74749900  0.31049500  0.59315100  1
  C  1233  1  0.75101800  0.28180700  0.59321300  1
  C  1234  1  0.72824200  0.26500300  0.58872200  1
  C  1235  1  0.70320400  0.27716900  0.58356500  1
  C  1236  1  0.70019000  0.30556100  0.58360200  1
  C  1239  1  0.72794900  0.23628300  0.59122000  1
  C  1240  1  0.73119300  0.21971000  0.57497300  1
  C  1241  1  0.72626300  0.19155200  0.57590900  1
  C  1242  1  0.71785900  0.17947500  0.59311400  1
  C  1243  1  0.71519000  0.19592900  0.60939800  1
  C  1244  1  0.72035000  0.22431500  0.60889900  1
  C  1249  1  0.77823700  0.27086400  0.59866600  1
  C  1250  1  0.71605200  0.24141600  0.62624900  1
  C  1261  1  0.71513100  0.67931100  0.41453700  1
  C  1262  1  0.74137500  0.68859900  0.40937700  1
  C  1263  1  0.74741100  0.71678100  0.40794900  1
  C  1264  1  0.72631800  0.73592800  0.41183300  1
  C  1265  1  0.70048100  0.72655300  0.41783600  1
  C  1266  1  0.69496100  0.69858800  0.41910400  1
  C  1269  1  0.72830700  0.76408900  0.40740600  1
  C  1270  1  0.73418600  0.78254500  0.42226300  1
  C  1271  1  0.73202400  0.81079500  0.41936100  1
  C  1272  1  0.72367100  0.82096900  0.40158000  1
  C  1273  1  0.71827700  0.80260900  0.38668600  1
  C  1274  1  0.72078200  0.77409800  0.38913000  1
  C  1279  1  0.77528600  0.72470400  0.40162300  1
  C  1280  1  0.71387200  0.75511400  0.37319200  1
  C  1291  1  0.78288700  0.31232900  0.91465900  1
  C  1292  1  0.75663400  0.30302400  0.90953300  1
  C  1293  1  0.75061500  0.27483600  0.90813400  1
  C  1294  1  0.77170600  0.25570100  0.91205100  1
  C  1295  1  0.79755500  0.26510700  0.91801300  1
  C  1296  1  0.80306300  0.29307800  0.91926000  1
  C  1299  1  0.76975800  0.22753500  0.90762300  1
  C  1300  1  0.76398300  0.20907800  0.92249800  1
  C  1301  1  0.76618500  0.18083200  0.91959600  1
  C  1302  1  0.77447300  0.17065700  0.90180000  1
  C  1303  1  0.77980800  0.18903000  0.88689800  1
  C  1304  1  0.77725900  0.21753900  0.88934100  1
  C  1309  1  0.72273600  0.26688000  0.90184000  1
  C  1310  1  0.78411000  0.23652700  0.87339200  1
  C  1321  1  0.42283600  0.46777500  0.65958200  1
  C  1322  1  0.43448600  0.49334900  0.65520400  1
  C  1323  1  0.46312500  0.49723700  0.65506900  1
  C  1324  1  0.48025200  0.47463200  0.65938600  1
  C  1325  1  0.46843500  0.44938000  0.66443800  1
  C  1326  1  0.44008500  0.44600700  0.66449800  1
  C  1329  1  0.50895800  0.47472800  0.65681900  1
  C  1330  1  0.52555800  0.47794700  0.67305400  1
  C  1331  1  0.55375700  0.47328900  0.67205000  1
  C  1332  1  0.56582700  0.46506200  0.65480200  1
  C  1333  1  0.54935500  0.46246200  0.63851900  1
  C  1334  1  0.52093200  0.46739800  0.63908800  1
  C  1339  1  0.47368200  0.52464700  0.64972100  1
  C  1340  1  0.50380700  0.46310600  0.62174800  1
  C  1351  1  0.07535000  0.52378100  0.15941000  1
  C  1352  1  0.06369500  0.49819300  0.15507600  1
  C  1353  1  0.03505500  0.49431300  0.15495100  1
  C  1354  1  0.01794000  0.51693000  0.15926000  1
  C  1355  1  0.02975800  0.54219300  0.16428000  1
  C  1356  1  0.05810800  0.54556900  0.16429200  1
  C  1359  1  0.98922700  0.51683400  0.15671900  1
  C  1360  1  0.97265800  0.51361900  0.17297100  1
  C  1361  1  0.94447300  0.51836500  0.17200000  1
  C  1362  1  0.93236000  0.52654200  0.15475500  1
  C  1363  1  0.94880500  0.52914300  0.13846100  1
  C  1364  1  0.97722200  0.52416600  0.13899800  1
  C  1369  1  0.02448400  0.46689600  0.14962800  1
  C  1370  1  0.99431500  0.52842100  0.12163800  1
  C  1381  1  0.06450300  0.46042700  0.83325200  1
  C  1382  1  0.05577000  0.48685000  0.83843800  1
  C  1383  1  0.02771800  0.49347100  0.83987600  1
  C  1384  1  0.00813700  0.47278800  0.83598100  1
  C  1385  1  0.01697100  0.44677500  0.82994200  1
  C  1386  1  0.04481100  0.44067200  0.82866400  1
  C  1389  1  0.98004200  0.47529200  0.84048500  1
  C  1390  1  0.96158600  0.48124000  0.82564000  1
  C  1391  1  0.93332600  0.47932500  0.82859000  1
  C  1392  1  0.92314600  0.47115500  0.84640900  1
  C  1393  1  0.94150600  0.46574100  0.86130100  1
  C  1394  1  0.97002900  0.46798500  0.85880400  1
  C  1399  1  0.02037500  0.52148900  0.84623000  1
  C  1400  1  0.98899600  0.46095400  0.87472600  1
  C  1411  1  0.43357500  0.53109500  0.33321700  1
  C  1412  1  0.44227000  0.50463800  0.33835600  1
  C  1413  1  0.47031600  0.49797700  0.33975300  1
  C  1414  1  0.48993000  0.51861900  0.33582600  1
  C  1415  1  0.48111400  0.54466600  0.32983600  1
  C  1416  1  0.45327800  0.55081400  0.32859100  1
  C  1419  1  0.51802000  0.51610300  0.34034400  1
  C  1420  1  0.53648100  0.51022600  0.32549000  1
  C  1421  1  0.56473600  0.51213100  0.32845300  1
  C  1422  1  0.57491500  0.52021300  0.34629300  1
  C  1423  1  0.55653900  0.52560300  0.36118200  1
  C  1424  1  0.52801600  0.52336300  0.35867500  1
  C  1429  1  0.47763800  0.46993500  0.34606900  1
  C  1430  1  0.50904200  0.53037100  0.37459900  1
  C  1441  1  0.18102300  0.41800800  0.30432100  1
  C  1442  1  0.17281500  0.43420400  0.32013100  1
  C  1443  1  0.18484500  0.42971700  0.33822400  1
  C  1444  1  0.20419800  0.40878500  0.34059500  1
  C  1445  1  0.21222500  0.39235000  0.32521500  1
  C  1446  1  0.20108800  0.39727000  0.30687900  1
  C  1447  1  0.15237100  0.45411100  0.31736000  1
  C  1448  1  0.20913500  0.38174000  0.29094100  1
  C  1450  1  0.16882500  0.42221400  0.28608300  1
  C  1451  1  0.14796800  0.44221700  0.28368700  1
  C  1452  1  0.13545600  0.44579100  0.26562200  1
  C  1453  1  0.14455700  0.43022700  0.25005600  1
  C  1454  1  0.16543900  0.41076000  0.25209900  1
  C  1455  1  0.17736200  0.40626400  0.27022900  1
  C  1456  1  0.14005700  0.45781000  0.29964300  1
  C  1458  1  0.19782900  0.38637200  0.27302400  1
  C  1463  1  0.22814000  0.36983700  0.32912900  1
  C  1464  1  0.17513500  0.39832700  0.23588400  1
  C  1465  1  0.11332600  0.46278000  0.26280800  1
  C  1466  1  0.17865600  0.44538000  0.35386700  1
  C  1471  1  0.31725800  0.57370300  0.80442500  1
  C  1472  1  0.32549900  0.55751100  0.82022800  1
  C  1473  1  0.31352900  0.56202000  0.83833700  1
  C  1474  1  0.29421300  0.58298100  0.84073200  1
  C  1475  1  0.28614700  0.59940700  0.82535600  1
  C  1476  1  0.29721900  0.59446200  0.80700600  1
  C  1477  1  0.34591700  0.53758300  0.81743300  1
  C  1478  1  0.28913500  0.60998500  0.79107300  1
  C  1480  1  0.32938700  0.56946600  0.78616900  1
  C  1481  1  0.35022300  0.54944500  0.78374800  1
  C  1482  1  0.36266600  0.54584000  0.76566200  1
  C  1483  1  0.35350400  0.56137200  0.75009900  1
  C  1484  1  0.33263700  0.58084900  0.75216900  1
  C  1485  1  0.32079800  0.58539600  0.77031900  1
  C  1486  1  0.35817900  0.53386600  0.79969900  1
  C  1488  1  0.30035900  0.60530900  0.77313800  1
  C  1493  1  0.27024200  0.62192300  0.82928400  1
  C  1494  1  0.32283800  0.59322700  0.73596500  1
  C  1495  1  0.38474700  0.52880400  0.76281200  1
  C  1496  1  0.31970800  0.54631700  0.85396400  1
  C  1501  1  0.82713100  0.92807900  0.55318100  1
  C  1502  1  0.81011400  0.92052100  0.56872400  1
  C  1503  1  0.81414700  0.93281100  0.58678200  1
  C  1504  1  0.83531100  0.95186000  0.58937800  1
  C  1505  1  0.85243500  0.95934500  0.57424100  1
  C  1506  1  0.84805100  0.94790100  0.55593500  1
  C  1507  1  0.78977300  0.90057500  0.56569400  1
  C  1508  1  0.86427000  0.95546300  0.54021700  1
  C  1510  1  0.82355900  0.91546900  0.53501900  1
  C  1511  1  0.80343200  0.89476900  0.53245600  1
  C  1512  1  0.80055100  0.88174400  0.51449600  1
  C  1513  1  0.81667600  0.89055300  0.49911900  1
  C  1514  1  0.83619500  0.91134900  0.50129700  1
  C  1515  1  0.84019400  0.92352700  0.51939000  1
  C  1516  1  0.78663300  0.88790400  0.54803900  1
  C  1518  1  0.86017200  0.94386600  0.52233400  1
  C  1523  1  0.87511700  0.97487100  0.57842400  1
  C  1524  1  0.84907600  0.92083500  0.48519600  1
  C  1525  1  0.78400600  0.85934100  0.51126700  1
  C  1526  1  0.79816600  0.92680500  0.60229100  1
  C  1531  1  0.67079700  0.06358000  0.05326330  1
  C  1532  1  0.68780400  0.07132700  0.06876630  1
  C  1533  1  0.68385100  0.05916100  0.08687530  1
  C  1534  1  0.66278800  0.04001500  0.08954330  1
  C  1535  1  0.64570000  0.03230300  0.07443630  1
  C  1536  1  0.64997700  0.04367600  0.05609830  1
  C  1537  1  0.70804300  0.09134800  0.06565230  1
  C  1538  1  0.63373600  0.03596800  0.04042530  1
  C  1540  1  0.67429400  0.07607200  0.03505330  1
  C  1541  1  0.69433700  0.09682500  0.03239630  1
  C  1542  1  0.69716400  0.10970900  0.01438130  1
  C  1543  1  0.68105100  0.10071500  0.99904900  1
  C  1544  1  0.66160000  0.07987700  0.00132531  1
  C  1545  1  0.65766700  0.06783300  0.01946630  1
  C  1546  1  0.71113100  0.10387600  0.04794230  1
  C  1548  1  0.63774400  0.04747200  0.02250230  1
  C  1553  1  0.62315400  0.01660900  0.07869130  1
  C  1554  1  0.64880900  0.07011900  0.98527200  1
  C  1555  1  0.71357800  0.13218400  0.01106230  1
  C  1556  1  0.69991100  0.06528200  0.10233200  1
  C  1561  1  0.32255800  0.41535300  0.03598730  1
  C  1562  1  0.33855300  0.42399300  0.02018130  1
  C  1563  1  0.33411300  0.41218400  0.00201231  1
  C  1564  1  0.31464600  0.39132300  0.99986800  1
  C  1565  1  0.29905100  0.38210600  0.01538730  1
  C  1566  1  0.30257400  0.39450000  0.03349930  1
  C  1567  1  0.35842700  0.44445200  0.02306330  1
  C  1568  1  0.28695400  0.38647500  0.04941630  1
  C  1570  1  0.32669100  0.42745700  0.05426430  1
  C  1571  1  0.34740500  0.44752500  0.05690630  1
  C  1572  1  0.35224700  0.45859700  0.07526730  1
  C  1573  1  0.33577300  0.45046800  0.09060330  1
  C  1574  1  0.31486600  0.43110300  0.08815830  1
  C  1575  1  0.31045200  0.41915700  0.07002730  1
  C  1576  1  0.36298200  0.45567400  0.04101430  1
  C  1578  1  0.29058800  0.39869600  0.06717130  1
  C  1583  1  0.28195400  0.36009000  0.01244230  1
  C  1584  1  0.29912200  0.42483900  0.10375600  1
  C  1585  1  0.37481500  0.47437700  0.07927030  1
  C  1586  1  0.34655700  0.42205100  0.98585500  1
  C  1591  1  0.17571400  0.57607500  0.53591600  1
  C  1592  1  0.15970700  0.56745700  0.52011100  1
  C  1593  1  0.16413300  0.57929000  0.50194700  1
  C  1594  1  0.18360300  0.60014900  0.49981100  1
  C  1595  1  0.19920400  0.60935200  0.51533100  1
  C  1596  1  0.19570000  0.59692700  0.53343500  1
  C  1597  1  0.13983400  0.54699400  0.52298500  1
  C  1598  1  0.21133400  0.60492800  0.54935100  1
  C  1600  1  0.17158400  0.56395400  0.55418800  1
  C  1601  1  0.15085100  0.54390800  0.55682600  1
  C  1602  1  0.14600000  0.53284700  0.57518900  1
  C  1603  1  0.16248100  0.54094300  0.59052700  1
  C  1604  1  0.18342400  0.56027200  0.58807900  1
  C  1605  1  0.18783900  0.57222700  0.56995200  1
  C  1606  1  0.13527100  0.53576900  0.54093400  1
  C  1608  1  0.20772100  0.59267400  0.56709800  1
  C  1613  1  0.21627000  0.63139600  0.51240100  1
  C  1614  1  0.19917200  0.56652200  0.60367700  1
  C  1615  1  0.12338300  0.51713200  0.57919400  1
  C  1616  1  0.15169600  0.56943200  0.48578600  1
  C  1621  1  0.66960500  0.92474900  0.78635600  1
  C  1622  1  0.67906400  0.90966200  0.77035100  1
  C  1623  1  0.66744700  0.91439500  0.75215500  1
  C  1624  1  0.64623600  0.93350800  0.75011900  1
  C  1625  1  0.63650500  0.94849400  0.76577200  1
  C  1626  1  0.64850400  0.94449700  0.78396100  1
  C  1627  1  0.70020400  0.89046800  0.77307400  1
  C  1628  1  0.63979800  0.95937900  0.80004500  1
  C  1630  1  0.68100400  0.91980800  0.80475700  1
  C  1631  1  0.70113700  0.89912600  0.80733200  1
  C  1632  1  0.71093300  0.89285200  0.82588000  1
  C  1633  1  0.70219300  0.90883600  0.84133600  1
  C  1634  1  0.68312500  0.93000900  0.83893600  1
  C  1635  1  0.67189700  0.93520700  0.82070400  1
  C  1636  1  0.71083700  0.88523300  0.79111000  1
  C  1638  1  0.65145800  0.95511200  0.81791100  1
  C  1643  1  0.61409600  0.96509900  0.76293500  1
  C  1644  1  0.67639700  0.94516600  0.85470900  1
  C  1645  1  0.72598200  0.86969000  0.83017700  1
  C  1646  1  0.67708100  0.90184500  0.73597200  1
  C  1651  1  0.82871900  0.06689600  0.28655000  1
  C  1652  1  0.81922300  0.08197100  0.27055000  1
  C  1653  1  0.83076900  0.07719200  0.25233700  1
  C  1654  1  0.85192500  0.05802600  0.25027500  1
  C  1655  1  0.86168400  0.04304000  0.26592000  1
  C  1656  1  0.84978300  0.04711400  0.28413300  1
  C  1657  1  0.79811700  0.10119700  0.27329100  1
  C  1658  1  0.85853600  0.03225900  0.30021500  1
  C  1660  1  0.81737200  0.07186800  0.30496300  1
  C  1661  1  0.79723900  0.09254700  0.30754900  1
  C  1662  1  0.78743500  0.09880100  0.32609800  1
  C  1663  1  0.79623700  0.08284800  0.34155500  1
  C  1664  1  0.81532000  0.06169200  0.33914700  1
  C  1665  1  0.82651200  0.05648000  0.32090500  1
  C  1666  1  0.78751300  0.10643700  0.29133400  1
  C  1668  1  0.84695100  0.03658000  0.31810000  1
  C  1673  1  0.88402400  0.02635300  0.26303400  1
  C  1674  1  0.82203500  0.04649900  0.35490900  1
  C  1675  1  0.77239300  0.12195900  0.33041800  1
  C  1676  1  0.82104500  0.08967400  0.23615500  1
  C  1681  1  0.81609900  0.57360100  0.54670400  1
  C  1682  1  0.82367900  0.55657500  0.53117200  1
  C  1683  1  0.81131800  0.56051200  0.51313000  1
  C  1684  1  0.79212800  0.58154800  0.51054400  1
  C  1685  1  0.78458700  0.59866100  0.52567700  1
  C  1686  1  0.79615900  0.59441700  0.54396100  1
  C  1687  1  0.84371700  0.53632200  0.53419200  1
  C  1688  1  0.78865000  0.61070100  0.55965800  1
  C  1690  1  0.82880400  0.57014300  0.56484400  1
  C  1691  1  0.84956300  0.55007500  0.56740500  1
  C  1692  1  0.86263600  0.54725800  0.58535400  1
  C  1693  1  0.85388800  0.56346700  0.60070500  1
  C  1694  1  0.83307000  0.58296000  0.59852800  1
  C  1695  1  0.82078400  0.58683000  0.58045500  1
  C  1696  1  0.85643700  0.53325500  0.55183600  1
  C  1698  1  0.80038800  0.60674900  0.57751300  1
  C  1703  1  0.76882600  0.62118900  0.52149400  1
  C  1704  1  0.82363500  0.59589200  0.61462500  1
  C  1705  1  0.88508600  0.53077900  0.58858500  1
  C  1706  1  0.81740500  0.54459100  0.49760900  1
  C  1711  1  0.68197000  0.41794100  0.04662230  1
  C  1712  1  0.67436300  0.43497100  0.03109830  1
  C  1713  1  0.68667500  0.43102100  0.01304130  1
  C  1714  1  0.70582600  0.40995700  0.01043030  1
  C  1715  1  0.71340500  0.39285000  0.02555730  1
  C  1716  1  0.70188500  0.39710700  0.04385530  1
  C  1717  1  0.65435000  0.45524000  0.03414230  1
  C  1718  1  0.70941900  0.38081900  0.05954530  1
  C  1720  1  0.66931300  0.42141500  0.06477730  1
  C  1721  1  0.64857100  0.44149100  0.06736230  1
  C  1722  1  0.63554300  0.44431400  0.08532630  1
  C  1723  1  0.64434000  0.42812800  0.10067500  1
  C  1724  1  0.66515400  0.40863600  0.09847130  1
  C  1725  1  0.67737500  0.40473400  0.08038230  1
  C  1726  1  0.64167300  0.45831700  0.05179930  1
  C  1728  1  0.69774900  0.38480000  0.07741830  1
  C  1733  1  0.72914100  0.37031000  0.02135730  1
  C  1734  1  0.67468500  0.39574900  0.11455600  1
  C  1735  1  0.61312800  0.46083000  0.08858630  1
  C  1736  1  0.68058400  0.44696900  0.99753300  1
  C  1741  1  0.17282100  0.06311600  0.29607300  1
  C  1742  1  0.18889100  0.07164500  0.28029700  1
  C  1743  1  0.18405800  0.06012900  0.26210600  1
  C  1744  1  0.16274500  0.04125000  0.25957000  1
  C  1745  1  0.14623400  0.03296600  0.27487400  1
  C  1746  1  0.15203400  0.04311300  0.29340100  1
  C  1747  1  0.20918600  0.09165600  0.28324200  1
  C  1748  1  0.13756100  0.03388200  0.30950800  1
  C  1750  1  0.17721300  0.07496500  0.31439900  1
  C  1751  1  0.19703600  0.09598200  0.31686600  1
  C  1752  1  0.20042000  0.10853500  0.33494900  1
  C  1753  1  0.18499100  0.09907300  0.35048300  1
  C  1754  1  0.16587200  0.07789100  0.34840100  1
  C  1755  1  0.16156400  0.06596000  0.33026300  1
  C  1756  1  0.21300700  0.10367500  0.30105000  1
  C  1758  1  0.14232100  0.04488000  0.32749800  1
  C  1763  1  0.12303300  0.01807700  0.27038900  1
  C  1764  1  0.15297500  0.06849300  0.36451400  1
  C  1765  1  0.21650800  0.13128500  0.33813500  1
  C  1766  1  0.19934700  0.06672500  0.24638600  1
  C  1771  1  0.32521400  0.92849700  0.79601100  1
  C  1772  1  0.30919300  0.91981400  0.78025200  1
  C  1773  1  0.31405300  0.93117900  0.76201800  1
  C  1774  1  0.33534800  0.95006700  0.75943300  1
  C  1775  1  0.35179900  0.95853400  0.77472200  1
  C  1776  1  0.34597700  0.94851000  0.79328100  1
  C  1777  1  0.28893100  0.89978600  0.78325700  1
  C  1778  1  0.36040600  0.95789000  0.80936400  1
  C  1780  1  0.32080400  0.91678800  0.81437800  1
  C  1781  1  0.30101500  0.89575800  0.81690900  1
  C  1782  1  0.29761400  0.88334000  0.83503600  1
  C  1783  1  0.31301100  0.89294000  0.85054400  1
  C  1784  1  0.33209700  0.91413900  0.84839600  1
  C  1785  1  0.33641100  0.92594100  0.83022100  1
  C  1786  1  0.28508200  0.88791800  0.80111000  1
  C  1788  1  0.35564200  0.94701400  0.82738900  1
  C  1793  1  0.37503300  0.97334600  0.77019100  1
  C  1794  1  0.34496800  0.92369600  0.86446900  1
  C  1795  1  0.28166800  0.86050200  0.83827400  1
  C  1796  1  0.29876100  0.92446400  0.74632100  1
  C  1801  1  0.67834500  0.57489300  0.81325600  1
  C  1802  1  0.66328800  0.56539500  0.82926400  1
  C  1803  1  0.66794200  0.57708300  0.84744600  1
  C  1804  1  0.68698100  0.59835800  0.84947900  1
  C  1805  1  0.70194000  0.60812300  0.83382400  1
  C  1806  1  0.69798900  0.59609400  0.81563700  1
  C  1807  1  0.64419600  0.54415700  0.82656100  1
  C  1808  1  0.71281800  0.60485400  0.79954400  1
  C  1810  1  0.67347700  0.56342000  0.79486900  1
  C  1811  1  0.65292800  0.54314000  0.79231600  1
  C  1812  1  0.64675100  0.53321400  0.77378700  1
  C  1813  1  0.66264600  0.54206600  0.75831600  1
  C  1814  1  0.68365700  0.56131700  0.76069100  1
  C  1815  1  0.68880500  0.57260200  0.77891200  1
  C  1816  1  0.63906500  0.53341800  0.80854200  1
  C  1818  1  0.70858300  0.59317000  0.78168300  1
  C  1823  1  0.71851800  0.63055500  0.83667300  1
  C  1824  1  0.69867000  0.56819500  0.74488600  1
  C  1825  1  0.62363400  0.51809800  0.76947800  1
  C  1826  1  0.65540800  0.56740600  0.86361700  1
  C  1831  1  0.81965100  0.41673400  0.31337200  1
  C  1832  1  0.83471600  0.42622600  0.32937900  1
  C  1833  1  0.83006800  0.41453800  0.34756100  1
  C  1834  1  0.81102100  0.39327300  0.34959700  1
  C  1835  1  0.79605300  0.38351000  0.33394400  1
  C  1836  1  0.79999800  0.39554000  0.31575700  1
  C  1837  1  0.85380600  0.44746400  0.32667300  1
  C  1838  1  0.78516500  0.38678300  0.29966600  1
  C  1840  1  0.82452300  0.42819900  0.29498400  1
  C  1841  1  0.84508600  0.44846300  0.29242600  1
  C  1842  1  0.85128300  0.45835200  0.27389100  1
  C  1843  1  0.83538900  0.44950200  0.25842000  1
  C  1844  1  0.81434400  0.43029000  0.26080400  1
  C  1845  1  0.80918700  0.41901900  0.27902900  1
  C  1846  1  0.85894500  0.45819300  0.30865100  1
  C  1848  1  0.78939000  0.39847400  0.28180400  1
  C  1853  1  0.77946200  0.36109100  0.33680200  1
  C  1854  1  0.79931800  0.42342000  0.24500400  1
  C  1855  1  0.87441000  0.47345800  0.26958600  1
  C  1856  1  0.84260600  0.42421700  0.36373100  1
  C  1861  1  0.32801400  0.06761900  0.06457330  1
  C  1862  1  0.31904700  0.08331700  0.08042630  1
  C  1863  1  0.33115200  0.07919100  0.09853030  1
  C  1864  1  0.35244200  0.06019000  0.10058900  1
  C  1865  1  0.36185900  0.04471200  0.08506530  1
  C  1866  1  0.34915800  0.04792600  0.06701930  1
  C  1867  1  0.29783800  0.10242500  0.07768430  1
  C  1868  1  0.35681600  0.03190500  0.05121930  1
  C  1870  1  0.31599100  0.07183100  0.04628230  1
  C  1871  1  0.29584900  0.09249100  0.04362630  1
  C  1872  1  0.28553600  0.09814400  0.02511930  1
  C  1873  1  0.29379300  0.08158200  0.00983531  1
  C  1874  1  0.31279700  0.06038000  0.01236230  1
  C  1875  1  0.32448800  0.05571900  0.03051930  1
  C  1876  1  0.28666100  0.10700500  0.05972830  1
  C  1878  1  0.34463200  0.03554900  0.03344630  1
  C  1883  1  0.38468000  0.02871500  0.08822930  1
  C  1884  1  0.31941000  0.04511300  0.99663800  1
  C  1885  1  0.27057100  0.12129200  0.02061930  1
  C  1886  1  0.32179400  0.09211800  0.11464300  1
  C  1891  1  0.17028300  0.92410900  0.56444000  1
  C  1892  1  0.17920700  0.90838200  0.58029000  1
  C  1893  1  0.16712000  0.91253500  0.59839400  1
  C  1894  1  0.14589600  0.93160800  0.60046300  1
  C  1895  1  0.13653000  0.94713800  0.58494800  1
  C  1896  1  0.14920600  0.94387200  0.56689500  1
  C  1897  1  0.20034800  0.88919800  0.57754000  1
  C  1898  1  0.14159000  0.95991700  0.55109700  1
  C  1900  1  0.18227500  0.91985500  0.54614400  1
  C  1901  1  0.20235200  0.89913600  0.54348300  1
  C  1902  1  0.21265500  0.89345300  0.52497700  1
  C  1903  1  0.20437700  0.90999400  0.50968500  1
  C  1904  1  0.18543200  0.93125000  0.51221200  1
  C  1905  1  0.17380200  0.93597700  0.53038000  1
  C  1906  1  0.21151200  0.88459900  0.55958000  1
  C  1908  1  0.15372000  0.95620700  0.53331500  1
  C  1913  1  0.11369400  0.96313100  0.58809900  1
  C  1914  1  0.17881400  0.94652300  0.49648900  1
  C  1915  1  0.22748200  0.87022600  0.52045800  1
  C  1916  1  0.17646200  0.89959500  0.61450500  1
  C  1921  1  0.29589800  0.40420400  0.13319200  1
  C  1922  1  0.30421000  0.41591300  0.15049400  1
  C  1923  1  0.28837500  0.41302000  0.16715200  1
  C  1924  1  0.26384600  0.39752200  0.16619900  1
  C  1925  1  0.25634900  0.38462700  0.14903700  1
  C  1926  1  0.27235400  0.38777100  0.13267600  1
  C  1929  1  0.24404700  0.39857800  0.18082000  1
  C  1930  1  0.22725300  0.42197400  0.18130100  1
  C  1931  1  0.20863000  0.42586600  0.19611800  1
  C  1932  1  0.20593400  0.40612000  0.21043200  1
  C  1933  1  0.22244200  0.38253200  0.20989800  1
  C  1934  1  0.24184000  0.37839400  0.19526400  1
  C  1939  1  0.29775000  0.42762200  0.18451900  1
  C  1940  1  0.25995600  0.35388900  0.19516100  1
  C  1951  1  0.20240200  0.58719300  0.63310400  1
  C  1952  1  0.19398600  0.57560400  0.65042300  1
  C  1953  1  0.20978800  0.57850200  0.66709700  1
  C  1954  1  0.23435300  0.59393800  0.66614400  1
  C  1955  1  0.24196000  0.60673300  0.64897200  1
  C  1956  1  0.22601800  0.60352800  0.63258700  1
  C  1959  1  0.25410100  0.59289500  0.68080300  1
  C  1960  1  0.27084200  0.56946400  0.68135800  1
  C  1961  1  0.28938500  0.56557800  0.69622300  1
  C  1962  1  0.29208900  0.58538300  0.71049600  1
  C  1963  1  0.27562200  0.60899500  0.70989500  1
  C  1964  1  0.25630200  0.61313200  0.69521100  1
  C  1969  1  0.20032100  0.56399500  0.68447700  1
  C  1970  1  0.23825300  0.63768500  0.69502300  1
  C  1981  1  0.84457100  0.04344600  0.38354000  1
  C  1982  1  0.83247900  0.05122500  0.40083800  1
  C  1983  1  0.83539300  0.03510300  0.41736100  1
  C  1984  1  0.85120000  0.01078300  0.41624500  1
  C  1985  1  0.86446800  0.00384000  0.39911000  1
  C  1986  1  0.86129700  0.02012400  0.38288700  1
  C  1989  1  0.85001800  0.99060200  0.43060800  1
  C  1990  1  0.82672000  0.97365600  0.43066600  1
  C  1991  1  0.82257900  0.95475800  0.44527700  1
  C  1992  1  0.84204200  0.95184600  0.45975900  1
  C  1993  1  0.86551700  0.96852500  0.45965500  1
  C  1994  1  0.86988800  0.98821800  0.44524700  1
  C  1999  1  0.82037000  0.04388000  0.43470700  1
  C  2000  1  0.89426800  0.00649300  0.44559700  1
  C  2011  1  0.65367100  0.94817800  0.88326900  1
  C  2012  1  0.66563700  0.94026500  0.90057900  1
  C  2013  1  0.66264600  0.95629800  0.91713400  1
  C  2014  1  0.64685900  0.98063300  0.91605500  1
  C  2015  1  0.63371900  0.98770000  0.89889200  1
  C  2016  1  0.63695300  0.97150200  0.88263200  1
  C  2019  1  0.64799000  0.00075300  0.93045900  1
  C  2020  1  0.67131200  0.01766500  0.93061200  1
  C  2021  1  0.67543300  0.03644600  0.94529900  1
  C  2022  1  0.65595000  0.03925000  0.95977800  1
  C  2023  1  0.63242100  0.02264400  0.95955500  1
  C  2024  1  0.62807500  0.00305700  0.94507400  1
  C  2029  1  0.67754200  0.94739900  0.93450300  1
  C  2030  1  0.60367000  0.98481300  0.94531900  1
  C  2041  1  0.70145500  0.59124600  0.71646100  1
  C  2042  1  0.69353400  0.57924100  0.69916700  1
  C  2043  1  0.70951900  0.58226300  0.68259000  1
  C  2044  1  0.73381100  0.59812100  0.68363700  1
  C  2045  1  0.74087600  0.61130200  0.70078300  1
  C  2046  1  0.72471700  0.60805400  0.71706200  1
  C  2049  1  0.75395900  0.59690700  0.66925700  1
  C  2050  1  0.77090900  0.57360900  0.66921300  1
  C  2051  1  0.78980700  0.56945200  0.65460700  1
  C  2052  1  0.79263600  0.58885000  0.64007800  1
  C  2053  1  0.77601000  0.61236400  0.64018800  1
  C  2054  1  0.75632700  0.61675300  0.65460100  1
  C  2059  1  0.70064200  0.56730200  0.66524400  1
  C  2060  1  0.73805400  0.64113300  0.65424500  1
  C  2071  1  0.79653600  0.40038900  0.21656300  1
  C  2072  1  0.80457300  0.41227800  0.19925500  1
  C  2073  1  0.78862100  0.40927000  0.18266200  1
  C  2074  1  0.76428400  0.39348500  0.18370300  1
  C  2075  1  0.75709900  0.38039500  0.20085800  1
  C  2076  1  0.77319100  0.38369000  0.21716200  1
  C  2079  1  0.74418600  0.39471800  0.16928500  1
  C  2080  1  0.72730900  0.41806500  0.16917700  1
  C  2081  1  0.70849200  0.42224700  0.15452100  1
  C  2082  1  0.70563900  0.40279800  0.14002700  1
  C  2083  1  0.72220600  0.37924300  0.14019700  1
  C  2084  1  0.74180700  0.37482700  0.15465900  1
  C  2089  1  0.79760000  0.42414600  0.16530600  1
  C  2090  1  0.75999700  0.35038200  0.15437900  1
  C  2101  1  0.15519000  0.94985700  0.46832000  1
  C  2102  1  0.16658500  0.94102500  0.45103900  1
  C  2103  1  0.16393700  0.95668700  0.43428700  1
  C  2104  1  0.14909200  0.98162200  0.43516300  1
  C  2105  1  0.13650900  0.98967300  0.45231500  1
  C  2106  1  0.13942700  0.97383900  0.46877900  1
  C  2109  1  0.15072000  0.00121300  0.42044100  1
  C  2110  1  0.17443700  0.01755600  0.42004300  1
  C  2111  1  0.17905000  0.03570400  0.40504300  1
  C  2112  1  0.15969700  0.03842500  0.39047200  1
  C  2113  1  0.13581600  0.02233100  0.39091300  1
  C  2114  1  0.13093800  0.00341000  0.40573300  1
  C  2119  1  0.17829700  0.94678000  0.41696200  1
  C  2120  1  0.10608800  0.98577100  0.40577400  1
  C  2131  1  0.34335000  0.04164200  0.96862700  1
  C  2132  1  0.33198700  0.05061800  0.95137200  1
  C  2133  1  0.33454900  0.03501900  0.93458700  1
  C  2134  1  0.34930000  0.01002400  0.93539000  1
  C  2135  1  0.36183900  0.00182700  0.95252900  1
  C  2136  1  0.35902000  0.01760000  0.96903000  1
  C  2139  1  0.34758600  0.99050000  0.92063100  1
  C  2140  1  0.32380100  0.97425900  0.92019600  1
  C  2141  1  0.31907000  0.95626800  0.90512400  1
  C  2142  1  0.33835100  0.95362100  0.89050200  1
  C  2143  1  0.36232600  0.96957200  0.89099900  1
  C  2144  1  0.36731800  0.98835100  0.90588600  1
  C  2149  1  0.32023100  0.04507500  0.91728700  1
  C  2150  1  0.39224000  0.00589100  0.90596600  1
  C  2161  1  0.79450500  0.90550700  0.63145900  1
  C  2162  1  0.80354800  0.91672500  0.64873800  1
  C  2163  1  0.78796300  0.91415500  0.66553100  1
  C  2164  1  0.76294100  0.89945200  0.66472900  1
  C  2165  1  0.75464800  0.88706300  0.64756300  1
  C  2166  1  0.77040000  0.88991100  0.63105500  1
  C  2169  1  0.74358200  0.90084400  0.67960800  1
  C  2170  1  0.72716800  0.92449300  0.68029100  1
  C  2171  1  0.70920500  0.92881100  0.69544100  1
  C  2172  1  0.70683500  0.90927800  0.70992500  1
  C  2173  1  0.72296600  0.88543600  0.70918400  1
  C  2174  1  0.74168500  0.88084500  0.69419600  1
  C  2179  1  0.79814400  0.92829700  0.68286600  1
  C  2180  1  0.75938700  0.85604300  0.69384500  1
  C  2191  1  0.70336100  0.08584900  0.13181500  1
  C  2192  1  0.69423100  0.07473600  0.14910700  1
  C  2193  1  0.70978000  0.07731700  0.16591700  1
  C  2194  1  0.73481600  0.09199100  0.16512600  1
  C  2195  1  0.74317900  0.10433600  0.14796300  1
  C  2196  1  0.72749000  0.10142100  0.13143400  1
  C  2199  1  0.75416500  0.09056200  0.18001200  1
  C  2200  1  0.77049700  0.06685600  0.18071900  1
  C  2201  1  0.78850500  0.06254800  0.19584500  1
  C  2202  1  0.79103600  0.08216200  0.21026100  1
  C  2203  1  0.77496000  0.10604000  0.20950900  1
  C  2204  1  0.75620000  0.11062700  0.19454600  1
  C  2209  1  0.69953800  0.06323800  0.18325900  1
  C  2210  1  0.73859200  0.13549600  0.19416600  1
  C  2221  1  0.34089400  0.54286300  0.88316000  1
  C  2222  1  0.32912400  0.55103600  0.90047500  1
  C  2223  1  0.33199100  0.53508900  0.91708400  1
  C  2224  1  0.34747000  0.51055200  0.91604800  1
  C  2225  1  0.36040800  0.50317500  0.89887900  1
  C  2226  1  0.35726800  0.51928200  0.88256600  1
  C  2229  1  0.34646400  0.49071400  0.93064500  1
  C  2230  1  0.32307400  0.47391300  0.93113400  1
  C  2231  1  0.31915300  0.45536100  0.94599100  1
  C  2232  1  0.33890800  0.45266500  0.96030000  1
  C  2233  1  0.36246400  0.46921500  0.95977100  1
  C  2234  1  0.36662900  0.48855600  0.94510500  1
  C  2239  1  0.31734400  0.54434400  0.93446500  1
  C  2240  1  0.39112400  0.50668800  0.94499700  1
  C  2251  1  0.15737600  0.44877000  0.38303200  1
  C  2252  1  0.16910300  0.44053800  0.40034500  1
  C  2253  1  0.16620100  0.45644300  0.41697000  1
  C  2254  1  0.15069500  0.48096300  0.41596500  1
  C  2255  1  0.13779900  0.48838700  0.39878700  1
  C  2256  1  0.14096200  0.47232100  0.38245700  1
  C  2259  1  0.15171900  0.50080700  0.43055800  1
  C  2260  1  0.17510900  0.51760900  0.43103200  1
  C  2261  1  0.17905800  0.53614400  0.44589400  1
  C  2262  1  0.15934900  0.53880400  0.46023800  1
  C  2263  1  0.13576800  0.52228500  0.45970400  1
  C  2264  1  0.13158100  0.50294900  0.44503800  1
  C  2269  1  0.18081400  0.44714800  0.43435600  1
  C  2270  1  0.10708700  0.48481900  0.44494300  1
  C  2281  1  0.20272300  0.09024800  0.21818800  1
  C  2282  1  0.19395300  0.07872500  0.20093600  1
  C  2283  1  0.20965500  0.08129400  0.18419800  1
  C  2284  1  0.23454000  0.09622500  0.18504300  1
  C  2285  1  0.24252200  0.10892300  0.20217400  1
  C  2286  1  0.22664200  0.10611100  0.21862400  1
  C  2289  1  0.25420300  0.09452800  0.17037300  1
  C  2290  1  0.27058500  0.07083500  0.17007900  1
  C  2291  1  0.28884100  0.06618000  0.15515000  1
  C  2292  1  0.29155800  0.08543200  0.14051700  1
  C  2293  1  0.27547700  0.10932600  0.14087300  1
  C  2294  1  0.25645900  0.11424300  0.15562600  1
  C  2299  1  0.19982500  0.06681100  0.16690200  1
  C  2300  1  0.23878300  0.13906800  0.15555800  1
  C  2311  1  0.29560900  0.90122500  0.71797600  1
  C  2312  1  0.30447100  0.91263300  0.70070800  1
  C  2313  1  0.28878800  0.91006900  0.68396000  1
  C  2314  1  0.26387200  0.89519300  0.68480600  1
  C  2315  1  0.25581100  0.88255900  0.70194000  1
  C  2316  1  0.27164200  0.88543000  0.71840700  1
  C  2319  1  0.24420800  0.89697200  0.67013700  1
  C  2320  1  0.22791800  0.92072900  0.66985400  1
  C  2321  1  0.20966500  0.92545400  0.65493300  1
  C  2322  1  0.20682700  0.90619300  0.64031700  1
  C  2323  1  0.22283100  0.88224900  0.64065600  1
  C  2324  1  0.24184400  0.87725500  0.65540000  1
  C  2329  1  0.29867600  0.92449300  0.66666667  1
  C  2330  1  0.25941200  0.85235300  0.65532900  1
  C  2341  1  0.65902900  0.45058200  0.96845600  1
  C  2342  1  0.67013300  0.44148300  0.95115400  1
  C  2343  1  0.66751000  0.45704000  0.93435300  1
  C  2344  1  0.65291300  0.48212300  0.93518700  1
  C  2345  1  0.64062300  0.49047800  0.95236900  1
  C  2346  1  0.64354400  0.47475800  0.96888500  1
  C  2349  1  0.65427300  0.50142300  0.92026900  1
  C  2350  1  0.67797400  0.51775700  0.91949600  1
  C  2351  1  0.68232100  0.53556800  0.90426200  1
  C  2352  1  0.66273100  0.53794200  0.88981500  1
  C  2353  1  0.63886500  0.52185300  0.89063300  1
  C  2354  1  0.63424500  0.50327500  0.90569900  1
  C  2359  1  0.68154800  0.44679000  0.91699500  1
  C  2360  1  0.60939200  0.48564600  0.90614300  1
  C  2371  1  0.83906700  0.54099000  0.46857600  1
  C  2372  1  0.82797500  0.55011700  0.45127800  1
  C  2373  1  0.83060800  0.53457700  0.43447000  1
  C  2374  1  0.84523700  0.50951300  0.43528100  1
  C  2375  1  0.85751500  0.50114100  0.45246800  1
  C  2376  1  0.85459300  0.51684500  0.46899200  1
  C  2379  1  0.84385300  0.49019200  0.42037800  1
  C  2380  1  0.82015400  0.47385600  0.41963500  1
  C  2381  1  0.81576700  0.45605100  0.40440300  1
  C  2382  1  0.83530100  0.45371000  0.38991500  1
  C  2383  1  0.85918800  0.46977000  0.39072200  1
  C  2384  1  0.86384200  0.48835200  0.40578100  1
  C  2389  1  0.81657800  0.54483800  0.41711200  1
  C  2390  1  0.88869300  0.50598300  0.40619600  1
  C  2401  1  0.22158800  0.32188200  0.33556700  1
  C  2402  1  0.24706300  0.31020100  0.33094700  1
  C  2403  1  0.25090600  0.28155800  0.33073600  1
  C  2404  1  0.22835800  0.26445100  0.33522900  1
  C  2405  1  0.20322100  0.27628400  0.34052800  1
  C  2406  1  0.19989500  0.30464400  0.34066500  1
  C  2409  1  0.22840500  0.23575500  0.33262000  1
  C  2410  1  0.23224400  0.21909000  0.34875800  1
  C  2411  1  0.22792600  0.19083900  0.34771300  1
  C  2412  1  0.21942600  0.17878400  0.33052600  1
  C  2413  1  0.21613100  0.19533900  0.31434600  1
  C  2414  1  0.22072800  0.22381800  0.31495000  1
  C  2419  1  0.27820400  0.27098400  0.32512500  1
  C  2420  1  0.21582100  0.24100200  0.29771800  1
  C  2431  1  0.27679400  0.66987800  0.83571000  1
  C  2432  1  0.25132200  0.68156000  0.83108100  1
  C  2433  1  0.24748200  0.71020400  0.83086100  1
  C  2434  1  0.27002400  0.72730500  0.83538300  1
  C  2435  1  0.29515000  0.71547500  0.84070500  1
  C  2436  1  0.29848400  0.68711800  0.84081400  1
  C  2439  1  0.26998000  0.75600300  0.83277800  1
  C  2440  1  0.26606900  0.77266600  0.84890900  1
  C  2441  1  0.27041600  0.80091300  0.84787200  1
  C  2442  1  0.27889300  0.81298500  0.83068600  1
  C  2443  1  0.28227600  0.79642400  0.81452000  1
  C  2444  1  0.27769500  0.76794400  0.81511500  1
  C  2449  1  0.22020100  0.72078000  0.82521800  1
  C  2450  1  0.28264800  0.75076100  0.79788900  1
  C  2461  1  0.92312100  0.96798100  0.58451700  1
  C  2462  1  0.93483400  0.99362000  0.58041300  1
  C  2463  1  0.96347700  0.99747600  0.58041900  1
  C  2464  1  0.98054200  0.97477300  0.58461400  1
  C  2465  1  0.96866400  0.94946600  0.58944900  1
  C  2466  1  0.94030800  0.94611700  0.58933600  1
  C  2469  1  0.00926800  0.97493000  0.58216900  1
  C  2470  1  0.02573500  0.97834700  0.59845400  1
  C  2471  1  0.05399100  0.97399600  0.59752700  1
  C  2472  1  0.06626400  0.96596100  0.58030500  1
  C  2473  1  0.04990800  0.96310600  0.56399100  1
  C  2474  1  0.02142800  0.96771800  0.56447800  1
  C  2479  1  0.97410400  0.02494700  0.57528900  1
  C  2480  1  0.00445500  0.96330600  0.54708100  1
  C  2491  1  0.57522900  0.02341800  0.08510330  1
  C  2492  1  0.56349100  0.99785500  0.08080330  1
  C  2493  1  0.53484200  0.99404800  0.08073830  1
  C  2494  1  0.51779800  0.01670200  0.08509230  1
  C  2495  1  0.52970500  0.04191400  0.09013530  1
  C  2496  1  0.55806900  0.04521400  0.09010930  1
  C  2499  1  0.48908600  0.01665500  0.08254930  1
  C  2500  1  0.47251100  0.01310500  0.09876330  1
  C  2501  1  0.44426900  0.01751100  0.09776530  1
  C  2502  1  0.43211400  0.02572300  0.08054230  1
  C  2503  1  0.44859700  0.02875200  0.06430230  1
  C  2504  1  0.47706700  0.02409500  0.06485730  1
  C  2509  1  0.52418700  0.96666600  0.07540230  1
  C  2510  1  0.49416600  0.02869500  0.04754530  1
  C  2521  1  0.28414600  0.31127500  0.00869231  1
  C  2522  1  0.25781400  0.30258600  0.01413030  1
  C  2523  1  0.25119500  0.27454600  0.01567430  1
  C  2524  1  0.27177500  0.25492000  0.01162330  1
  C  2525  1  0.29769700  0.26371500  0.00536631  1
  C  2526  1  0.30380100  0.29154700  0.00397131  1
  C  2529  1  0.26939700  0.22688700  0.01634630  1
  C  2530  1  0.26308200  0.20820000  0.00171631  1
  C  2531  1  0.26483000  0.17998300  0.00490331  1
  C  2532  1  0.27329300  0.17008400  0.02273130  1
  C  2533  1  0.27914800  0.18867400  0.03740330  1
  C  2534  1  0.27702600  0.21716200  0.03467730  1
  C  2539  1  0.22329000  0.26725500  0.02229530  1
  C  2540  1  0.28447600  0.23636200  0.05037230  1
  C  2551  1  0.21398500  0.68021100  0.50867700  1
  C  2552  1  0.24028900  0.68895600  0.51414500  1
  C  2553  1  0.24684300  0.71701000  0.51570100  1
  C  2554  1  0.22623700  0.73658500  0.51159700  1
  C  2555  1  0.20035100  0.72774500  0.50530100  1
  C  2556  1  0.19430100  0.69989800  0.50393300  1
  C  2559  1  0.22855300  0.76463500  0.51629000  1
  C  2560  1  0.23495200  0.78328700  0.50165700  1
  C  2561  1  0.23312200  0.81150800  0.50480100  1
  C  2562  1  0.22462700  0.82145400  0.52260800  1
  C  2563  1  0.21867400  0.80289200  0.53727800  1
  C  2564  1  0.22082600  0.77439800  0.53459200  1
  C  2569  1  0.27470500  0.72436200  0.52237600  1
  C  2570  1  0.21332500  0.75522800  0.55029300  1
  C  2581  1  0.56534800  0.96185100  0.75910400  1
  C  2582  1  0.55610200  0.98805100  0.76441000  1
  C  2583  1  0.52792800  0.99411300  0.76586700  1
  C  2584  1  0.50874800  0.97310000  0.76185900  1
  C  2585  1  0.51808400  0.94732600  0.75568800  1
  C  2586  1  0.54604000  0.94177300  0.75440000  1
  C  2589  1  0.48062700  0.97503200  0.76641300  1
  C  2590  1  0.46203600  0.98118600  0.75169300  1
  C  2591  1  0.43380500  0.97912100  0.75473400  1
  C  2592  1  0.42379300  0.97057900  0.77251500  1
  C  2593  1  0.44229200  0.96488100  0.78727000  1
  C  2594  1  0.47078700  0.96728600  0.78468900  1
  C  2599  1  0.52005200  0.02191400  0.77238000  1
  C  2600  1  0.48990700  0.96008600  0.80048800  1
  C  2611  1  0.93278200  0.02950300  0.25919700  1
  C  2612  1  0.94196400  0.00327300  0.26448100  1
  C  2613  1  0.97012500  0.99715200  0.26593200  1
  C  2614  1  0.98935700  0.01811000  0.26190100  1
  C  2615  1  0.98006900  0.04391500  0.25575300  1
  C  2616  1  0.95212300  0.04952900  0.25446100  1
  C  2619  1  0.01746700  0.01615700  0.26649200  1
  C  2620  1  0.03608400  0.01006300  0.25177700  1
  C  2621  1  0.06430600  0.01214300  0.25484400  1
  C  2622  1  0.07428800  0.02063100  0.27264600  1
  C  2623  1  0.05575200  0.02630500  0.28738800  1
  C  2624  1  0.02726400  0.02388100  0.28478300  1
  C  2629  1  0.97795000  0.96932800  0.27242600  1
  C  2630  1  0.00811500  0.03106700  0.30056700  1
  C  2641  1  0.77577900  0.66902000  0.51477100  1
  C  2642  1  0.75036600  0.68097200  0.51921400  1
  C  2643  1  0.74678600  0.70965100  0.51928200  1
  C  2644  1  0.76953600  0.72651400  0.51483400  1
  C  2645  1  0.79461500  0.71440100  0.50970600  1
  C  2646  1  0.79767900  0.68601300  0.50970400  1
  C  2649  1  0.76975600  0.75523200  0.51733500  1
  C  2650  1  0.76649900  0.77179500  0.50108600  1
  C  2651  1  0.77130800  0.79997400  0.50202800  1
  C  2652  1  0.77972400  0.81205800  0.51922700  1
  C  2653  1  0.78239000  0.79562100  0.53552100  1
  C  2654  1  0.77730600  0.76722100  0.53501600  1
  C  2659  1  0.71952800  0.72053100  0.52470200  1
  C  2660  1  0.78163400  0.75013200  0.55236800  1
  C  2671  1  0.72211600  0.32250300  0.01458130  1
  C  2672  1  0.74749900  0.31049500  0.01903630  1
  C  2673  1  0.75101800  0.28180700  0.01909830  1
  C  2674  1  0.72824200  0.26500300  0.01460730  1
  C  2675  1  0.70320400  0.27716900  0.00945031  1
  C  2676  1  0.70019000  0.30556100  0.00948731  1
  C  2679  1  0.72794900  0.23628300  0.01710530  1
  C  2680  1  0.73119300  0.21971000  0.00085831  1
  C  2681  1  0.72626300  0.19155200  0.00179431  1
  C  2682  1  0.71785900  0.17947500  0.01899930  1
  C  2683  1  0.71519000  0.19592900  0.03528330  1
  C  2684  1  0.72035000  0.22431500  0.03478430  1
  C  2689  1  0.77823700  0.27086400  0.02455130  1
  C  2690  1  0.71605200  0.24141600  0.05213430  1
  C  2701  1  0.71513100  0.67931100  0.84042200  1
  C  2702  1  0.74137500  0.68859900  0.83526200  1
  C  2703  1  0.74741100  0.71678100  0.83383400  1
  C  2704  1  0.72631800  0.73592800  0.83771800  1
  C  2705  1  0.70048100  0.72655300  0.84372100  1
  C  2706  1  0.69496100  0.69858800  0.84498900  1
  C  2709  1  0.72830700  0.76408900  0.83329100  1
  C  2710  1  0.73418600  0.78254500  0.84814800  1
  C  2711  1  0.73202400  0.81079500  0.84524600  1
  C  2712  1  0.72367100  0.82096900  0.82746500  1
  C  2713  1  0.71827700  0.80260900  0.81257100  1
  C  2714  1  0.72078200  0.77409800  0.81501500  1
  C  2719  1  0.77528600  0.72470400  0.82750800  1
  C  2720  1  0.71387200  0.75511400  0.79907700  1
  C  2731  1  0.78288700  0.31232900  0.34054400  1
  C  2732  1  0.75663400  0.30302400  0.33541800  1
  C  2733  1  0.75061500  0.27483600  0.33401900  1
  C  2734  1  0.77170600  0.25570100  0.33793600  1
  C  2735  1  0.79755500  0.26510700  0.34389800  1
  C  2736  1  0.80306300  0.29307800  0.34514500  1
  C  2739  1  0.76975800  0.22753500  0.33350800  1
  C  2740  1  0.76398300  0.20907800  0.34838300  1
  C  2741  1  0.76618500  0.18083200  0.34548100  1
  C  2742  1  0.77447300  0.17065700  0.32768500  1
  C  2743  1  0.77980800  0.18903000  0.31278300  1
  C  2744  1  0.77725900  0.21753900  0.31522600  1
  C  2749  1  0.72273600  0.26688000  0.32772500  1
  C  2750  1  0.78411000  0.23652700  0.29927700  1
  C  2761  1  0.42283600  0.46777500  0.08546730  1
  C  2762  1  0.43448600  0.49334900  0.08108930  1
  C  2763  1  0.46312500  0.49723700  0.08095430  1
  C  2764  1  0.48025200  0.47463200  0.08527130  1
  C  2765  1  0.46843500  0.44938000  0.09032330  1
  C  2766  1  0.44008500  0.44600700  0.09038330  1
  C  2769  1  0.50895800  0.47472800  0.08270430  1
  C  2770  1  0.52555800  0.47794700  0.09893930  1
  C  2771  1  0.55375700  0.47328900  0.09793530  1
  C  2772  1  0.56582700  0.46506200  0.08068730  1
  C  2773  1  0.54935500  0.46246200  0.06440430  1
  C  2774  1  0.52093200  0.46739800  0.06497330  1
  C  2779  1  0.47368200  0.52464700  0.07560630  1
  C  2780  1  0.50380700  0.46310600  0.04763330  1
  C  2791  1  0.07535000  0.52378100  0.58529500  1
  C  2792  1  0.06369500  0.49819300  0.58096100  1
  C  2793  1  0.03505500  0.49431300  0.58083600  1
  C  2794  1  0.01794000  0.51693000  0.58514500  1
  C  2795  1  0.02975800  0.54219300  0.59016500  1
  C  2796  1  0.05810800  0.54556900  0.59017700  1
  C  2799  1  0.98922700  0.51683400  0.58260400  1
  C  2800  1  0.97265800  0.51361900  0.59885600  1
  C  2801  1  0.94447300  0.51836500  0.59788500  1
  C  2802  1  0.93236000  0.52654200  0.58064000  1
  C  2803  1  0.94880500  0.52914300  0.56434600  1
  C  2804  1  0.97722200  0.52416600  0.56488300  1
  C  2809  1  0.02448400  0.46689600  0.57551300  1
  C  2810  1  0.99431500  0.52842100  0.54752300  1
  C  2821  1  0.06450300  0.46042700  0.25913700  1
  C  2822  1  0.05577000  0.48685000  0.26432300  1
  C  2823  1  0.02771800  0.49347100  0.26576100  1
  C  2824  1  0.00813700  0.47278800  0.26186600  1
  C  2825  1  0.01697100  0.44677500  0.25582700  1
  C  2826  1  0.04481100  0.44067200  0.25454900  1
  C  2829  1  0.98004200  0.47529200  0.26637000  1
  C  2830  1  0.96158600  0.48124000  0.25152500  1
  C  2831  1  0.93332600  0.47932500  0.25447500  1
  C  2832  1  0.92314600  0.47115500  0.27229400  1
  C  2833  1  0.94150600  0.46574100  0.28718600  1
  C  2834  1  0.97002900  0.46798500  0.28468900  1
  C  2839  1  0.02037500  0.52148900  0.27211500  1
  C  2840  1  0.98899600  0.46095400  0.30061100  1
  C  2851  1  0.43357500  0.53109500  0.75910200  1
  C  2852  1  0.44227000  0.50463800  0.76424100  1
  C  2853  1  0.47031600  0.49797700  0.76563800  1
  C  2854  1  0.48993000  0.51861900  0.76171100  1
  C  2855  1  0.48111400  0.54466600  0.75572100  1
  C  2856  1  0.45327800  0.55081400  0.75447600  1
  C  2859  1  0.51802000  0.51610300  0.76622900  1
  C  2860  1  0.53648100  0.51022600  0.75137500  1
  C  2861  1  0.56473600  0.51213100  0.75433800  1
  C  2862  1  0.57491500  0.52021300  0.77217800  1
  C  2863  1  0.55653900  0.52560300  0.78706700  1
  C  2864  1  0.52801600  0.52336300  0.78456000  1
  C  2869  1  0.47763800  0.46993500  0.77195400  1
  C  2870  1  0.50904200  0.53037100  0.80048400  1
  N  509  1  0.30916400  0.41091900  0.69164800  1
  N  510  1  0.19078300  0.41259600  0.79935500  1
  N  539  1  0.18914500  0.58047000  0.19155900  1
  N  540  1  0.30717700  0.57894400  0.29945600  1
  N  569  1  0.83749600  0.05650600  0.94199600  1
  N  570  1  0.83516200  0.93665400  0.04856400  1
  N  599  1  0.66078100  0.93517500  0.44171200  1
  N  600  1  0.66276400  0.05431200  0.54866000  1
  N  629  1  0.68859900  0.58404700  0.30628600  1
  N  630  1  0.80786000  0.58198400  0.19951700  1
  N  659  1  0.80938800  0.40758900  0.80639000  1
  N  660  1  0.69048800  0.40965500  0.69942900  1
  N  689  1  0.16210900  0.93704100  0.05820700  1
  N  690  1  0.16684400  0.05308700  0.94968900  1
  N  719  1  0.33651300  0.05440100  0.55855000  1
  N  720  1  0.33114400  0.93912800  0.44965100  1
  N  749  1  0.80772800  0.91194000  0.18986000  1
  N  750  1  0.69218300  0.91606000  0.29903600  1
  N  779  1  0.69012300  0.07937100  0.69022400  1
  N  780  1  0.80579200  0.07543700  0.79933300  1
  N  809  1  0.33418000  0.55617800  0.44164100  1
  N  810  1  0.33234200  0.43769100  0.54928900  1
  N  839  1  0.16411300  0.43549800  0.94150000  1
  N  840  1  0.16590600  0.55377700  0.04922800  1
  N  869  1  0.18989600  0.08342800  0.80809200  1
  N  870  1  0.30633400  0.07826900  0.69979100  1
  N  899  1  0.30842000  0.90812100  0.30787400  1
  N  900  1  0.19202800  0.91339300  0.19961100  1
  N  929  1  0.66557400  0.43739800  0.55827600  1
  N  930  1  0.66958000  0.55235300  0.44884100  1
  N  959  1  0.83252100  0.55415200  0.05840600  1
  N  960  1  0.82844400  0.43929100  0.94894600  1
  N  989  1  0.21528600  0.34789000  0.90740700  1
  N  990  1  0.21048400  0.15337300  0.90345400  1
  N  1019  1  0.28309900  0.64387200  0.40754700  1
  N  1020  1  0.28775500  0.83842300  0.40360800  1
  N  1049  1  0.89715800  0.96178000  0.15604200  1
  N  1050  1  0.09171700  0.95713000  0.15327900  1
  N  1079  1  0.60122300  0.02962700  0.65674700  1
  N  1080  1  0.40672100  0.03472300  0.65348900  1
  N  1109  1  0.29304700  0.33669700  0.58406100  1
  N  1110  1  0.28025400  0.14444700  0.59980000  1
  N  1139  1  0.20513700  0.65477400  0.08403400  1
  N  1140  1  0.21771900  0.84711200  0.09965000  1
  N  1169  1  0.59095300  0.95351700  0.33450500  1
  N  1170  1  0.39812500  0.96368100  0.34952400  1
  N  1199  1  0.90718400  0.03788400  0.83455800  1
  N  1200  1  0.09990100  0.02774300  0.84963500  1
  N  1229  1  0.78185400  0.64299700  0.09135500  1
  N  1230  1  0.78920400  0.83728600  0.09446700  1
  N  1259  1  0.71608500  0.34853200  0.59118500  1
  N  1260  1  0.70840000  0.15424500  0.59425800  1
  N  1289  1  0.70687600  0.65367100  0.41331200  1
  N  1290  1  0.71653700  0.84661300  0.39884500  1
  N  1319  1  0.79111400  0.33797800  0.91345100  1
  N  1320  1  0.78176600  0.14505700  0.89907400  1
  N  1349  1  0.39686400  0.46146200  0.65716600  1
  N  1350  1  0.59106500  0.45563000  0.65362400  1
  N  1379  1  0.10131500  0.53008200  0.15696300  1
  N  1380  1  0.90712500  0.53599200  0.15360400  1
  N  1409  1  0.08994800  0.45161700  0.83452300  1
  N  1410  1  0.89749800  0.46406400  0.84916200  1
  N  1439  1  0.40813700  0.53993300  0.33449500  1
  N  1440  1  0.60052400  0.52744900  0.34904200  1
  N  1949  1  0.30916400  0.41091900  0.11753300  1
  N  1950  1  0.19078300  0.41259600  0.22524000  1
  N  1979  1  0.18914500  0.58047000  0.61744400  1
  N  1980  1  0.30717700  0.57894400  0.72534100  1
  N  2009  1  0.83749600  0.05650600  0.36788100  1
  N  2010  1  0.83516200  0.93665400  0.47444900  1
  N  2039  1  0.66078100  0.93517500  0.86759700  1
  N  2040  1  0.66276400  0.05431200  0.97454500  1
  N  2069  1  0.68859900  0.58404700  0.73217100  1
  N  2070  1  0.80786000  0.58198400  0.62540200  1
  N  2099  1  0.80938800  0.40758900  0.23227500  1
  N  2100  1  0.69048800  0.40965500  0.12531400  1
  N  2129  1  0.16210900  0.93704100  0.48409200  1
  N  2130  1  0.16684400  0.05308700  0.37557400  1
  N  2159  1  0.33651300  0.05440100  0.98443500  1
  N  2160  1  0.33114400  0.93912800  0.87553600  1
  N  2189  1  0.80772800  0.91194000  0.61574500  1
  N  2190  1  0.69218300  0.91606000  0.72492100  1
  N  2219  1  0.69012300  0.07937100  0.11610900  1
  N  2220  1  0.80579200  0.07543700  0.22521800  1
  N  2249  1  0.33418000  0.55617800  0.86752600  1
  N  2250  1  0.33234200  0.43769100  0.97517400  1
  N  2279  1  0.16411300  0.43549800  0.36738500  1
  N  2280  1  0.16590600  0.55377700  0.47511300  1
  N  2309  1  0.18989600  0.08342800  0.23397700  1
  N  2310  1  0.30633400  0.07826900  0.12567600  1
  N  2339  1  0.30842000  0.90812100  0.73375900  1
  N  2340  1  0.19202800  0.91339300  0.62549600  1
  N  2369  1  0.66557400  0.43739800  0.98416100  1
  N  2370  1  0.66958000  0.55235300  0.87472600  1
  N  2399  1  0.83252100  0.55415200  0.48429100  1
  N  2400  1  0.82844400  0.43929100  0.37483100  1
  N  2429  1  0.21528600  0.34789000  0.33329200  1
  N  2430  1  0.21048400  0.15337300  0.32933900  1
  N  2459  1  0.28309900  0.64387200  0.83343200  1
  N  2460  1  0.28775500  0.83842300  0.82949300  1
  N  2489  1  0.89715800  0.96178000  0.58192700  1
  N  2490  1  0.09171700  0.95713000  0.57916400  1
  N  2519  1  0.60122300  0.02962700  0.08263230  1
  N  2520  1  0.40672100  0.03472300  0.07937430  1
  N  2549  1  0.29304700  0.33669700  0.00994631  1
  N  2550  1  0.28025400  0.14444700  0.02568530  1
  N  2579  1  0.20513700  0.65477400  0.50991900  1
  N  2580  1  0.21771900  0.84711200  0.52553500  1
  N  2609  1  0.59095300  0.95351700  0.76039000  1
  N  2610  1  0.39812500  0.96368100  0.77540900  1
  N  2639  1  0.90718400  0.03788400  0.26044300  1
  N  2640  1  0.09990100  0.02774300  0.27552000  1
  N  2669  1  0.78185400  0.64299700  0.51724000  1
  N  2670  1  0.78920400  0.83728600  0.52035200  1
  N  2699  1  0.71608500  0.34853200  0.01707030  1
  N  2700  1  0.70840000  0.15424500  0.02014330  1
  N  2729  1  0.70687600  0.65367100  0.83919700  1
  N  2730  1  0.71653700  0.84661300  0.82473000  1
  N  2759  1  0.79111400  0.33797800  0.33933600  1
  N  2760  1  0.78176600  0.14505700  0.32495900  1
  N  2789  1  0.39686400  0.46146200  0.08305130  1
  N  2790  1  0.59106500  0.45563000  0.07950930  1
  N  2819  1  0.10131500  0.53008200  0.58284800  1
  N  2820  1  0.90712500  0.53599200  0.57948900  1
  N  2849  1  0.08994800  0.45161700  0.26040800  1
  N  2850  1  0.89749800  0.46406400  0.27504700  1
  N  2879  1  0.40813700  0.53993300  0.76038000  1
  N  2880  1  0.60052400  0.52744900  0.77492700  1
  O  501  1  0.25729600  0.33545300  0.78496300  1
  O  505  1  0.29493800  0.45636100  0.75577100  1
  O  531  1  0.24089400  0.65617400  0.28479500  1
  O  535  1  0.20305100  0.53523600  0.25578300  1
  O  561  1  0.91237200  0.00361300  0.03556700  1
  O  565  1  0.79172700  0.04063100  0.00572500  1
  O  591  1  0.58550600  0.98761500  0.53526400  1
  O  595  1  0.70620900  0.95062100  0.50561800  1
  O  621  1  0.74092100  0.65921800  0.21249300  1
  O  625  1  0.70398800  0.53865300  0.24237600  1
  O  651  1  0.75713200  0.33225800  0.71264900  1
  O  655  1  0.79434600  0.45281500  0.74239100  1
  O  681  1  0.08802500  0.98845000  0.96399500  1
  O  685  1  0.20709600  0.94903800  0.99388500  1
  O  711  1  0.41025800  0.00325800  0.46415700  1
  O  715  1  0.29142300  0.04294300  0.49421300  1
  O  741  1  0.75700700  0.83774000  0.28374300  1
  O  745  1  0.79623700  0.95713600  0.25424100  1
  O  771  1  0.74108600  0.15385400  0.78402600  1
  O  775  1  0.70142700  0.03439000  0.75468100  1
  O  801  1  0.40954900  0.50406600  0.53480900  1
  O  805  1  0.28861300  0.54154000  0.50567500  1
  O  831  1  0.08868400  0.48743500  0.03476800  1
  O  835  1  0.20954900  0.44996900  0.00559900  1
  O  861  1  0.24152400  0.15705400  0.71374200  1
  O  865  1  0.20213300  0.03803400  0.74391400  1
  O  891  1  0.25657500  0.83437400  0.21351800  1
  O  895  1  0.29641600  0.95328000  0.24363400  1
  O  921  1  0.59104600  0.48797900  0.46449500  1
  O  925  1  0.71040300  0.44864000  0.49377900  1
  O  951  1  0.90700200  0.50365000  0.96452700  1
  O  955  1  0.78772300  0.54297500  0.99388600  1
  O  981  1  0.20989400  0.22687400  0.85449700  1
  O  985  1  0.29809300  0.27988900  0.91275400  1
  O  1011  1  0.28862100  0.76488900  0.35467600  1
  O  1015  1  0.20027600  0.71187700  0.41282200  1
  O  1041  1  0.01879500  0.95785900  0.10386800  1
  O  1045  1  0.96505700  0.04439800  0.16317800  1
  O  1071  1  0.47995500  0.03439000  0.60431900  1
  O  1075  1  0.53317300  0.94700400  0.66316200  1
  O  1101  1  0.29015000  0.22450000  0.64267000  1
  O  1105  1  0.20367700  0.27704500  0.58299800  1
  O  1131  1  0.20755200  0.76712900  0.14256400  1
  O  1135  1  0.29439200  0.71461300  0.08311700  1
  O  1161  1  0.47791900  0.95429700  0.39272800  1
  O  1165  1  0.52947100  0.04162000  0.33302000  1
  O  1191  1  0.02007100  0.03684000  0.89281900  1
  O  1195  1  0.96847000  0.94965500  0.83306500  1
  O  1221  1  0.78748400  0.76433300  0.14380200  1
  O  1225  1  0.69969900  0.71168300  0.08524200  1
  O  1251  1  0.71013000  0.22723100  0.64356300  1
  O  1255  1  0.79812800  0.27969000  0.58512800  1
  O  1281  1  0.70831200  0.76727000  0.35508600  1
  O  1285  1  0.79481600  0.71534700  0.41524300  1
  O  1311  1  0.78965300  0.22437200  0.85528300  1
  O  1315  1  0.70321800  0.27627200  0.91545700  1
  O  1341  1  0.51798800  0.45751000  0.60437900  1
  O  1345  1  0.46468600  0.54428300  0.66338200  1
  O  1371  1  0.98010600  0.53401700  0.10428200  1
  O  1375  1  0.03348500  0.44728100  0.16330300  1
  O  1401  1  0.97685100  0.45560700  0.89286500  1
  O  1405  1  0.03016400  0.54085600  0.83264600  1
  O  1431  1  0.52117900  0.53568200  0.39274600  1
  O  1435  1  0.46776500  0.45060600  0.33248500  1
  O  1941  1  0.25729600  0.33545300  0.21084800  1
  O  1945  1  0.29493800  0.45636100  0.18165600  1
  O  1971  1  0.24089400  0.65617400  0.71068000  1
  O  1975  1  0.20305100  0.53523600  0.68166800  1
  O  2001  1  0.91237200  0.00361300  0.46145200  1
  O  2005  1  0.79172700  0.04063100  0.43161000  1
  O  2031  1  0.58550600  0.98761500  0.96114900  1
  O  2035  1  0.70620900  0.95062100  0.93150300  1
  O  2061  1  0.74092100  0.65921800  0.63837800  1
  O  2065  1  0.70398800  0.53865300  0.66826100  1
  O  2091  1  0.75713200  0.33225800  0.13853400  1
  O  2095  1  0.79434600  0.45281500  0.16827600  1
  O  2121  1  0.08802500  0.98845000  0.38988000  1
  O  2125  1  0.20709600  0.94903800  0.41977000  1
  O  2151  1  0.41025800  0.00325800  0.89004200  1
  O  2155  1  0.29142300  0.04294300  0.92009800  1
  O  2181  1  0.75700700  0.83774000  0.70962800  1
  O  2185  1  0.79623700  0.95713600  0.68012600  1
  O  2211  1  0.74108600  0.15385400  0.20991100  1
  O  2215  1  0.70142700  0.03439000  0.18056600  1
  O  2241  1  0.40954900  0.50406600  0.96069400  1
  O  2245  1  0.28861300  0.54154000  0.93156000  1
  O  2271  1  0.08868400  0.48743500  0.46065300  1
  O  2275  1  0.20954900  0.44996900  0.43148400  1
  O  2301  1  0.24152400  0.15705400  0.13962700  1
  O  2305  1  0.20213300  0.03803400  0.16979900  1
  O  2331  1  0.25657500  0.83437400  0.63940300  1
  O  2335  1  0.29641600  0.95328000  0.66951900  1
  O  2361  1  0.59104600  0.48797900  0.89038000  1
  O  2365  1  0.71040300  0.44864000  0.91966400  1
  O  2391  1  0.90700200  0.50365000  0.39041200  1
  O  2395  1  0.78772300  0.54297500  0.41977100  1
  O  2421  1  0.20989400  0.22687400  0.28038200  1
  O  2425  1  0.29809300  0.27988900  0.33863900  1
  O  2451  1  0.28862100  0.76488900  0.78056100  1
  O  2455  1  0.20027600  0.71187700  0.83870700  1
  O  2481  1  0.01879500  0.95785900  0.52975300  1
  O  2485  1  0.96505700  0.04439800  0.58906300  1
  O  2511  1  0.47995500  0.03439000  0.03020430  1
  O  2515  1  0.53317300  0.94700400  0.08904730  1
  O  2541  1  0.29015000  0.22450000  0.06855530  1
  O  2545  1  0.20367700  0.27704500  0.00888331  1
  O  2571  1  0.20755200  0.76712900  0.56844900  1
  O  2575  1  0.29439200  0.71461300  0.50900200  1
  O  2601  1  0.47791900  0.95429700  0.81861300  1
  O  2605  1  0.52947100  0.04162000  0.75890500  1
  O  2631  1  0.02007100  0.03684000  0.31870400  1
  O  2635  1  0.96847000  0.94965500  0.25895000  1
  O  2661  1  0.78748400  0.76433300  0.56968700  1
  O  2665  1  0.69969900  0.71168300  0.51112700  1
  O  2691  1  0.71013000  0.22723100  0.06944830  1
  O  2695  1  0.79812800  0.27969000  0.01101330  1
  O  2721  1  0.70831200  0.76727000  0.78097100  1
  O  2725  1  0.79481600  0.71534700  0.84112800  1
  O  2751  1  0.78965300  0.22437200  0.28116800  1
  O  2755  1  0.70321800  0.27627200  0.34134200  1
  O  2781  1  0.51798800  0.45751000  0.03026430  1
  O  2785  1  0.46468600  0.54428300  0.08926730  1
  O  2811  1  0.98010600  0.53401700  0.53016700  1
  O  2815  1  0.03348500  0.44728100  0.58918800  1
  O  2841  1  0.97685100  0.45560700  0.31875000  1
  O  2845  1  0.03016400  0.54085600  0.25853100  1
  O  2871  1  0.52117900  0.53568200  0.81863100  1
  O  2875  1  0.46776500  0.45060600  0.75837000  1
