# generated using pymatgen
data_H25C42(N3O2)2
_symmetry_space_group_name_H-M   'P 1'
_cell_length_a   34.19880000
_cell_length_b   34.19880000
_cell_length_c   68.39370000
_cell_angle_alpha   90.04950000
_cell_angle_beta   89.95050000
_cell_angle_gamma   90.00000000
_symmetry_Int_Tables_number   1
_chemical_formula_structural   H25C42(N3O2)2
_chemical_formula_sum   'H400 C672 N96 O64'
_cell_volume   79990.33390765
_cell_formula_units_Z   16
loop_
 _symmetry_equiv_pos_site_id
 _symmetry_equiv_pos_as_xyz
  1  'x, y, z'
loop_
 _atom_site_type_symbol
 _atom_site_label
 _atom_site_symmetry_multiplicity
 _atom_site_fract_x
 _atom_site_fract_y
 _atom_site_fract_z
 _atom_site_occupancy
  H  73  1  0.03577400  0.01623300  0.81498100  1
  H  74  1  0.03728400  0.01496300  0.84968300  1
  H  75  1  0.93685500  0.94256200  0.81519600  1
  H  76  1  0.93770200  0.94197100  0.85011300  1
  H  77  1  0.97765100  0.91737500  0.87824200  1
  H  78  1  0.97852100  0.91737000  0.91319900  1
  H  79  1  0.99910200  0.03903900  0.87827900  1
  H  80  1  0.00047500  0.03874300  0.91320100  1
  H  81  1  0.06830800  0.97740700  0.92315200  1
  H  82  1  0.12110400  0.97785600  0.94907200  1
  H  83  1  0.01512000  0.97889400  0.97659500  1
  H  84  1  0.96690200  0.97746700  0.00097700  1
  H  85  1  0.91073000  0.97698100  0.92323500  1
  H  86  1  0.85858100  0.97657200  0.94963600  1
  H  87  1  0.83974300  0.91975200  0.99841300  1
  H  88  1  0.76978200  0.91962800  0.99919500  1
  H  89  1  0.83887900  0.03774800  0.98049800  1
  H  90  1  0.76895800  0.03769100  0.98115600  1
  H  91  1  0.86104300  0.98282800  0.02850200  1
  H  92  1  0.91379900  0.98313500  0.05437200  1
  H  93  1  0.12353200  0.97888400  0.02789200  1
  H  94  1  0.07132900  0.98016200  0.05435300  1
  H  95  1  0.98356100  0.04279300  0.06359500  1
  H  96  1  0.98297600  0.04460500  0.09853000  1
  H  97  1  0.00049000  0.92066500  0.06508800  1
  H  98  1  0.99927700  0.92218000  0.10001600  1
  H  99  1  0.03857500  0.94601100  0.12824500  1
  H  100  1  0.03795600  0.94752000  0.16299700  1
  H  101  1  0.94264600  0.02572200  0.16198500  1
  H  102  1  0.94271900  0.02381100  0.12708100  1
  H  103  1  0.14210600  0.91708300  0.98416800  1
  H  104  1  0.21200300  0.91655400  0.98399800  1
  H  105  1  0.26898300  0.01721100  0.01158500  1
  H  106  1  0.33839500  0.01752400  0.01169300  1
  H  107  1  0.33956100  0.93747700  0.96477100  1
  H  108  1  0.26972300  0.93752700  0.96440400  1
  H  109  1  0.21273500  0.03913900  0.99163700  1
  H  110  1  0.14289800  0.03935900  0.99217700  1
  H  111  1  0.71171500  0.00523700  0.96297800  1
  H  112  1  0.64181800  0.00697600  0.96433600  1
  H  113  1  0.71441800  0.95305900  0.01890300  1
  H  114  1  0.64445200  0.95471600  0.02008900  1
  H  191  1  0.02255500  0.93634800  0.31535600  1
  H  192  1  0.02092700  0.93616300  0.35026500  1
  H  193  1  0.95015000  0.03619100  0.31479100  1
  H  194  1  0.94920300  0.03665800  0.34952000  1
  H  195  1  0.92292800  0.99784500  0.37746400  1
  H  196  1  0.92127600  0.99853700  0.41239700  1
  H  197  1  0.04433500  0.97521400  0.37901200  1
  H  198  1  0.04239400  0.97543800  0.41395000  1
  H  199  1  0.97967600  0.90866900  0.42315800  1
  H  200  1  0.97902800  0.85593600  0.44909200  1
  H  201  1  0.98017100  0.96196400  0.47658100  1
  H  202  1  0.97761500  0.01020500  0.50093600  1
  H  203  1  0.97964500  0.06624500  0.42316400  1
  H  204  1  0.97810700  0.11844200  0.44954400  1
  H  205  1  0.92007300  0.13729000  0.49825100  1
  H  206  1  0.91985300  0.20725300  0.49906000  1
  H  207  1  0.03826700  0.13832900  0.48057400  1
  H  208  1  0.03810500  0.20824800  0.48124400  1
  H  209  1  0.98277400  0.11606900  0.52845500  1
  H  210  1  0.98271400  0.06332300  0.55433700  1
  H  211  1  0.97870300  0.85358400  0.52788700  1
  H  212  1  0.97960100  0.90579800  0.55434300  1
  H  213  1  0.04218200  0.99335100  0.56372500  1
  H  214  1  0.04363700  0.99314800  0.59866300  1
  H  215  1  0.92002500  0.97650100  0.56491700  1
  H  216  1  0.92118300  0.97693300  0.59985200  1
  H  217  1  0.94470300  0.93671000  0.62776500  1
  H  218  1  0.94602100  0.93601700  0.66251500  1
  H  219  1  0.02442000  0.03118700  0.66244100  1
  H  220  1  0.02270000  0.03243600  0.62754000  1
  H  221  1  0.91748600  0.83510100  0.48414100  1
  H  222  1  0.91686200  0.76520200  0.48395200  1
  H  223  1  0.01733300  0.70811400  0.51156700  1
  H  224  1  0.01755800  0.63870200  0.51168700  1
  H  225  1  0.93771100  0.63760600  0.46474800  1
  H  226  1  0.93784700  0.70744200  0.46437100  1
  H  227  1  0.03941800  0.76429600  0.49161200  1
  H  228  1  0.03973000  0.83413300  0.49217500  1
  H  229  1  0.00568000  0.26545000  0.46297800  1
  H  230  1  0.00733200  0.33535200  0.46434300  1
  H  231  1  0.95306100  0.26266900  0.51884300  1
  H  232  1  0.95465000  0.33264100  0.52004000  1
  H  247  1  0.08604300  0.96635100  0.22031900  1
  H  250  1  0.89275600  0.00828500  0.25776600  1
  H  252  1  0.01961500  0.94591700  0.19598400  1
  H  254  1  0.95999500  0.02921800  0.28148300  1
  H  265  1  0.96534500  0.88530000  0.71911600  1
  H  268  1  0.00627900  0.07681800  0.75928000  1
  H  270  1  0.94397800  0.95345800  0.69565700  1
  H  272  1  0.02799200  0.00845000  0.78165800  1
  H  283  1  0.46353600  0.05577400  0.02552900  1
  H  286  1  0.54706900  0.89751800  0.99970400  1
  H  288  1  0.40372900  0.02155800  0.00265000  1
  H  290  1  0.57847300  0.96282000  0.96822000  1
  H  301  1  0.05584800  0.51466900  0.52540200  1
  H  304  1  0.89756600  0.43015600  0.49972100  1
  H  306  1  0.02177300  0.57343500  0.50252200  1
  H  308  1  0.96291800  0.39865900  0.46822200  1
  H  381  1  0.80184800  0.78230700  0.75649600  1
  H  382  1  0.80335800  0.78103700  0.79119800  1
  H  383  1  0.70292900  0.70863600  0.75671100  1
  H  384  1  0.70377600  0.70804500  0.79162800  1
  H  385  1  0.74372500  0.68344900  0.81975700  1
  H  386  1  0.74459500  0.68344400  0.85471400  1
  H  387  1  0.76517600  0.80511300  0.81979400  1
  H  388  1  0.76654900  0.80481700  0.85471600  1
  H  389  1  0.83438200  0.74348100  0.86466700  1
  H  390  1  0.88717800  0.74393000  0.89058700  1
  H  391  1  0.78119400  0.74496800  0.91811010  1
  H  392  1  0.73297600  0.74354100  0.94249210  1
  H  393  1  0.67680400  0.74305500  0.86475000  1
  H  394  1  0.62465500  0.74264600  0.89115100  1
  H  395  1  0.60581700  0.68582600  0.93992810  1
  H  396  1  0.53585600  0.68570200  0.94071010  1
  H  397  1  0.60495300  0.80382200  0.92201310  1
  H  398  1  0.53503200  0.80376500  0.92267110  1
  H  399  1  0.62711700  0.74890200  0.97001710  1
  H  400  1  0.67987300  0.74920900  0.99588708  1
  H  401  1  0.88960600  0.74495800  0.96940710  1
  H  402  1  0.83740300  0.74623600  0.99586808  1
  H  403  1  0.74963500  0.80886700  0.00511000  1
  H  404  1  0.74905000  0.81067900  0.04004500  1
  H  405  1  0.76656400  0.68673900  0.00660300  1
  H  406  1  0.76535100  0.68825400  0.04153100  1
  H  407  1  0.80464900  0.71208500  0.06976000  1
  H  408  1  0.80403000  0.71359400  0.10451200  1
  H  409  1  0.70872000  0.79179600  0.10350000  1
  H  410  1  0.70879300  0.78988500  0.06859600  1
  H  411  1  0.90817970  0.68315700  0.92568310  1
  H  412  1  0.97807670  0.68262800  0.92551310  1
  H  413  1  0.03505700  0.78328500  0.95310010  1
  H  414  1  0.10446900  0.78359800  0.95320810  1
  H  415  1  0.10563500  0.70355100  0.90628610  1
  H  416  1  0.03579700  0.70360100  0.90591910  1
  H  417  1  0.97880870  0.80521300  0.93315210  1
  H  418  1  0.90897170  0.80543300  0.93369210  1
  H  419  1  0.47778900  0.77131100  0.90449310  1
  H  420  1  0.40789200  0.77305000  0.90585110  1
  H  421  1  0.48049200  0.71913300  0.96041810  1
  H  422  1  0.41052600  0.72079000  0.96160410  1
  H  499  1  0.78862900  0.70242200  0.25687100  1
  H  500  1  0.78700100  0.70223700  0.29178000  1
  H  501  1  0.71622400  0.80226500  0.25630600  1
  H  502  1  0.71527700  0.80273200  0.29103500  1
  H  503  1  0.68900200  0.76391900  0.31897900  1
  H  504  1  0.68735000  0.76461100  0.35391200  1
  H  505  1  0.81040900  0.74128800  0.32052700  1
  H  506  1  0.80846800  0.74151200  0.35546500  1
  H  507  1  0.74575000  0.67474300  0.36467300  1
  H  508  1  0.74510200  0.62201000  0.39060700  1
  H  509  1  0.74624500  0.72803800  0.41809600  1
  H  510  1  0.74368900  0.77627900  0.44245100  1
  H  511  1  0.74571900  0.83231900  0.36467900  1
  H  512  1  0.74418100  0.88451600  0.39105900  1
  H  513  1  0.68614700  0.90336370  0.43976600  1
  H  514  1  0.68592700  0.97332670  0.44057500  1
  H  515  1  0.80434100  0.90440270  0.42208900  1
  H  516  1  0.80417900  0.97432170  0.42275900  1
  H  517  1  0.74884800  0.88214300  0.46997000  1
  H  518  1  0.74878800  0.82939700  0.49585200  1
  H  519  1  0.74477700  0.61965800  0.46940200  1
  H  520  1  0.74567500  0.67187200  0.49585800  1
  H  521  1  0.80825600  0.75942500  0.50524000  1
  H  522  1  0.80971100  0.75922200  0.54017800  1
  H  523  1  0.68609900  0.74257500  0.50643200  1
  H  524  1  0.68725700  0.74300700  0.54136700  1
  H  525  1  0.71077700  0.70278400  0.56928000  1
  H  526  1  0.71209500  0.70209100  0.60403000  1
  H  527  1  0.79049400  0.79726100  0.60395600  1
  H  528  1  0.78877400  0.79851000  0.56905500  1
  H  529  1  0.68356000  0.60117500  0.42565600  1
  H  530  1  0.68293600  0.53127600  0.42546700  1
  H  531  1  0.78340700  0.47418800  0.45308200  1
  H  532  1  0.78363200  0.40477600  0.45320200  1
  H  533  1  0.70378500  0.40368000  0.40626300  1
  H  534  1  0.70392100  0.47351600  0.40588600  1
  H  535  1  0.80549200  0.53037000  0.43312700  1
  H  536  1  0.80580400  0.60020700  0.43369000  1
  H  537  1  0.77175400  0.03152400  0.40449300  1
  H  538  1  0.77340600  0.10142600  0.40585800  1
  H  539  1  0.71913500  0.02874300  0.46035800  1
  H  540  1  0.72072400  0.09871500  0.46155500  1
  H  555  1  0.85211700  0.73242500  0.16183400  1
  H  558  1  0.65883000  0.77435900  0.19928100  1
  H  560  1  0.78568900  0.71199100  0.13749900  1
  H  562  1  0.72606900  0.79529200  0.22299800  1
  H  573  1  0.73141900  0.65137400  0.66063100  1
  H  576  1  0.77235300  0.84289200  0.70079500  1
  H  578  1  0.71005200  0.71953200  0.63717200  1
  H  580  1  0.79406600  0.77452400  0.72317300  1
  H  591  1  0.22961000  0.82184800  0.96704410  1
  H  594  1  0.31314300  0.66359200  0.94121910  1
  H  596  1  0.16980300  0.78763200  0.94416510  1
  H  598  1  0.34454700  0.72889400  0.90973510  1
  H  609  1  0.82192200  0.28074300  0.46691700  1
  H  612  1  0.66364000  0.19623000  0.44123600  1
  H  614  1  0.78784700  0.33950900  0.44403700  1
  H  616  1  0.72899200  0.16473300  0.40973700  1
  H  689  1  0.56792100  0.54838000  0.69801100  1
  H  690  1  0.56943100  0.54711000  0.73271300  1
  H  691  1  0.46900200  0.47470900  0.69822600  1
  H  692  1  0.46984900  0.47411800  0.73314300  1
  H  693  1  0.50979800  0.44952200  0.76127200  1
  H  694  1  0.51066800  0.44951700  0.79622900  1
  H  695  1  0.53124900  0.57118600  0.76130900  1
  H  696  1  0.53262200  0.57089000  0.79623100  1
  H  697  1  0.60045500  0.50955400  0.80618200  1
  H  698  1  0.65325100  0.51000300  0.83210200  1
  H  699  1  0.54726700  0.51104100  0.85962500  1
  H  700  1  0.49904900  0.50961400  0.88400700  1
  H  701  1  0.44287700  0.50912800  0.80626500  1
  H  702  1  0.39072800  0.50871900  0.83266600  1
  H  703  1  0.37189000  0.45189900  0.88144300  1
  H  704  1  0.30192900  0.45177500  0.88222500  1
  H  705  1  0.37102600  0.56989500  0.86352800  1
  H  706  1  0.30110500  0.56983800  0.86418600  1
  H  707  1  0.39319000  0.51497500  0.91153220  1
  H  708  1  0.44594600  0.51528200  0.93740220  1
  H  709  1  0.65567900  0.51103100  0.91092220  1
  H  710  1  0.60347600  0.51230900  0.93738320  1
  H  711  1  0.51570800  0.57494000  0.94662520  1
  H  712  1  0.51512300  0.57675200  0.98156020  1
  H  713  1  0.53263700  0.45281200  0.94811820  1
  H  714  1  0.53142400  0.45432700  0.98304620  1
  H  715  1  0.57072200  0.47815800  0.01127500  1
  H  716  1  0.57010300  0.47966700  0.04602700  1
  H  717  1  0.47479300  0.55786900  0.04501500  1
  H  718  1  0.47486600  0.55595800  0.01011100  1
  H  719  1  0.67425300  0.44923000  0.86719800  1
  H  720  1  0.74415000  0.44870100  0.86702800  1
  H  721  1  0.80113000  0.54935800  0.89461500  1
  H  722  1  0.87054200  0.54967100  0.89472300  1
  H  723  1  0.87170800  0.46962400  0.84780100  1
  H  724  1  0.80187000  0.46967400  0.84743400  1
  H  725  1  0.74488200  0.57128600  0.87466700  1
  H  726  1  0.67504500  0.57150600  0.87520700  1
  H  727  1  0.24386200  0.53738400  0.84600800  1
  H  728  1  0.17396500  0.53912300  0.84736600  1
  H  729  1  0.24656500  0.48520600  0.90193320  1
  H  730  1  0.17659900  0.48686300  0.90311920  1
  H  807  1  0.55470200  0.46849500  0.19838600  1
  H  808  1  0.55307400  0.46831000  0.23329500  1
  H  809  1  0.48229700  0.56833800  0.19782100  1
  H  810  1  0.48135000  0.56880500  0.23255000  1
  H  811  1  0.45507500  0.52999200  0.26049400  1
  H  812  1  0.45342300  0.53068400  0.29542700  1
  H  813  1  0.57648200  0.50736100  0.26204200  1
  H  814  1  0.57454100  0.50758500  0.29698000  1
  H  815  1  0.51182300  0.44081600  0.30618800  1
  H  816  1  0.51117500  0.38808300  0.33212200  1
  H  817  1  0.51231800  0.49411100  0.35961100  1
  H  818  1  0.50976200  0.54235200  0.38396600  1
  H  819  1  0.51179200  0.59839200  0.30619400  1
  H  820  1  0.51025400  0.65058900  0.33257400  1
  H  821  1  0.45222000  0.66943700  0.38128100  1
  H  822  1  0.45200000  0.73940000  0.38209000  1
  H  823  1  0.57041400  0.67047600  0.36360400  1
  H  824  1  0.57025200  0.74039500  0.36427400  1
  H  825  1  0.51492100  0.64821600  0.41148500  1
  H  826  1  0.51486100  0.59547000  0.43736700  1
  H  827  1  0.51085000  0.38573100  0.41091700  1
  H  828  1  0.51174800  0.43794500  0.43737300  1
  H  829  1  0.57432900  0.52549800  0.44675500  1
  H  830  1  0.57578400  0.52529500  0.48169300  1
  H  831  1  0.45217200  0.50864800  0.44794700  1
  H  832  1  0.45333000  0.50908000  0.48288200  1
  H  833  1  0.47685000  0.46885700  0.51079500  1
  H  834  1  0.47816800  0.46816400  0.54554500  1
  H  835  1  0.55656700  0.56333400  0.54547100  1
  H  836  1  0.55484700  0.56458300  0.51057000  1
  H  837  1  0.44963300  0.36724800  0.36717100  1
  H  838  1  0.44900900  0.29734900  0.36698200  1
  H  839  1  0.54948000  0.24026100  0.39459700  1
  H  840  1  0.54970500  0.17084900  0.39471700  1
  H  841  1  0.46985800  0.16975300  0.34777800  1
  H  842  1  0.46999400  0.23958900  0.34740100  1
  H  843  1  0.57156500  0.29644300  0.37464200  1
  H  844  1  0.57187700  0.36628000  0.37520500  1
  H  845  1  0.53782700  0.79759700  0.34600800  1
  H  846  1  0.53947900  0.86749900  0.34737300  1
  H  847  1  0.48520800  0.79481600  0.40187300  1
  H  848  1  0.48679700  0.86478800  0.40307000  1
  H  863  1  0.61819000  0.49849800  0.10334900  1
  H  866  1  0.42490300  0.54043200  0.14079600  1
  H  868  1  0.55176200  0.47806400  0.07901400  1
  H  870  1  0.49214200  0.56136500  0.16451300  1
  H  881  1  0.49749200  0.41744700  0.60214600  1
  H  884  1  0.53842600  0.60896500  0.64231000  1
  H  886  1  0.47612500  0.48560500  0.57868700  1
  H  888  1  0.56013900  0.54059700  0.66468800  1
  H  899  1  0.99568333  0.58792100  0.90855920  1
  H  902  1  0.07921600  0.42966500  0.88273400  1
  H  904  1  0.93587630  0.55370500  0.88568000  1
  H  906  1  0.11062000  0.49496700  0.85125000  1
  H  917  1  0.58799500  0.04681600  0.40843200  1
  H  920  1  0.42971300  0.96230330  0.38275100  1
  H  922  1  0.55392000  0.10558200  0.38555200  1
  H  924  1  0.49506500  0.93080630  0.35125200  1
  H  997  1  0.33399500  0.31445400  0.63952600  1
  H  998  1  0.33550500  0.31318400  0.67422800  1
  H  999  1  0.23507600  0.24078300  0.63974100  1
  H  1000  1  0.23592300  0.24019200  0.67465800  1
  H  1001  1  0.27587200  0.21559600  0.70278700  1
  H  1002  1  0.27674200  0.21559100  0.73774400  1
  H  1003  1  0.29732300  0.33726000  0.70282400  1
  H  1004  1  0.29869600  0.33696400  0.73774600  1
  H  1005  1  0.36652900  0.27562800  0.74769700  1
  H  1006  1  0.41932500  0.27607700  0.77361700  1
  H  1007  1  0.31334100  0.27711500  0.80114000  1
  H  1008  1  0.26512300  0.27568800  0.82552200  1
  H  1009  1  0.20895100  0.27520200  0.74778000  1
  H  1010  1  0.15680200  0.27479300  0.77418100  1
  H  1011  1  0.13796400  0.21797300  0.82295800  1
  H  1012  1  0.06800300  0.21784900  0.82374000  1
  H  1013  1  0.13710000  0.33596900  0.80504300  1
  H  1014  1  0.06717900  0.33591200  0.80570100  1
  H  1015  1  0.15926400  0.28104900  0.85304700  1
  H  1016  1  0.21202000  0.28135600  0.87891700  1
  H  1017  1  0.42175300  0.27710500  0.85243700  1
  H  1018  1  0.36955000  0.27838300  0.87889800  1
  H  1019  1  0.28178200  0.34101400  0.88814000  1
  H  1020  1  0.28119700  0.34282600  0.92307520  1
  H  1021  1  0.29871100  0.21888600  0.88963300  1
  H  1022  1  0.29749800  0.22040100  0.92456120  1
  H  1023  1  0.33679600  0.24423200  0.95279020  1
  H  1024  1  0.33617700  0.24574100  0.98754220  1
  H  1025  1  0.24086700  0.32394300  0.98653020  1
  H  1026  1  0.24094000  0.32203200  0.95162620  1
  H  1027  1  0.44032700  0.21530400  0.80871300  1
  H  1028  1  0.51022400  0.21477500  0.80854300  1
  H  1029  1  0.56720400  0.31543200  0.83613000  1
  H  1030  1  0.63661600  0.31574500  0.83623800  1
  H  1031  1  0.63778200  0.23569800  0.78931600  1
  H  1032  1  0.56794400  0.23574800  0.78894900  1
  H  1033  1  0.51095600  0.33736000  0.81618200  1
  H  1034  1  0.44111900  0.33758000  0.81672200  1
  H  1035  1  0.00993600  0.30345800  0.78752300  1
  H  1036  1  0.94003900  0.30519700  0.78888100  1
  H  1037  1  0.01263900  0.25128000  0.84344800  1
  H  1038  1  0.94267300  0.25293700  0.84463400  1
  H  1115  1  0.32077600  0.23456900  0.13990100  1
  H  1116  1  0.31914800  0.23438400  0.17481000  1
  H  1117  1  0.24837100  0.33441200  0.13933600  1
  H  1118  1  0.24742400  0.33487900  0.17406500  1
  H  1119  1  0.22114900  0.29606600  0.20200900  1
  H  1120  1  0.21949700  0.29675800  0.23694200  1
  H  1121  1  0.34255600  0.27343500  0.20355700  1
  H  1122  1  0.34061500  0.27365900  0.23849500  1
  H  1123  1  0.27789700  0.20689000  0.24770300  1
  H  1124  1  0.27724900  0.15415700  0.27363700  1
  H  1125  1  0.27839200  0.26018500  0.30112600  1
  H  1126  1  0.27583600  0.30842600  0.32548100  1
  H  1127  1  0.27786600  0.36446600  0.24770900  1
  H  1128  1  0.27632800  0.41666300  0.27408900  1
  H  1129  1  0.21829400  0.43551100  0.32279600  1
  H  1130  1  0.21807400  0.50547400  0.32360500  1
  H  1131  1  0.33648800  0.43655000  0.30511900  1
  H  1132  1  0.33632600  0.50646900  0.30578900  1
  H  1133  1  0.28099500  0.41429000  0.35300000  1
  H  1134  1  0.28093500  0.36154400  0.37888200  1
  H  1135  1  0.27692400  0.15180500  0.35243200  1
  H  1136  1  0.27782200  0.20401900  0.37888800  1
  H  1137  1  0.34040300  0.29157200  0.38827000  1
  H  1138  1  0.34185800  0.29136900  0.42320800  1
  H  1139  1  0.21824600  0.27472200  0.38946200  1
  H  1140  1  0.21940400  0.27515400  0.42439700  1
  H  1141  1  0.24292400  0.23493100  0.45231000  1
  H  1142  1  0.24424200  0.23423800  0.48706000  1
  H  1143  1  0.32264100  0.32940800  0.48698600  1
  H  1144  1  0.32092100  0.33065700  0.45208500  1
  H  1145  1  0.21570700  0.13332200  0.30868600  1
  H  1146  1  0.21508300  0.06342300  0.30849700  1
  H  1147  1  0.31555400  0.00633500  0.33611200  1
  H  1148  1  0.31577900  0.93692300  0.33623200  1
  H  1149  1  0.23593200  0.93582700  0.28929300  1
  H  1150  1  0.23606800  0.00566300  0.28891600  1
  H  1151  1  0.33763900  0.06251700  0.31615700  1
  H  1152  1  0.33795100  0.13235400  0.31672000  1
  H  1153  1  0.30390100  0.56367100  0.28752300  1
  H  1154  1  0.30555300  0.63357300  0.28888800  1
  H  1155  1  0.25128200  0.56089000  0.34338800  1
  H  1156  1  0.25287100  0.63086200  0.34458500  1
  H  1171  1  0.38426400  0.26457200  0.04486400  1
  H  1174  1  0.19097700  0.30650600  0.08231100  1
  H  1176  1  0.31783600  0.24413800  0.02052900  1
  H  1178  1  0.25821600  0.32743900  0.10602800  1
  H  1189  1  0.26356600  0.18352100  0.54366100  1
  H  1192  1  0.30450000  0.37503900  0.58382500  1
  H  1194  1  0.24219900  0.25167900  0.52020200  1
  H  1196  1  0.32621300  0.30667100  0.60620300  1
  H  1207  1  0.76175700  0.35399500  0.85007400  1
  H  1210  1  0.84529000  0.19573900  0.82424900  1
  H  1212  1  0.70195000  0.31977900  0.82719500  1
  H  1214  1  0.87669400  0.26104100  0.79276500  1
  H  1225  1  0.35406900  0.81289000  0.34994700  1
  H  1228  1  0.19578700  0.72837700  0.32426600  1
  H  1230  1  0.31999400  0.87165600  0.32706700  1
  H  1232  1  0.26113900  0.69688000  0.29276700  1
  C  1  1  0.06298700  0.97793600  0.93785500  1
  C  2  1  0.09179400  0.97808500  0.95199600  1
  C  3  1  0.07380500  0.97837500  0.97035000  1
  C  5  1  0.02660400  0.97837000  0.94717800  1
  C  6  1  0.98978300  0.97813800  0.93742400  1
  C  7  1  0.95287600  0.97807500  0.94703200  1
  C  9  1  0.90667300  0.97834000  0.97041400  1
  C  10  1  0.88797600  0.97729200  0.95227100  1
  C  11  1  0.91635200  0.97749100  0.93790400  1
  C  12  1  0.88794900  0.97883500  0.98899800  1
  C  13  1  0.90823500  0.97968500  0.00720300  1
  C  15  1  0.95548300  0.98056000  0.03035800  1
  C  16  1  0.91912200  0.98190900  0.03968000  1
  C  17  1  0.89031400  0.98163600  0.02555100  1
  C  18  1  0.99228100  0.98051900  0.04013300  1
  C  19  1  0.02920200  0.97975000  0.03055600  1
  C  21  1  0.07535500  0.97898800  0.00716300  1
  C  22  1  0.09410800  0.97909600  0.02530000  1
  C  23  1  0.06573500  0.97975100  0.03968000  1
  C  24  1  0.09400600  0.97849700  0.98857000  1
  C  25  1  0.13586700  0.97825100  0.98821800  1
  C  26  1  0.15723500  0.01331400  0.99041800  1
  C  27  1  0.19843900  0.01301300  0.99023800  1
  C  28  1  0.21981800  0.97779500  0.98779100  1
  C  29  1  0.19801200  0.94283600  0.98544400  1
  C  30  1  0.15679000  0.94298300  0.98571200  1
  C  31  1  0.26186100  0.97757700  0.98787900  1
  C  32  1  0.28370300  0.95430300  0.97462800  1
  C  33  1  0.32495900  0.95442500  0.97473100  1
  C  34  1  0.34610600  0.97781100  0.98805500  1
  C  35  1  0.32445600  0.00070200  0.00150800  1
  C  36  1  0.28326200  0.00063400  0.00136700  1
  C  37  1  0.99220100  0.98158500  0.06104600  1
  C  38  1  0.98695500  0.01722000  0.07117100  1
  C  39  1  0.98626100  0.01811500  0.09176500  1
  C  40  1  0.99102000  0.98356800  0.10296200  1
  C  41  1  0.99640700  0.94801000  0.09262000  1
  C  42  1  0.99687500  0.94695200  0.07202800  1
  C  43  1  0.99054800  0.98454300  0.12395300  1
  C  44  1  0.96324200  0.00773300  0.13440200  1
  C  45  1  0.96294800  0.00868000  0.15501000  1
  C  46  1  0.98981500  0.98640200  0.16599800  1
  C  47  1  0.01738900  0.96343500  0.15566500  1
  C  48  1  0.01762400  0.96246000  0.13507100  1
  C  49  1  0.84602600  0.97874400  0.98936200  1
  C  50  1  0.82507500  0.94479600  0.99477000  1
  C  51  1  0.78387400  0.94486900  0.99534100  1
  C  52  1  0.76217100  0.97861800  0.99020700  1
  C  53  1  0.78337900  0.01243000  0.98464400  1
  C  54  1  0.82458000  0.01262800  0.98438100  1
  C  55  1  0.72027200  0.97870400  0.99074800  1
  C  56  1  0.69805000  0.99434800  0.97512500  1
  C  57  1  0.65686000  0.99497200  0.97577400  1
  C  58  1  0.63646200  0.98014000  0.99215300  1
  C  59  1  0.65839200  0.96505100  0.00789400  1
  C  60  1  0.69957600  0.96383400  0.00709000  1
  C  61  1  0.98973200  0.97801700  0.91650200  1
  C  62  1  0.98297900  0.94315100  0.90594000  1
  C  63  1  0.99579700  0.01297200  0.90594600  1
  C  64  1  0.99522700  0.01297800  0.88535200  1
  C  65  1  0.98829400  0.97821200  0.87458300  1
  C  66  1  0.98213200  0.94333200  0.88534100  1
  C  67  1  0.98762100  0.97838200  0.85359700  1
  C  68  1  0.95898100  0.95734400  0.84293600  1
  C  69  1  0.95824300  0.95790700  0.82232600  1
  C  70  1  0.98619500  0.97930200  0.81154500  1
  C  71  1  0.01494500  0.00028600  0.82211200  1
  C  72  1  0.01558200  0.99982400  0.84270300  1
  C  119  1  0.97982900  0.91402900  0.43786000  1
  C  120  1  0.97936600  0.88524800  0.45200600  1
  C  121  1  0.97932600  0.90327400  0.47035000  1
  C  123  1  0.98030900  0.95043100  0.44717100  1
  C  124  1  0.98066100  0.98722500  0.43739600  1
  C  125  1  0.98009900  0.02415300  0.44698200  1
  C  127  1  0.97937600  0.07039700  0.47035600  1
  C  128  1  0.97882800  0.08905400  0.45219500  1
  C  129  1  0.97968100  0.06065600  0.43783900  1
  C  130  1  0.97932100  0.08914900  0.48893900  1
  C  131  1  0.97983200  0.06887300  0.50715300  1
  C  133  1  0.98037900  0.02163600  0.53032500  1
  C  134  1  0.98161400  0.05800200  0.53964300  1
  C  135  1  0.98153100  0.08680000  0.52550700  1
  C  136  1  0.98019200  0.98484800  0.54010900  1
  C  137  1  0.97956000  0.94791800  0.53053800  1
  C  139  1  0.97914100  0.90175300  0.50715700  1
  C  140  1  0.97896000  0.88300800  0.52529300  1
  C  141  1  0.97941100  0.91139000  0.53966800  1
  C  142  1  0.97895500  0.88309200  0.48856900  1
  C  143  1  0.97864200  0.84124000  0.48822000  1
  C  144  1  0.01367300  0.81983200  0.49041200  1
  C  145  1  0.01331700  0.77863100  0.49021600  1
  C  146  1  0.97807700  0.75730600  0.48776400  1
  C  147  1  0.94315300  0.77915800  0.48542400  1
  C  148  1  0.94335600  0.82037800  0.48569200  1
  C  149  1  0.97780200  0.71526700  0.48785600  1
  C  150  1  0.95454300  0.69344700  0.47460700  1
  C  151  1  0.95462300  0.65219400  0.47471400  1
  C  152  1  0.97794300  0.63102900  0.48803900  1
  C  153  1  0.00080000  0.65265600  0.50149600  1
  C  154  1  0.00076200  0.69385000  0.50135700  1
  C  155  1  0.98098300  0.98490100  0.56102300  1
  C  156  1  0.01651300  0.98990200  0.57123800  1
  C  157  1  0.01720300  0.99010700  0.59183800  1
  C  158  1  0.98254600  0.98507700  0.60294800  1
  C  159  1  0.94708200  0.98001000  0.59251600  1
  C  160  1  0.94623200  0.98002500  0.57192100  1
  C  161  1  0.98334300  0.98482500  0.62394300  1
  C  162  1  0.00652300  0.01169100  0.63465900  1
  C  163  1  0.00735600  0.01120300  0.65526800  1
  C  164  1  0.98495100  0.98398100  0.66598800  1
  C  165  1  0.96198300  0.95685300  0.65538600  1
  C  166  1  0.96115500  0.95737200  0.63479300  1
  C  167  1  0.97916300  0.13108100  0.48929900  1
  C  168  1  0.94513500  0.15199200  0.49465600  1
  C  169  1  0.94514500  0.19319600  0.49523400  1
  C  170  1  0.97892300  0.21495100  0.49017500  1
  C  171  1  0.01282400  0.19379200  0.48467700  1
  C  172  1  0.01308100  0.15258800  0.48440500  1
  C  173  1  0.97894700  0.25685400  0.49072000  1
  C  174  1  0.99469000  0.27910000  0.47511600  1
  C  175  1  0.99525700  0.32029200  0.47576700  1
  C  176  1  0.98028200  0.34066900  0.49213400  1
  C  177  1  0.96509700  0.31871300  0.50785600  1
  C  178  1  0.96395400  0.27752600  0.50705300  1
  C  179  1  0.98168000  0.98711400  0.41647800  1
  C  180  1  0.94737400  0.99365700  0.40547400  1
  C  181  1  0.01704700  0.98018200  0.40636400  1
  C  182  1  0.01801800  0.97973700  0.38577000  1
  C  183  1  0.98382900  0.98650700  0.37456700  1
  C  184  1  0.94852800  0.99351900  0.38488300  1
  C  185  1  0.98491200  0.98642600  0.35358700  1
  C  186  1  0.96452100  0.01498100  0.34259800  1
  C  187  1  0.96537500  0.01496000  0.32200600  1
  C  188  1  0.98667800  0.98626000  0.31154100  1
  C  189  1  0.00702200  0.95771800  0.32241600  1
  C  190  1  0.00628200  0.95784600  0.34302800  1
  C  237  1  0.99731700  0.97755800  0.21910600  1
  C  239  1  0.96000600  0.01437900  0.24284600  1
  C  240  1  0.98097600  0.99662500  0.25842700  1
  C  242  1  0.01831100  0.95985200  0.23469500  1
  C  243  1  0.04845700  0.93324800  0.23199700  1
  C  244  1  0.92993100  0.04111300  0.24555800  1
  C  251  1  0.00327200  0.96890400  0.19940500  1
  C  253  1  0.97514400  0.00541600  0.27811000  1
  C  255  1  0.97585100  0.97434700  0.71899700  1
  C  257  1  0.01256400  0.01062100  0.74314100  1
  C  258  1  0.99521500  0.98854900  0.75847000  1
  C  260  1  0.95844900  0.95233500  0.73433300  1
  C  261  1  0.93208700  0.92211400  0.73124700  1
  C  262  1  0.03902800  0.04076700  0.74619100  1
  C  269  1  0.96714500  0.96938800  0.69924400  1
  C  271  1  0.00430700  0.99322400  0.77819000  1
  C  273  1  0.45176100  0.99295900  0.99157400  1
  C  275  1  0.50352900  0.94765900  0.98334800  1
  C  276  1  0.53171300  0.97781600  0.98549600  1
  C  278  1  0.48021200  0.02300400  0.99359000  1
  C  279  1  0.47114800  0.06138200  0.99832600  1
  C  280  1  0.51329800  0.90938100  0.97862800  1
  C  287  1  0.41190100  0.99870100  0.99469000  1
  C  289  1  0.57105300  0.97358800  0.98122200  1
  C  291  1  0.99310100  0.52537700  0.49154500  1
  C  293  1  0.94778400  0.47362700  0.48333900  1
  C  294  1  0.97791700  0.44542500  0.48548300  1
  C  296  1  0.02311900  0.49690500  0.49356500  1
  C  297  1  0.06147100  0.50592600  0.49828700  1
  C  298  1  0.90951100  0.46388700  0.47863100  1
  C  305  1  0.99885900  0.56524600  0.49463100  1
  C  307  1  0.97367900  0.40608300  0.48121600  1
  C  309  1  0.82906100  0.74401000  0.87937000  1
  C  310  1  0.85786800  0.74415900  0.89351100  1
  C  311  1  0.83987900  0.74444900  0.91186510  1
  C  313  1  0.79267800  0.74444400  0.88869300  1
  C  314  1  0.75585700  0.74421200  0.87893900  1
  C  315  1  0.71895000  0.74414900  0.88854700  1
  C  317  1  0.67274700  0.74441400  0.91192910  1
  C  318  1  0.65405000  0.74336600  0.89378600  1
  C  319  1  0.68242600  0.74356500  0.87941900  1
  C  320  1  0.65402300  0.74490900  0.93051310  1
  C  321  1  0.67430900  0.74575900  0.94871810  1
  C  323  1  0.72155700  0.74663400  0.97187310  1
  C  324  1  0.68519600  0.74798300  0.98119510  1
  C  325  1  0.65638800  0.74771000  0.96706610  1
  C  326  1  0.75835500  0.74659300  0.98164810  1
  C  327  1  0.79527600  0.74582400  0.97207110  1
  C  329  1  0.84142900  0.74506200  0.94867810  1
  C  330  1  0.86018200  0.74517000  0.96681510  1
  C  331  1  0.83180900  0.74582500  0.98119510  1
  C  332  1  0.86008000  0.74457100  0.93008510  1
  C  333  1  0.90194070  0.74432500  0.92973310  1
  C  334  1  0.92330870  0.77938800  0.93193310  1
  C  335  1  0.96451270  0.77908700  0.93175310  1
  C  336  1  0.98589170  0.74386900  0.92930610  1
  C  337  1  0.96408570  0.70891000  0.92695910  1
  C  338  1  0.92286370  0.70905700  0.92722710  1
  C  339  1  0.02793500  0.74365100  0.92939410  1
  C  340  1  0.04977700  0.72037700  0.91614310  1
  C  341  1  0.09103300  0.72049900  0.91624610  1
  C  342  1  0.11218000  0.74388500  0.92957010  1
  C  343  1  0.09053000  0.76677600  0.94302310  1
  C  344  1  0.04933600  0.76670800  0.94288210  1
  C  345  1  0.75827500  0.74765900  0.00256100  1
  C  346  1  0.75302900  0.78329400  0.01268600  1
  C  347  1  0.75233500  0.78418900  0.03328000  1
  C  348  1  0.75709400  0.74964200  0.04447700  1
  C  349  1  0.76248100  0.71408400  0.03413500  1
  C  350  1  0.76294900  0.71302600  0.01354300  1
  C  351  1  0.75662200  0.75061700  0.06546800  1
  C  352  1  0.72931600  0.77380700  0.07591700  1
  C  353  1  0.72902200  0.77475400  0.09652500  1
  C  354  1  0.75588900  0.75247600  0.10751300  1
  C  355  1  0.78346300  0.72950900  0.09718000  1
  C  356  1  0.78369800  0.72853400  0.07658600  1
  C  357  1  0.61210000  0.74481800  0.93087710  1
  C  358  1  0.59114900  0.71087000  0.93628510  1
  C  359  1  0.54994800  0.71094300  0.93685610  1
  C  360  1  0.52824500  0.74469200  0.93172210  1
  C  361  1  0.54945300  0.77850400  0.92615910  1
  C  362  1  0.59065400  0.77870200  0.92589610  1
  C  363  1  0.48634600  0.74477800  0.93226310  1
  C  364  1  0.46412400  0.76042200  0.91664010  1
  C  365  1  0.42293400  0.76104600  0.91728910  1
  C  366  1  0.40253600  0.74621400  0.93366810  1
  C  367  1  0.42446600  0.73112500  0.94940910  1
  C  368  1  0.46565000  0.72990800  0.94860510  1
  C  369  1  0.75580600  0.74409100  0.85801700  1
  C  370  1  0.74905300  0.70922500  0.84745500  1
  C  371  1  0.76187100  0.77904600  0.84746100  1
  C  372  1  0.76130100  0.77905200  0.82686700  1
  C  373  1  0.75436800  0.74428600  0.81609800  1
  C  374  1  0.74820600  0.70940600  0.82685600  1
  C  375  1  0.75369500  0.74445600  0.79511200  1
  C  376  1  0.72505500  0.72341800  0.78445100  1
  C  377  1  0.72431700  0.72398100  0.76384100  1
  C  378  1  0.75226900  0.74537600  0.75306000  1
  C  379  1  0.78101900  0.76636000  0.76362700  1
  C  380  1  0.78165600  0.76589800  0.78421800  1
  C  427  1  0.74590300  0.68010300  0.37937500  1
  C  428  1  0.74544000  0.65132200  0.39352100  1
  C  429  1  0.74540000  0.66934800  0.41186500  1
  C  431  1  0.74638300  0.71650500  0.38868600  1
  C  432  1  0.74673500  0.75329900  0.37891100  1
  C  433  1  0.74617300  0.79022700  0.38849700  1
  C  435  1  0.74545000  0.83647100  0.41187100  1
  C  436  1  0.74490200  0.85512800  0.39371000  1
  C  437  1  0.74575500  0.82673000  0.37935400  1
  C  438  1  0.74539500  0.85522300  0.43045400  1
  C  439  1  0.74590600  0.83494700  0.44866800  1
  C  441  1  0.74645300  0.78771000  0.47184000  1
  C  442  1  0.74768800  0.82407600  0.48115800  1
  C  443  1  0.74760500  0.85287400  0.46702200  1
  C  444  1  0.74626600  0.75092200  0.48162400  1
  C  445  1  0.74563400  0.71399200  0.47205300  1
  C  447  1  0.74521500  0.66782700  0.44867200  1
  C  448  1  0.74503400  0.64908200  0.46680800  1
  C  449  1  0.74548500  0.67746400  0.48118300  1
  C  450  1  0.74502900  0.64916600  0.43008400  1
  C  451  1  0.74471600  0.60731400  0.42973500  1
  C  452  1  0.77974700  0.58590600  0.43192700  1
  C  453  1  0.77939100  0.54470500  0.43173100  1
  C  454  1  0.74415100  0.52338000  0.42927900  1
  C  455  1  0.70922700  0.54523200  0.42693900  1
  C  456  1  0.70943000  0.58645200  0.42720700  1
  C  457  1  0.74387600  0.48134100  0.42937100  1
  C  458  1  0.72061700  0.45952100  0.41612200  1
  C  459  1  0.72069700  0.41826800  0.41622900  1
  C  460  1  0.74401700  0.39710300  0.42955400  1
  C  461  1  0.76687400  0.41873000  0.44301100  1
  C  462  1  0.76683600  0.45992400  0.44287200  1
  C  463  1  0.74705700  0.75097500  0.50253800  1
  C  464  1  0.78258700  0.75597600  0.51275300  1
  C  465  1  0.78327700  0.75618100  0.53335300  1
  C  466  1  0.74862000  0.75115100  0.54446300  1
  C  467  1  0.71315600  0.74608400  0.53403100  1
  C  468  1  0.71230600  0.74609900  0.51343600  1
  C  469  1  0.74941700  0.75089900  0.56545800  1
  C  470  1  0.77259700  0.77776500  0.57617400  1
  C  471  1  0.77343000  0.77727700  0.59678300  1
  C  472  1  0.75102500  0.75005500  0.60750300  1
  C  473  1  0.72805700  0.72292700  0.59690100  1
  C  474  1  0.72722900  0.72344600  0.57630800  1
  C  475  1  0.74523700  0.89715500  0.43081400  1
  C  476  1  0.71120900  0.91806570  0.43617100  1
  C  477  1  0.71121900  0.95926970  0.43674900  1
  C  478  1  0.74499700  0.98102470  0.43169000  1
  C  479  1  0.77889800  0.95986570  0.42619200  1
  C  480  1  0.77915500  0.91866170  0.42592000  1
  C  481  1  0.74502100  0.02292800  0.43223500  1
  C  482  1  0.76076400  0.04517400  0.41663100  1
  C  483  1  0.76133100  0.08636600  0.41728200  1
  C  484  1  0.74635600  0.10674300  0.43364900  1
  C  485  1  0.73117100  0.08478700  0.44937100  1
  C  486  1  0.73002800  0.04360000  0.44856800  1
  C  487  1  0.74775400  0.75318800  0.35799300  1
  C  488  1  0.71344800  0.75973100  0.34698900  1
  C  489  1  0.78312100  0.74625600  0.34787900  1
  C  490  1  0.78409200  0.74581100  0.32728500  1
  C  491  1  0.74990300  0.75258100  0.31608200  1
  C  492  1  0.71460200  0.75959300  0.32639800  1
  C  493  1  0.75098600  0.75250000  0.29510200  1
  C  494  1  0.73059500  0.78105500  0.28411300  1
  C  495  1  0.73144900  0.78103400  0.26352100  1
  C  496  1  0.75275200  0.75233400  0.25305600  1
  C  497  1  0.77309600  0.72379200  0.26393100  1
  C  498  1  0.77235600  0.72392000  0.28454300  1
  C  545  1  0.76339100  0.74363200  0.16062100  1
  C  547  1  0.72608000  0.78045300  0.18436100  1
  C  548  1  0.74705000  0.76269900  0.19994200  1
  C  550  1  0.78438500  0.72592600  0.17621000  1
  C  551  1  0.81453100  0.69932200  0.17351200  1
  C  552  1  0.69600500  0.80718700  0.18707300  1
  C  559  1  0.76934600  0.73497800  0.14092000  1
  C  561  1  0.74121800  0.77149000  0.21962500  1
  C  563  1  0.74192500  0.74042100  0.66051200  1
  C  565  1  0.77863800  0.77669500  0.68465600  1
  C  566  1  0.76128900  0.75462300  0.69998500  1
  C  568  1  0.72452300  0.71840900  0.67584800  1
  C  569  1  0.69816100  0.68818800  0.67276200  1
  C  570  1  0.80510200  0.80684100  0.68770600  1
  C  577  1  0.73321900  0.73546200  0.64075900  1
  C  579  1  0.77038100  0.75929800  0.71970500  1
  C  581  1  0.21783500  0.75903300  0.93308910  1
  C  583  1  0.26960300  0.71373300  0.92486310  1
  C  584  1  0.29778700  0.74389000  0.92701110  1
  C  586  1  0.24628600  0.78907800  0.93510510  1
  C  587  1  0.23722200  0.82745600  0.93984110  1
  C  588  1  0.27937200  0.67545500  0.92014310  1
  C  595  1  0.17797500  0.76477500  0.93620510  1
  C  597  1  0.33712700  0.73966200  0.92273710  1
  C  599  1  0.75917500  0.29145100  0.43306000  1
  C  601  1  0.71385800  0.23970100  0.42485400  1
  C  602  1  0.74399100  0.21149900  0.42699800  1
  C  604  1  0.78919300  0.26297900  0.43508000  1
  C  605  1  0.82754500  0.27200000  0.43980200  1
  C  606  1  0.67558500  0.22996100  0.42014600  1
  C  613  1  0.76493300  0.33132000  0.43614600  1
  C  615  1  0.73975300  0.17215700  0.42273100  1
  C  617  1  0.59513400  0.51008300  0.82088500  1
  C  618  1  0.62394100  0.51023200  0.83502600  1
  C  619  1  0.60595200  0.51052200  0.85338000  1
  C  621  1  0.55875100  0.51051700  0.83020800  1
  C  622  1  0.52193000  0.51028500  0.82045400  1
  C  623  1  0.48502300  0.51022200  0.83006200  1
  C  625  1  0.43882000  0.51048700  0.85344400  1
  C  626  1  0.42012300  0.50943900  0.83530100  1
  C  627  1  0.44849900  0.50963800  0.82093400  1
  C  628  1  0.42009600  0.51098200  0.87202800  1
  C  629  1  0.44038200  0.51183200  0.89023300  1
  C  631  1  0.48763000  0.51270700  0.91338820  1
  C  632  1  0.45126900  0.51405600  0.92271020  1
  C  633  1  0.42246100  0.51378300  0.90858120  1
  C  634  1  0.52442800  0.51266600  0.92316320  1
  C  635  1  0.56134900  0.51189700  0.91358620  1
  C  637  1  0.60750200  0.51113500  0.89019300  1
  C  638  1  0.62625500  0.51124300  0.90833020  1
  C  639  1  0.59788200  0.51189800  0.92271020  1
  C  640  1  0.62615300  0.51064400  0.87160000  1
  C  641  1  0.66801400  0.51039800  0.87124800  1
  C  642  1  0.68938200  0.54546100  0.87344800  1
  C  643  1  0.73058600  0.54516000  0.87326800  1
  C  644  1  0.75196500  0.50994200  0.87082100  1
  C  645  1  0.73015900  0.47498300  0.86847400  1
  C  646  1  0.68893700  0.47513000  0.86874200  1
  C  647  1  0.79400800  0.50972400  0.87090900  1
  C  648  1  0.81585000  0.48645000  0.85765800  1
  C  649  1  0.85710600  0.48657200  0.85776100  1
  C  650  1  0.87825300  0.50995800  0.87108500  1
  C  651  1  0.85660300  0.53284900  0.88453800  1
  C  652  1  0.81540900  0.53278100  0.88439700  1
  C  653  1  0.52434800  0.51373200  0.94407620  1
  C  654  1  0.51910200  0.54936700  0.95420120  1
  C  655  1  0.51840800  0.55026200  0.97479520  1
  C  656  1  0.52316700  0.51571500  0.98599220  1
  C  657  1  0.52855400  0.48015700  0.97565020  1
  C  658  1  0.52902200  0.47909900  0.95505820  1
  C  659  1  0.52269500  0.51669000  0.00698300  1
  C  660  1  0.49538900  0.53988000  0.01743200  1
  C  661  1  0.49509500  0.54082700  0.03804000  1
  C  662  1  0.52196200  0.51854900  0.04902800  1
  C  663  1  0.54953600  0.49558200  0.03869500  1
  C  664  1  0.54977100  0.49460700  0.01810100  1
  C  665  1  0.37817300  0.51089100  0.87239200  1
  C  666  1  0.35722200  0.47694300  0.87780000  1
  C  667  1  0.31602100  0.47701600  0.87837100  1
  C  668  1  0.29431800  0.51076500  0.87323700  1
  C  669  1  0.31552600  0.54457700  0.86767400  1
  C  670  1  0.35672700  0.54477500  0.86741100  1
  C  671  1  0.25241900  0.51085100  0.87377800  1
  C  672  1  0.23019700  0.52649500  0.85815500  1
  C  673  1  0.18900700  0.52711900  0.85880400  1
  C  674  1  0.16860900  0.51228700  0.87518300  1
  C  675  1  0.19053900  0.49719800  0.89092400  1
  C  676  1  0.23172300  0.49598100  0.89012000  1
  C  677  1  0.52187900  0.51016400  0.79953200  1
  C  678  1  0.51512600  0.47529800  0.78897000  1
  C  679  1  0.52794400  0.54511900  0.78897600  1
  C  680  1  0.52737400  0.54512500  0.76838200  1
  C  681  1  0.52044100  0.51035900  0.75761300  1
  C  682  1  0.51427900  0.47547900  0.76837100  1
  C  683  1  0.51976800  0.51052900  0.73662700  1
  C  684  1  0.49112800  0.48949100  0.72596600  1
  C  685  1  0.49039000  0.49005400  0.70535600  1
  C  686  1  0.51834200  0.51144900  0.69457500  1
  C  687  1  0.54709200  0.53243300  0.70514200  1
  C  688  1  0.54772900  0.53197100  0.72573300  1
  C  735  1  0.51197600  0.44617600  0.32089000  1
  C  736  1  0.51151300  0.41739500  0.33503600  1
  C  737  1  0.51147300  0.43542100  0.35338000  1
  C  739  1  0.51245600  0.48257800  0.33020100  1
  C  740  1  0.51280800  0.51937200  0.32042600  1
  C  741  1  0.51224600  0.55630000  0.33001200  1
  C  743  1  0.51152300  0.60254400  0.35338600  1
  C  744  1  0.51097500  0.62120100  0.33522500  1
  C  745  1  0.51182800  0.59280300  0.32086900  1
  C  746  1  0.51146800  0.62129600  0.37196900  1
  C  747  1  0.51197900  0.60102000  0.39018300  1
  C  749  1  0.51252600  0.55378300  0.41335500  1
  C  750  1  0.51376100  0.59014900  0.42267300  1
  C  751  1  0.51367800  0.61894700  0.40853700  1
  C  752  1  0.51233900  0.51699500  0.42313900  1
  C  753  1  0.51170700  0.48006500  0.41356800  1
  C  755  1  0.51128800  0.43390000  0.39018700  1
  C  756  1  0.51110700  0.41515500  0.40832300  1
  C  757  1  0.51155800  0.44353700  0.42269800  1
  C  758  1  0.51110200  0.41523900  0.37159900  1
  C  759  1  0.51078900  0.37338700  0.37125000  1
  C  760  1  0.54582000  0.35197900  0.37344200  1
  C  761  1  0.54546400  0.31077800  0.37324600  1
  C  762  1  0.51022400  0.28945300  0.37079400  1
  C  763  1  0.47530000  0.31130500  0.36845400  1
  C  764  1  0.47550300  0.35252500  0.36872200  1
  C  765  1  0.50994900  0.24741400  0.37088600  1
  C  766  1  0.48669000  0.22559400  0.35763700  1
  C  767  1  0.48677000  0.18434100  0.35774400  1
  C  768  1  0.51009000  0.16317600  0.37106900  1
  C  769  1  0.53294700  0.18480300  0.38452600  1
  C  770  1  0.53290900  0.22599700  0.38438700  1
  C  771  1  0.51313000  0.51704800  0.44405300  1
  C  772  1  0.54866000  0.52204900  0.45426800  1
  C  773  1  0.54935000  0.52225400  0.47486800  1
  C  774  1  0.51469300  0.51722400  0.48597800  1
  C  775  1  0.47922900  0.51215700  0.47554600  1
  C  776  1  0.47837900  0.51217200  0.45495100  1
  C  777  1  0.51549000  0.51697200  0.50697300  1
  C  778  1  0.53867000  0.54383800  0.51768900  1
  C  779  1  0.53950300  0.54335000  0.53829800  1
  C  780  1  0.51709800  0.51612800  0.54901800  1
  C  781  1  0.49413000  0.48900000  0.53841600  1
  C  782  1  0.49330200  0.48951900  0.51782300  1
  C  783  1  0.51131000  0.66322800  0.37232900  1
  C  784  1  0.47728200  0.68413900  0.37768600  1
  C  785  1  0.47729200  0.72534300  0.37826400  1
  C  786  1  0.51107000  0.74709800  0.37320500  1
  C  787  1  0.54497100  0.72593900  0.36770700  1
  C  788  1  0.54522800  0.68473500  0.36743500  1
  C  789  1  0.51109400  0.78900100  0.37375000  1
  C  790  1  0.52683700  0.81124700  0.35814600  1
  C  791  1  0.52740400  0.85243900  0.35879700  1
  C  792  1  0.51242900  0.87281600  0.37516400  1
  C  793  1  0.49724400  0.85086000  0.39088600  1
  C  794  1  0.49610100  0.80967300  0.39008300  1
  C  795  1  0.51382700  0.51926100  0.29950800  1
  C  796  1  0.47952100  0.52580400  0.28850400  1
  C  797  1  0.54919400  0.51232900  0.28939400  1
  C  798  1  0.55016500  0.51188400  0.26880000  1
  C  799  1  0.51597600  0.51865400  0.25759700  1
  C  800  1  0.48067500  0.52566600  0.26791300  1
  C  801  1  0.51705900  0.51857300  0.23661700  1
  C  802  1  0.49666800  0.54712800  0.22562800  1
  C  803  1  0.49752200  0.54710700  0.20503600  1
  C  804  1  0.51882500  0.51840700  0.19457100  1
  C  805  1  0.53916900  0.48986500  0.20544600  1
  C  806  1  0.53842900  0.48999300  0.22605800  1
  C  853  1  0.52946400  0.50970500  0.10213600  1
  C  855  1  0.49215300  0.54652600  0.12587600  1
  C  856  1  0.51312300  0.52877200  0.14145700  1
  C  858  1  0.55045800  0.49199900  0.11772500  1
  C  859  1  0.58060400  0.46539500  0.11502700  1
  C  860  1  0.46207800  0.57326000  0.12858800  1
  C  867  1  0.53541900  0.50105100  0.08243500  1
  C  869  1  0.50729100  0.53756300  0.16114000  1
  C  871  1  0.50799800  0.50649400  0.60202700  1
  C  873  1  0.54471100  0.54276800  0.62617100  1
  C  874  1  0.52736200  0.52069600  0.64150000  1
  C  876  1  0.49059600  0.48448200  0.61736300  1
  C  877  1  0.46423400  0.45426100  0.61427700  1
  C  878  1  0.57117500  0.57291400  0.62922100  1
  C  885  1  0.49929200  0.50153500  0.58227400  1
  C  887  1  0.53645400  0.52537100  0.66122000  1
  C  889  1  0.98390830  0.52510600  0.87460400  1
  C  891  1  0.03567600  0.47980600  0.86637800  1
  C  892  1  0.06386000  0.50996300  0.86852600  1
  C  894  1  0.01235900  0.55515100  0.87662000  1
  C  895  1  0.00329500  0.59352900  0.88135600  1
  C  896  1  0.04544500  0.44152800  0.86165800  1
  C  903  1  0.94404830  0.53084800  0.87772000  1
  C  905  1  0.10320000  0.50573500  0.86425200  1
  C  907  1  0.52524800  0.05752400  0.37457500  1
  C  909  1  0.47993100  0.00577400  0.36636900  1
  C  910  1  0.51006400  0.97757230  0.36851300  1
  C  912  1  0.55526600  0.02905200  0.37659500  1
  C  913  1  0.59361800  0.03807300  0.38131700  1
  C  914  1  0.44165800  0.99603433  0.36166100  1
  C  921  1  0.53100600  0.09739300  0.37766100  1
  C  923  1  0.50582600  0.93823030  0.36424600  1
  C  925  1  0.36120800  0.27615700  0.76240000  1
  C  926  1  0.39001500  0.27630600  0.77654100  1
  C  927  1  0.37202600  0.27659600  0.79489500  1
  C  929  1  0.32482500  0.27659100  0.77172300  1
  C  930  1  0.28800400  0.27635900  0.76196900  1
  C  931  1  0.25109700  0.27629600  0.77157700  1
  C  933  1  0.20489400  0.27656100  0.79495900  1
  C  934  1  0.18619700  0.27551300  0.77681600  1
  C  935  1  0.21457300  0.27571200  0.76244900  1
  C  936  1  0.18617000  0.27705600  0.81354300  1
  C  937  1  0.20645600  0.27790600  0.83174800  1
  C  939  1  0.25370400  0.27878100  0.85490300  1
  C  940  1  0.21734300  0.28013000  0.86422500  1
  C  941  1  0.18853500  0.27985700  0.85009600  1
  C  942  1  0.29050200  0.27874000  0.86467800  1
  C  943  1  0.32742300  0.27797100  0.85510100  1
  C  945  1  0.37357600  0.27720900  0.83170800  1
  C  946  1  0.39232900  0.27731700  0.84984500  1
  C  947  1  0.36395600  0.27797200  0.86422500  1
  C  948  1  0.39222700  0.27671800  0.81311500  1
  C  949  1  0.43408800  0.27647200  0.81276300  1
  C  950  1  0.45545600  0.31153500  0.81496300  1
  C  951  1  0.49666000  0.31123400  0.81478300  1
  C  952  1  0.51803900  0.27601600  0.81233600  1
  C  953  1  0.49623300  0.24105700  0.80998900  1
  C  954  1  0.45501100  0.24120400  0.81025700  1
  C  955  1  0.56008200  0.27579800  0.81242400  1
  C  956  1  0.58192400  0.25252400  0.79917300  1
  C  957  1  0.62318000  0.25264600  0.79927600  1
  C  958  1  0.64432700  0.27603200  0.81260000  1
  C  959  1  0.62267700  0.29892300  0.82605300  1
  C  960  1  0.58148300  0.29885500  0.82591200  1
  C  961  1  0.29042200  0.27980600  0.88559100  1
  C  962  1  0.28517600  0.31544100  0.89571600  1
  C  963  1  0.28448200  0.31633600  0.91631020  1
  C  964  1  0.28924100  0.28178900  0.92750720  1
  C  965  1  0.29462800  0.24623100  0.91716520  1
  C  966  1  0.29509600  0.24517300  0.89657300  1
  C  967  1  0.28876900  0.28276400  0.94849820  1
  C  968  1  0.26146300  0.30595400  0.95894720  1
  C  969  1  0.26116900  0.30690100  0.97955520  1
  C  970  1  0.28803600  0.28462300  0.99054324  1
  C  971  1  0.31561000  0.26165600  0.98021020  1
  C  972  1  0.31584500  0.26068100  0.95961620  1
  C  973  1  0.14424700  0.27696500  0.81390700  1
  C  974  1  0.12329600  0.24301700  0.81931500  1
  C  975  1  0.08209500  0.24309000  0.81988600  1
  C  976  1  0.06039200  0.27683900  0.81475200  1
  C  977  1  0.08160000  0.31065100  0.80918900  1
  C  978  1  0.12280100  0.31084900  0.80892600  1
  C  979  1  0.01849300  0.27692500  0.81529300  1
  C  980  1  0.99627099  0.29256900  0.79967000  1
  C  981  1  0.95508100  0.29319300  0.80031900  1
  C  982  1  0.93468300  0.27836100  0.81669800  1
  C  983  1  0.95661300  0.26327200  0.83243900  1
  C  984  1  0.99779699  0.26205500  0.83163500  1
  C  985  1  0.28795300  0.27623800  0.74104700  1
  C  986  1  0.28120000  0.24137200  0.73048500  1
  C  987  1  0.29401800  0.31119300  0.73049100  1
  C  988  1  0.29344800  0.31119900  0.70989700  1
  C  989  1  0.28651500  0.27643300  0.69912800  1
  C  990  1  0.28035300  0.24155300  0.70988600  1
  C  991  1  0.28584200  0.27660300  0.67814200  1
  C  992  1  0.25720200  0.25556500  0.66748100  1
  C  993  1  0.25646400  0.25612800  0.64687100  1
  C  994  1  0.28441600  0.27752300  0.63609000  1
  C  995  1  0.31316600  0.29850700  0.64665700  1
  C  996  1  0.31380300  0.29804500  0.66724800  1
  C  1043  1  0.27805000  0.21225000  0.26240500  1
  C  1044  1  0.27758700  0.18346900  0.27655100  1
  C  1045  1  0.27754700  0.20149500  0.29489500  1
  C  1047  1  0.27853000  0.24865200  0.27171600  1
  C  1048  1  0.27888200  0.28544600  0.26194100  1
  C  1049  1  0.27832000  0.32237400  0.27152700  1
  C  1051  1  0.27759700  0.36861800  0.29490100  1
  C  1052  1  0.27704900  0.38727500  0.27674000  1
  C  1053  1  0.27790200  0.35887700  0.26238400  1
  C  1054  1  0.27754200  0.38737000  0.31348400  1
  C  1055  1  0.27805300  0.36709400  0.33169800  1
  C  1057  1  0.27860000  0.31985700  0.35487000  1
  C  1058  1  0.27983500  0.35622300  0.36418800  1
  C  1059  1  0.27975200  0.38502100  0.35005200  1
  C  1060  1  0.27841300  0.28306900  0.36465400  1
  C  1061  1  0.27778100  0.24613900  0.35508300  1
  C  1063  1  0.27736200  0.19997400  0.33170200  1
  C  1064  1  0.27718100  0.18122900  0.34983800  1
  C  1065  1  0.27763200  0.20961100  0.36421300  1
  C  1066  1  0.27717600  0.18131300  0.31311400  1
  C  1067  1  0.27686300  0.13946100  0.31276500  1
  C  1068  1  0.31189400  0.11805300  0.31495700  1
  C  1069  1  0.31153800  0.07685200  0.31476100  1
  C  1070  1  0.27629800  0.05552700  0.31230900  1
  C  1071  1  0.24137400  0.07737900  0.30996900  1
  C  1072  1  0.24157700  0.11859900  0.31023700  1
  C  1073  1  0.27602300  0.01348800  0.31240100  1
  C  1074  1  0.25276400  0.99166799  0.29915200  1
  C  1075  1  0.25284400  0.95041500  0.29925900  1
  C  1076  1  0.27616400  0.92925000  0.31258400  1
  C  1077  1  0.29902100  0.95087700  0.32604100  1
  C  1078  1  0.29898300  0.99207099  0.32590200  1
  C  1079  1  0.27920400  0.28312200  0.38556800  1
  C  1080  1  0.31473400  0.28812300  0.39578300  1
  C  1081  1  0.31542400  0.28832800  0.41638300  1
  C  1082  1  0.28076700  0.28329800  0.42749300  1
  C  1083  1  0.24530300  0.27823100  0.41706100  1
  C  1084  1  0.24445300  0.27824600  0.39646600  1
  C  1085  1  0.28156400  0.28304600  0.44848800  1
  C  1086  1  0.30474400  0.30991200  0.45920400  1
  C  1087  1  0.30557700  0.30942400  0.47981300  1
  C  1088  1  0.28317200  0.28220200  0.49053300  1
  C  1089  1  0.26020400  0.25507400  0.47993100  1
  C  1090  1  0.25937600  0.25559300  0.45933800  1
  C  1091  1  0.27738400  0.42930200  0.31384400  1
  C  1092  1  0.24335600  0.45021300  0.31920100  1
  C  1093  1  0.24336600  0.49141700  0.31977900  1
  C  1094  1  0.27714400  0.51317200  0.31472000  1
  C  1095  1  0.31104500  0.49201300  0.30922200  1
  C  1096  1  0.31130200  0.45080900  0.30895000  1
  C  1097  1  0.27716800  0.55507500  0.31526500  1
  C  1098  1  0.29291100  0.57732100  0.29966100  1
  C  1099  1  0.29347800  0.61851300  0.30031200  1
  C  1100  1  0.27850300  0.63889000  0.31667900  1
  C  1101  1  0.26331800  0.61693400  0.33240100  1
  C  1102  1  0.26217500  0.57574700  0.33159800  1
  C  1103  1  0.27990100  0.28533500  0.24102300  1
  C  1104  1  0.24559500  0.29187800  0.23001900  1
  C  1105  1  0.31526800  0.27840300  0.23090900  1
  C  1106  1  0.31623900  0.27795800  0.21031500  1
  C  1107  1  0.28205000  0.28472800  0.19911200  1
  C  1108  1  0.24674900  0.29174000  0.20942800  1
  C  1109  1  0.28313300  0.28464700  0.17813200  1
  C  1110  1  0.26274200  0.31320200  0.16714300  1
  C  1111  1  0.26359600  0.31318100  0.14655100  1
  C  1112  1  0.28489900  0.28448100  0.13608600  1
  C  1113  1  0.30524300  0.25593900  0.14696100  1
  C  1114  1  0.30450300  0.25606700  0.16757300  1
  C  1161  1  0.29553800  0.27577900  0.04365100  1
  C  1163  1  0.25822700  0.31260000  0.06739100  1
  C  1164  1  0.27919700  0.29484600  0.08297200  1
  C  1166  1  0.31653200  0.25807300  0.05924000  1
  C  1167  1  0.34667800  0.23146900  0.05654200  1
  C  1168  1  0.22815200  0.33933400  0.07010300  1
  C  1175  1  0.30149300  0.26712500  0.02395000  1
  C  1177  1  0.27336500  0.30363700  0.10265500  1
  C  1179  1  0.27407200  0.27256800  0.54354200  1
  C  1181  1  0.31078500  0.30884200  0.56768600  1
  C  1182  1  0.29343600  0.28677000  0.58301500  1
  C  1184  1  0.25667000  0.25055600  0.55887800  1
  C  1185  1  0.23030800  0.22033500  0.55579200  1
  C  1186  1  0.33724900  0.33898800  0.57073600  1
  C  1193  1  0.26536600  0.26760900  0.52378900  1
  C  1195  1  0.30252800  0.29144500  0.60273500  1
  C  1197  1  0.74998200  0.29118000  0.81611900  1
  C  1199  1  0.80175000  0.24588000  0.80789300  1
  C  1200  1  0.82993400  0.27603700  0.81004100  1
  C  1202  1  0.77843300  0.32122500  0.81813500  1
  C  1203  1  0.76936900  0.35960300  0.82287100  1
  C  1204  1  0.81151900  0.20760200  0.80317300  1
  C  1211  1  0.71012200  0.29692200  0.81923500  1
  C  1213  1  0.86927400  0.27180900  0.80576700  1
  C  1215  1  0.29132200  0.82359800  0.31609000  1
  C  1217  1  0.24600500  0.77184800  0.30788400  1
  C  1218  1  0.27613800  0.74364600  0.31002800  1
  C  1220  1  0.32134000  0.79512600  0.31811000  1
  C  1221  1  0.35969200  0.80414700  0.32283200  1
  C  1222  1  0.20773200  0.76210800  0.30317600  1
  C  1229  1  0.29708000  0.86346700  0.31917600  1
  C  1231  1  0.27190000  0.70430400  0.30576100  1
  N  4  1  0.03481000  0.97862800  0.96659800  1
  N  8  1  0.94547000  0.97867700  0.96647100  1
  N  14  1  0.94723900  0.97918900  0.01095200  1
  N  20  1  0.03657000  0.97935000  0.01111400  1
  N  115  1  0.38526700  0.97671200  0.98714300  1
  N  116  1  0.98334400  0.97856100  0.79202600  1
  N  117  1  0.59762800  0.98215500  0.99382900  1
  N  118  1  0.98802300  0.98919200  0.18549400  1
  N  122  1  0.97990800  0.94226200  0.46659200  1
  N  126  1  0.97998200  0.03159700  0.46642200  1
  N  132  1  0.97926000  0.02987200  0.51091100  1
  N  138  1  0.97945900  0.94054200  0.51109800  1
  N  233  1  0.97681500  0.59186800  0.48713300  1
  N  234  1  0.98861500  0.98393000  0.29202900  1
  N  235  1  0.98227100  0.37950700  0.49381100  1
  N  236  1  0.98768700  0.98495500  0.68549800  1
  N  238  1  0.96915900  0.00378200  0.22419800  1
  N  241  1  0.00915900  0.97042900  0.25334400  1
  N  256  1  0.00187400  0.00243600  0.72440600  1
  N  259  1  0.96919800  0.96045100  0.75307200  1
  N  274  1  0.46524400  0.95682100  0.98658700  1
  N  277  1  0.51843500  0.01397500  0.99034500  1
  N  292  1  0.95696600  0.51190900  0.48656900  1
  N  295  1  0.01407100  0.45868800  0.49032200  1
  N  312  1  0.80088400  0.74470200  0.90811310  1
  N  316  1  0.71154400  0.74475100  0.90798610  1
  N  322  1  0.71331300  0.74526300  0.95246710  1
  N  328  1  0.80264400  0.74542400  0.95262910  1
  N  423  1  0.15134100  0.74278600  0.92865810  1
  N  424  1  0.74941800  0.74463500  0.73354100  1
  N  425  1  0.36370200  0.74822900  0.93534410  1
  N  426  1  0.75409700  0.75526600  0.12700900  1
  N  430  1  0.74598200  0.70833600  0.40810700  1
  N  434  1  0.74605600  0.79767100  0.40793700  1
  N  440  1  0.74533400  0.79594600  0.45242600  1
  N  446  1  0.74553300  0.70661600  0.45261300  1
  N  541  1  0.74288900  0.35794200  0.42864800  1
  N  542  1  0.75468900  0.75000400  0.23354400  1
  N  543  1  0.74834500  0.14558100  0.43532600  1
  N  544  1  0.75376100  0.75102900  0.62701300  1
  N  546  1  0.73523300  0.76985600  0.16571300  1
  N  549  1  0.77523300  0.73650300  0.19485900  1
  N  564  1  0.76794800  0.76851000  0.66592100  1
  N  567  1  0.73527200  0.72652500  0.69458700  1
  N  582  1  0.23131800  0.72289500  0.92810210  1
  N  585  1  0.28450900  0.78004900  0.93186010  1
  N  600  1  0.72304000  0.27798300  0.42808400  1
  N  603  1  0.78014500  0.22476200  0.43183700  1
  N  620  1  0.56695700  0.51077500  0.84962800  1
  N  624  1  0.47761700  0.51082400  0.84950100  1
  N  630  1  0.47938600  0.51133600  0.89398200  1
  N  636  1  0.56871700  0.51149700  0.89414400  1
  N  731  1  0.91741430  0.50885900  0.87017300  1
  N  732  1  0.51549100  0.51070800  0.67505600  1
  N  733  1  0.12977500  0.51430200  0.87685900  1
  N  734  1  0.52017000  0.52133900  0.06852400  1
  N  738  1  0.51205500  0.47440900  0.34962200  1
  N  742  1  0.51212900  0.56374400  0.34945200  1
  N  748  1  0.51140700  0.56201900  0.39394100  1
  N  754  1  0.51160600  0.47268900  0.39412800  1
  N  849  1  0.50896200  0.12401500  0.37016300  1
  N  850  1  0.52076200  0.51607700  0.17505900  1
  N  851  1  0.51441800  0.91165430  0.37684100  1
  N  852  1  0.51983400  0.51710200  0.56852800  1
  N  854  1  0.50130600  0.53592900  0.10722800  1
  N  857  1  0.54130600  0.50257600  0.13637400  1
  N  872  1  0.53402100  0.53458300  0.60743600  1
  N  875  1  0.50134500  0.49259800  0.63610200  1
  N  890  1  0.99739133  0.48896800  0.86961700  1
  N  893  1  0.05058200  0.54612200  0.87337500  1
  N  908  1  0.48911300  0.04405600  0.36959900  1
  N  911  1  0.54621800  0.99083533  0.37335200  1
  N  928  1  0.33303100  0.27684900  0.79114300  1
  N  932  1  0.24369100  0.27689800  0.79101600  1
  N  938  1  0.24546000  0.27741000  0.83549700  1
  N  944  1  0.33479100  0.27757100  0.83565900  1
  N  1039  1  0.68348800  0.27493300  0.81168800  1
  N  1040  1  0.28156500  0.27678200  0.61657100  1
  N  1041  1  0.89584900  0.28037600  0.81837400  1
  N  1042  1  0.28624400  0.28741300  0.01003900  1
  N  1046  1  0.27812900  0.24048300  0.29113700  1
  N  1050  1  0.27820300  0.32981800  0.29096700  1
  N  1056  1  0.27748100  0.32809300  0.33545600  1
  N  1062  1  0.27768000  0.23876300  0.33564300  1
  N  1157  1  0.27503600  0.89008900  0.31167800  1
  N  1158  1  0.28683600  0.28215100  0.11657400  1
  N  1159  1  0.28049200  0.67772800  0.31835600  1
  N  1160  1  0.28590800  0.28317600  0.51004300  1
  N  1162  1  0.26738000  0.30200300  0.04874300  1
  N  1165  1  0.30738000  0.26865000  0.07788900  1
  N  1180  1  0.30009500  0.30065700  0.54895100  1
  N  1183  1  0.26741900  0.25867200  0.57761700  1
  N  1198  1  0.76346500  0.25504200  0.81113200  1
  N  1201  1  0.81665600  0.31219600  0.81489000  1
  N  1216  1  0.25518700  0.81013000  0.31111400  1
  N  1219  1  0.31229200  0.75690900  0.31486700  1
  O  245  1  0.04869700  0.90383900  0.24214000  1
  O  246  1  0.08114100  0.94405200  0.22644400  1
  O  248  1  0.92980600  0.07040300  0.23533400  1
  O  249  1  0.89748500  0.03048500  0.25151800  1
  O  263  1  0.90280600  0.92144300  0.74151100  1
  O  264  1  0.94307000  0.88975800  0.72536200  1
  O  266  1  0.06798500  0.04227600  0.73573000  1
  O  267  1  0.02836100  0.07270400  0.75280400  1
  O  281  1  0.48212100  0.08672000  0.98699500  1
  O  282  1  0.46869700  0.07164100  0.01561400  1
  O  284  1  0.49158500  0.89114300  0.96775000  1
  O  285  1  0.53284300  0.88874300  0.98980600  1
  O  299  1  0.08710200  0.49434800  0.48724500  1
  O  300  1  0.07175800  0.50921900  0.51553100  1
  O  302  1  0.89131700  0.48560900  0.46775600  1
  O  303  1  0.88882700  0.44438300  0.48982400  1
  O  553  1  0.81477100  0.66991300  0.18365500  1
  O  554  1  0.84721500  0.71012600  0.16795900  1
  O  556  1  0.69588000  0.83647700  0.17684900  1
  O  557  1  0.66355900  0.79655900  0.19303300  1
  O  571  1  0.66888000  0.68751700  0.68302600  1
  O  572  1  0.70914400  0.65583200  0.66687700  1
  O  574  1  0.83405900  0.80835000  0.67724500  1
  O  575  1  0.79443500  0.83877800  0.69431900  1
  O  589  1  0.24819500  0.85279400  0.92851010  1
  O  590  1  0.23477100  0.83771500  0.95712910  1
  O  592  1  0.25765900  0.65721700  0.90926510  1
  O  593  1  0.29891700  0.65481700  0.93132110  1
  O  607  1  0.85317600  0.26042200  0.42876000  1
  O  608  1  0.83783200  0.27529300  0.45704600  1
  O  610  1  0.65739100  0.25168300  0.40927100  1
  O  611  1  0.65490100  0.21045700  0.43133900  1
  O  861  1  0.58084400  0.43598600  0.12517000  1
  O  862  1  0.61328800  0.47619900  0.10947400  1
  O  864  1  0.46195300  0.60255000  0.11836400  1
  O  865  1  0.42963200  0.56263200  0.13454800  1
  O  879  1  0.43495300  0.45359000  0.62454100  1
  O  880  1  0.47521700  0.42190500  0.60839200  1
  O  882  1  0.60013200  0.57442300  0.61876000  1
  O  883  1  0.56050800  0.60485100  0.63583400  1
  O  897  1  0.01426800  0.61886700  0.87002500  1
  O  898  1  0.00084400  0.60378800  0.89864400  1
  O  900  1  0.02373200  0.42329000  0.85078000  1
  O  901  1  0.06499000  0.42089000  0.87283600  1
  O  915  1  0.61924900  0.02649500  0.37027500  1
  O  916  1  0.60390500  0.04136600  0.39856100  1
  O  918  1  0.42346400  0.01775600  0.35078600  1
  O  919  1  0.42097400  0.97653030  0.37285400  1
  O  1169  1  0.34691800  0.20206000  0.06668500  1
  O  1170  1  0.37936200  0.24227300  0.05098900  1
  O  1172  1  0.22802700  0.36862400  0.05987900  1
  O  1173  1  0.19570600  0.32870600  0.07606300  1
  O  1187  1  0.20102700  0.21966400  0.56605600  1
  O  1188  1  0.24129100  0.18797900  0.54990700  1
  O  1190  1  0.36620600  0.34049700  0.56027500  1
  O  1191  1  0.32658200  0.37092500  0.57734900  1
  O  1205  1  0.78034200  0.38494100  0.81154000  1
  O  1206  1  0.76691800  0.36986200  0.84015900  1
  O  1208  1  0.78980600  0.18936400  0.79229500  1
  O  1209  1  0.83106400  0.18696400  0.81435100  1
  O  1223  1  0.38532300  0.79256900  0.31179000  1
  O  1224  1  0.36997900  0.80744000  0.34007600  1
  O  1226  1  0.18953800  0.78383000  0.29230100  1
  O  1227  1  0.18704800  0.74260400  0.31436900  1
