# generated using pymatgen
data_H19(C16N3)2
_symmetry_space_group_name_H-M   'P 1'
_cell_length_a   53.49160000
_cell_length_b   61.34740000
_cell_length_c   61.34460000
_cell_angle_alpha   89.97280000
_cell_angle_beta   90.06680000
_cell_angle_gamma   90.03340000
_symmetry_Int_Tables_number   1
_chemical_formula_structural   H19(C16N3)2
_chemical_formula_sum   'H912 C1536 N288'
_cell_volume   201306.44107606
_cell_formula_units_Z   48
loop_
 _symmetry_equiv_pos_site_id
 _symmetry_equiv_pos_as_xyz
  1  'x, y, z'
loop_
 _atom_site_type_symbol
 _atom_site_label
 _atom_site_symmetry_multiplicity
 _atom_site_fract_x
 _atom_site_fract_y
 _atom_site_fract_z
 _atom_site_occupancy
  H  49  1  0.87860600  0.04325600  0.89776000  1
  H  50  1  0.90594300  0.02285000  0.92078400  1
  H  51  1  0.93649300  0.08860100  0.88584900  1
  H  52  1  0.96373600  0.06810400  0.90908800  1
  H  53  1  0.96833000  0.01884100  0.89046000  1
  H  54  1  0.00155600  0.98940800  0.88966600  1
  H  55  1  0.98533300  0.00268500  0.95327400  1
  H  56  1  0.98772000  0.00384200  0.99182100  1
  H  57  1  0.91952700  0.06290400  0.95326600  1
  H  58  1  0.92042600  0.06272000  0.99452000  1
  H  59  1  0.91289200  0.01811100  0.03297600  1
  H  60  1  0.88574000  0.03762100  0.05688400  1
  H  61  1  0.96198500  0.07186500  0.03127400  1
  H  62  1  0.93480000  0.09158600  0.05516700  1
  H  63  1  0.96934400  0.01564300  0.05529200  1
  H  64  1  0.00149200  0.98520900  0.05456500  1
  H  65  1  0.04950200  0.94130200  0.95055500  1
  H  66  1  0.05008700  0.94092600  0.99179700  1
  H  67  1  0.06047500  0.97856300  0.03532600  1
  H  68  1  0.08149400  0.95300200  0.05857600  1
  H  69  1  0.00261800  0.93304000  0.02487400  1
  H  70  1  0.02344200  0.90749200  0.04786600  1
  H  71  1  0.99892000  0.94295700  0.90459700  1
  H  72  1  0.02005200  0.92286900  0.87660300  1
  H  73  1  0.08721000  0.95587400  0.89147100  1
  H  74  1  0.06588200  0.97630900  0.91913300  1
  H  79  1  0.06115600  0.89628900  0.06654300  1
  H  80  1  0.87263900  0.07313800  0.07154100  1
  H  81  1  0.86955500  0.07748600  0.87888200  1
  H  82  1  0.06280500  0.93192500  0.84936800  1
  H  131  1  0.37819900  0.96556900  0.54748600  1
  H  132  1  0.40550800  0.98600500  0.52450000  1
  H  133  1  0.43619300  0.92043000  0.55967200  1
  H  134  1  0.46340300  0.94095900  0.53646500  1
  H  135  1  0.46802400  0.99012100  0.55501000  1
  H  136  1  0.50126100  0.01958100  0.55585400  1
  H  137  1  0.48491700  0.00639400  0.49222300  1
  H  138  1  0.48749400  0.00523000  0.45368500  1
  H  139  1  0.41913400  0.94611800  0.49204700  1
  H  140  1  0.42005800  0.94638900  0.45079800  1
  H  141  1  0.41252200  0.99101700  0.41249700  1
  H  142  1  0.38534900  0.97147000  0.38855100  1
  H  143  1  0.46174300  0.93738700  0.41412700  1
  H  144  1  0.43454200  0.91762800  0.39020600  1
  H  145  1  0.46901300  0.99351700  0.39018800  1
  H  146  1  0.50126700  0.02389800  0.39096400  1
  H  147  1  0.54933800  0.06766300  0.49512800  1
  H  148  1  0.55002400  0.06806300  0.45388500  1
  H  149  1  0.56017300  0.03040400  0.41012800  1
  H  150  1  0.58123600  0.05592700  0.38688800  1
  H  151  1  0.50267800  0.07613900  0.42079300  1
  H  152  1  0.52355100  0.10164800  0.39781600  1
  H  153  1  0.49869300  0.06618200  0.54076500  1
  H  154  1  0.51988800  0.08622800  0.56881900  1
  H  155  1  0.58683000  0.05282400  0.55435900  1
  H  156  1  0.56544100  0.03244600  0.52663300  1
  H  161  1  0.56113400  0.11272900  0.37897400  1
  H  162  1  0.37232500  0.93595800  0.37381000  1
  H  163  1  0.36921000  0.93138600  0.56646500  1
  H  164  1  0.56270600  0.07686400  0.59625000  1
  H  213  1  0.62907400  0.18162700  0.67966200  1
  H  214  1  0.65596200  0.20289000  0.70249800  1
  H  215  1  0.68919700  0.16987100  0.63676300  1
  H  216  1  0.71603200  0.19146300  0.65954700  1
  H  217  1  0.71789700  0.17254700  0.70964900  1
  H  218  1  0.75082000  0.17201000  0.73944400  1
  H  219  1  0.73628900  0.23548300  0.72407900  1
  H  220  1  0.73803500  0.27410000  0.72320000  1
  H  221  1  0.67080200  0.23508700  0.66356700  1
  H  222  1  0.67135700  0.27631900  0.66371900  1
  H  223  1  0.66181400  0.31390200  0.70804600  1
  H  224  1  0.63454000  0.33728300  0.68791100  1
  H  225  1  0.71284800  0.31392800  0.65573300  1
  H  226  1  0.68558400  0.33729100  0.63541200  1
  H  227  1  0.71858700  0.33740000  0.71165900  1
  H  228  1  0.75080500  0.33690700  0.74210700  1
  H  229  1  0.80004100  0.23322500  0.78595900  1
  H  230  1  0.80052900  0.27447100  0.78609400  1
  H  231  1  0.81033400  0.31793500  0.74867500  1
  H  232  1  0.83115100  0.34133200  0.77421200  1
  H  233  1  0.75240400  0.30740800  0.79403000  1
  H  234  1  0.77301800  0.33057400  0.81955000  1
  H  235  1  0.74750200  0.19040000  0.78643200  1
  H  236  1  0.76728300  0.16446800  0.80977800  1
  H  237  1  0.83521300  0.17347200  0.77582900  1
  H  238  1  0.81517100  0.19924600  0.75238200  1
  H  243  1  0.81049100  0.34944100  0.83081700  1
  H  244  1  0.62212700  0.35115100  0.65150400  1
  H  245  1  0.62760500  0.17425000  0.63485300  1
  H  246  1  0.80371300  0.14292400  0.81978700  1
  H  295  1  0.12915700  0.82707500  0.76597000  1
  H  296  1  0.15594500  0.80581100  0.74315000  1
  H  297  1  0.18947300  0.83909100  0.80871400  1
  H  298  1  0.21621800  0.81749200  0.78594400  1
  H  299  1  0.21795800  0.83627100  0.73587600  1
  H  300  1  0.25080800  0.83682100  0.70608400  1
  H  301  1  0.23630700  0.77334500  0.72146500  1
  H  302  1  0.23804700  0.73471800  0.72228900  1
  H  303  1  0.17097000  0.77367500  0.78196100  1
  H  304  1  0.17151000  0.73244300  0.78176900  1
  H  305  1  0.16181700  0.69489200  0.73745600  1
  H  306  1  0.13456600  0.67152900  0.75760200  1
  H  307  1  0.21298400  0.69489500  0.78977100  1
  H  308  1  0.18573500  0.67154000  0.81010500  1
  H  309  1  0.21863500  0.67141000  0.73385200  1
  H  310  1  0.25082500  0.67191400  0.70344500  1
  H  311  1  0.29986800  0.77565500  0.65955100  1
  H  312  1  0.30039600  0.73441300  0.65941600  1
  H  313  1  0.31037300  0.69090000  0.69687000  1
  H  314  1  0.33115400  0.66752700  0.67134600  1
  H  315  1  0.25240100  0.70139700  0.65146400  1
  H  316  1  0.27297600  0.67826400  0.62595600  1
  H  317  1  0.24735000  0.81842000  0.65910000  1
  H  318  1  0.26706100  0.84435300  0.63572900  1
  H  319  1  0.33510200  0.83541600  0.66963700  1
  H  320  1  0.31513100  0.80964300  0.69311100  1
  H  325  1  0.31033900  0.65934500  0.61471500  1
  H  326  1  0.12220300  0.65771300  0.79402000  1
  H  327  1  0.12779800  0.83460100  0.81066000  1
  H  328  1  0.30346900  0.86589700  0.62565400  1
  H  377  1  0.34617900  0.82854400  0.26725500  1
  H  378  1  0.31995200  0.80698600  0.24407900  1
  H  379  1  0.28519900  0.83958600  0.30943100  1
  H  380  1  0.25904000  0.81775100  0.28630400  1
  H  381  1  0.25786600  0.83687500  0.23636800  1
  H  382  1  0.22495200  0.83736200  0.20655600  1
  H  383  1  0.23965100  0.77391100  0.22192000  1
  H  384  1  0.23822900  0.73531200  0.22265500  1
  H  385  1  0.30532200  0.77440100  0.28229300  1
  H  386  1  0.30499300  0.73316000  0.28205200  1
  H  387  1  0.31365800  0.69478400  0.23701000  1
  H  388  1  0.34085400  0.67080700  0.25645900  1
  H  389  1  0.26434900  0.69587100  0.29055700  1
  H  390  1  0.29159200  0.67190500  0.31022600  1
  H  391  1  0.25757400  0.67200200  0.23428600  1
  H  392  1  0.22533100  0.67249300  0.20386700  1
  H  393  1  0.17601300  0.77607600  0.15994600  1
  H  394  1  0.17567500  0.73484800  0.15978500  1
  H  395  1  0.16557200  0.69180000  0.19706800  1
  H  396  1  0.14467400  0.66864000  0.17136200  1
  H  397  1  0.22400400  0.70184300  0.15208500  1
  H  398  1  0.20330600  0.67891700  0.12638900  1
  H  399  1  0.22836700  0.81860800  0.15938300  1
  H  400  1  0.20853100  0.84405100  0.13555900  1
  H  401  1  0.14057200  0.83546000  0.16956700  1
  H  402  1  0.16067800  0.81015900  0.19349400  1
  H  407  1  0.16540800  0.66060800  0.11486000  1
  H  408  1  0.35387700  0.65578400  0.29183400  1
  H  409  1  0.34505700  0.83564400  0.31366500  1
  H  410  1  0.17209700  0.86520200  0.12502300  1
  H  459  1  0.84642500  0.18046400  0.17845300  1
  H  460  1  0.82019800  0.20195000  0.20159800  1
  H  461  1  0.78537200  0.16916300  0.13629300  1
  H  462  1  0.75921200  0.19093900  0.15939900  1
  H  463  1  0.75798400  0.17194600  0.20929200  1
  H  464  1  0.72510000  0.17145500  0.23906600  1
  H  465  1  0.73990800  0.23490600  0.22377800  1
  H  466  1  0.73841600  0.27352200  0.22302500  1
  H  467  1  0.80546300  0.23447000  0.16344700  1
  H  468  1  0.80513700  0.27570700  0.16371200  1
  H  469  1  0.81389300  0.31411300  0.20869800  1
  H  470  1  0.84106600  0.33806200  0.18920500  1
  H  471  1  0.76443900  0.31293000  0.15516000  1
  H  472  1  0.79165500  0.33686900  0.13544700  1
  H  473  1  0.75779300  0.33683200  0.21140600  1
  H  474  1  0.72554700  0.33634300  0.24175800  1
  H  475  1  0.67623500  0.23271300  0.28561200  1
  H  476  1  0.67587000  0.27394000  0.28576500  1
  H  477  1  0.66581100  0.31712500  0.24849900  1
  H  478  1  0.64495100  0.34027100  0.27418200  1
  H  479  1  0.72416200  0.30694700  0.29362500  1
  H  480  1  0.70350300  0.32985400  0.31929400  1
  H  481  1  0.72855900  0.19016400  0.28627100  1
  H  482  1  0.70866400  0.16474900  0.31007100  1
  H  483  1  0.64070600  0.17341300  0.27596800  1
  H  484  1  0.66086800  0.19868200  0.25206100  1
  H  489  1  0.66579000  0.34831900  0.33074900  1
  H  490  1  0.85402000  0.35302000  0.15379900  1
  H  491  1  0.84539400  0.17334500  0.13218800  1
  H  492  1  0.67217400  0.14366000  0.32058200  1
  H  541  1  0.38113600  0.54750000  0.39708100  1
  H  542  1  0.40727600  0.52424600  0.41863500  1
  H  543  1  0.44134000  0.59116900  0.38866500  1
  H  544  1  0.46740300  0.56795400  0.41047100  1
  H  545  1  0.47002800  0.51790400  0.39029800  1
  H  546  1  0.50290300  0.48810600  0.39010000  1
  H  547  1  0.48641000  0.50243700  0.45341800  1
  H  548  1  0.48638200  0.50224100  0.49186200  1
  H  549  1  0.41949500  0.56167900  0.45238200  1
  H  550  1  0.41944100  0.56142400  0.49359800  1
  H  551  1  0.41782600  0.51587600  0.53807000  1
  H  552  1  0.39291300  0.53409900  0.56467600  1
  H  553  1  0.45795700  0.57395100  0.52671600  1
  H  554  1  0.43274600  0.59244500  0.55319100  1
  H  555  1  0.47172600  0.51797100  0.55520600  1
  H  556  1  0.50397200  0.48770400  0.55495300  1
  H  557  1  0.54956200  0.44015300  0.45175000  1
  H  558  1  0.54974000  0.44011900  0.49303700  1
  H  559  1  0.56364100  0.47780800  0.53181900  1
  H  560  1  0.58400700  0.45430700  0.55744200  1
  H  561  1  0.50103700  0.43603100  0.53112900  1
  H  562  1  0.52125100  0.41243900  0.55663400  1
  H  563  1  0.49819300  0.44067300  0.40846500  1
  H  564  1  0.51805600  0.41696000  0.38299300  1
  H  565  1  0.58635700  0.45024800  0.39269200  1
  H  566  1  0.56623600  0.47405600  0.41802800  1
  H  571  1  0.55561700  0.40564500  0.58215100  1
  H  572  1  0.38776100  0.56587800  0.58891000  1
  H  573  1  0.38197100  0.59468000  0.39163300  1
  H  574  1  0.55466600  0.40612400  0.36235200  1
  H  623  1  0.88096700  0.46107400  0.04805800  1
  H  624  1  0.90706900  0.48431400  0.02650000  1
  H  625  1  0.94134100  0.41774500  0.05705800  1
  H  626  1  0.96737500  0.44093900  0.03523500  1
  H  627  1  0.96988200  0.49089900  0.05516600  1
  H  628  1  0.00275200  0.52073300  0.05542800  1
  H  629  1  0.98639300  0.50630100  0.99207500  1
  H  630  1  0.98641000  0.50662600  0.95364100  1
  H  631  1  0.91948000  0.44701300  0.99291400  1
  H  632  1  0.91945400  0.44736200  0.95169500  1
  H  633  1  0.91769700  0.49300400  0.90747000  1
  H  634  1  0.89278100  0.47478200  0.88079100  1
  H  635  1  0.95810600  0.43504500  0.91859600  1
  H  636  1  0.93290000  0.41655400  0.89204700  1
  H  637  1  0.97168200  0.49096800  0.89026700  1
  H  638  1  0.00397900  0.52122800  0.89058000  1
  H  639  1  0.04950400  0.56870500  0.99394700  1
  H  640  1  0.04977100  0.56878700  0.95265800  1
  H  641  1  0.06366500  0.53108100  0.91375000  1
  H  642  1  0.08403400  0.55459000  0.88815800  1
  H  643  1  0.00118600  0.57292700  0.91448400  1
  H  644  1  0.02140200  0.59652600  0.88901300  1
  H  645  1  0.99807100  0.56821500  0.03686200  1
  H  646  1  0.01790200  0.59194000  0.06240700  1
  H  647  1  0.08611300  0.55846400  0.05318800  1
  H  648  1  0.06602600  0.53465400  0.02777800  1
  H  653  1  0.05570800  0.60331300  0.86349300  1
  H  654  1  0.88780700  0.44303100  0.85639300  1
  H  655  1  0.88178500  0.41412500  0.05386100  1
  H  656  1  0.05445400  0.60263300  0.08332600  1
  H  667  1  0.88191200  0.15452900  0.15464400  1
  H  668  1  0.92654300  0.15602600  0.15676100  1
  H  669  1  0.95200000  0.13545700  0.13144300  1
  H  670  1  0.93279000  0.11309700  0.10408300  1
  H  683  1  0.38166500  0.85437100  0.29098100  1
  H  684  1  0.42630200  0.85287600  0.28898100  1
  H  685  1  0.45176200  0.87354400  0.31429200  1
  H  686  1  0.43255300  0.89599300  0.34152700  1
  H  699  1  0.63275500  0.43328900  0.56847200  1
  H  700  1  0.67729100  0.43764300  0.56987200  1
  H  701  1  0.70238100  0.41479100  0.59353400  1
  H  702  1  0.68301500  0.38755200  0.61593000  1
  H  715  1  0.13281000  0.57559100  0.87710400  1
  H  716  1  0.17732900  0.57119900  0.87570600  1
  H  717  1  0.20241400  0.59402000  0.85203600  1
  H  718  1  0.18305700  0.62126600  0.82963100  1
  H  731  1  0.59470200  0.15630100  0.29331700  1
  H  732  1  0.55070800  0.15199400  0.28710200  1
  H  733  1  0.52651600  0.12680000  0.30900500  1
  H  734  1  0.54614300  0.10604600  0.33728500  1
  H  747  1  0.09462700  0.85261800  0.15221500  1
  H  748  1  0.05065100  0.85697100  0.15838300  1
  H  749  1  0.02650700  0.88222000  0.13648400  1
  H  750  1  0.04616300  0.90298600  0.10825000  1
  H  763  1  0.84480600  0.43183800  0.87752300  1
  H  764  1  0.80118900  0.43909900  0.87252500  1
  H  765  1  0.77727500  0.41913700  0.84555500  1
  H  766  1  0.79682000  0.39158600  0.82383400  1
  H  779  1  0.34477700  0.57705000  0.56794200  1
  H  780  1  0.30118300  0.56971800  0.57294300  1
  H  781  1  0.27732300  0.58965200  0.59990100  1
  H  782  1  0.29689400  0.61724900  0.62160300  1
  H  795  1  0.09462300  0.85752600  0.78897700  1
  H  796  1  0.05000300  0.85705100  0.78627200  1
  H  797  1  0.02461200  0.87473000  0.81373100  1
  H  798  1  0.04382600  0.89333300  0.84364900  1
  H  811  1  0.59446100  0.15127900  0.65667600  1
  H  812  1  0.54984100  0.15173100  0.65935900  1
  H  813  1  0.52438400  0.13407200  0.63186300  1
  H  814  1  0.54353100  0.11552100  0.60192600  1
  H  827  1  0.34494100  0.57240900  0.37306300  1
  H  828  1  0.30031300  0.57046900  0.37482700  1
  H  829  1  0.27477300  0.59591300  0.35441300  1
  H  830  1  0.29388600  0.62322600  0.33195200  1
  H  843  1  0.84497200  0.43634100  0.07250600  1
  H  844  1  0.80034400  0.43832600  0.07081500  1
  H  845  1  0.77483200  0.41291200  0.09127100  1
  H  846  1  0.79397900  0.38558300  0.11370600  1
  H  859  1  0.38124800  0.85079300  0.65104900  1
  H  860  1  0.42583400  0.85219500  0.65494300  1
  H  861  1  0.45059000  0.87577200  0.63175300  1
  H  862  1  0.43083500  0.89805100  0.60461400  1
  H  875  1  0.88142700  0.15818300  0.79441900  1
  H  876  1  0.92600700  0.15683800  0.79054100  1
  H  877  1  0.95081800  0.13326800  0.81371900  1
  H  878  1  0.93112700  0.11094000  0.84083000  1
  H  891  1  0.13184700  0.57519200  0.07091200  1
  H  892  1  0.17578300  0.56884900  0.07542600  1
  H  893  1  0.19993100  0.59056400  0.10083800  1
  H  894  1  0.18031500  0.61878900  0.12161000  1
  H  907  1  0.63207600  0.43366400  0.37469900  1
  H  908  1  0.67599200  0.44007900  0.37017300  1
  H  909  1  0.70009100  0.41837200  0.34479200  1
  H  910  1  0.68045400  0.39008300  0.32406500  1
  H  961  1  0.63557700  0.04325600  0.89776000  1
  H  962  1  0.66291400  0.02285000  0.92078400  1
  H  963  1  0.69346400  0.08860100  0.88584900  1
  H  964  1  0.72070700  0.06810400  0.90908800  1
  H  965  1  0.72530100  0.01884100  0.89046000  1
  H  966  1  0.75852700  0.98940800  0.88966600  1
  H  967  1  0.74230400  0.00268500  0.95327400  1
  H  968  1  0.74469100  0.00384200  0.99182100  1
  H  969  1  0.67649800  0.06290400  0.95326600  1
  H  970  1  0.67739700  0.06272000  0.99452000  1
  H  971  1  0.66986300  0.01811100  0.03297600  1
  H  972  1  0.64271100  0.03762100  0.05688400  1
  H  973  1  0.71895600  0.07186500  0.03127400  1
  H  974  1  0.69177100  0.09158600  0.05516700  1
  H  975  1  0.72631500  0.01564300  0.05529200  1
  H  976  1  0.75846300  0.98520900  0.05456500  1
  H  977  1  0.80647300  0.94130200  0.95055500  1
  H  978  1  0.80705800  0.94092600  0.99179700  1
  H  979  1  0.81744600  0.97856300  0.03532600  1
  H  980  1  0.83846500  0.95300200  0.05857600  1
  H  981  1  0.75958900  0.93304000  0.02487400  1
  H  982  1  0.78041300  0.90749200  0.04786600  1
  H  983  1  0.75589100  0.94295700  0.90459700  1
  H  984  1  0.77702300  0.92286900  0.87660300  1
  H  985  1  0.84418100  0.95587400  0.89147100  1
  H  986  1  0.82285300  0.97630900  0.91913300  1
  H  991  1  0.81812700  0.89628900  0.06654300  1
  H  992  1  0.62961000  0.07313800  0.07154100  1
  H  993  1  0.62652600  0.07748600  0.87888200  1
  H  994  1  0.81977600  0.93192500  0.84936800  1
  H  1043  1  0.13517000  0.96556900  0.54748600  1
  H  1044  1  0.16247900  0.98600500  0.52450000  1
  H  1045  1  0.19316400  0.92043000  0.55967200  1
  H  1046  1  0.22037400  0.94095900  0.53646500  1
  H  1047  1  0.22499500  0.99012100  0.55501000  1
  H  1048  1  0.25823200  0.01958100  0.55585400  1
  H  1049  1  0.24188800  0.00639400  0.49222300  1
  H  1050  1  0.24446500  0.00523000  0.45368500  1
  H  1051  1  0.17610500  0.94611800  0.49204700  1
  H  1052  1  0.17702900  0.94638900  0.45079800  1
  H  1053  1  0.16949300  0.99101700  0.41249700  1
  H  1054  1  0.14232000  0.97147000  0.38855100  1
  H  1055  1  0.21871400  0.93738700  0.41412700  1
  H  1056  1  0.19151300  0.91762800  0.39020600  1
  H  1057  1  0.22598400  0.99351700  0.39018800  1
  H  1058  1  0.25823800  0.02389800  0.39096400  1
  H  1059  1  0.30630900  0.06766300  0.49512800  1
  H  1060  1  0.30699500  0.06806300  0.45388500  1
  H  1061  1  0.31714400  0.03040400  0.41012800  1
  H  1062  1  0.33820700  0.05592700  0.38688800  1
  H  1063  1  0.25964900  0.07613900  0.42079300  1
  H  1064  1  0.28052200  0.10164800  0.39781600  1
  H  1065  1  0.25566400  0.06618200  0.54076500  1
  H  1066  1  0.27685900  0.08622800  0.56881900  1
  H  1067  1  0.34380100  0.05282400  0.55435900  1
  H  1068  1  0.32241200  0.03244600  0.52663300  1
  H  1073  1  0.31810500  0.11272900  0.37897400  1
  H  1074  1  0.12929600  0.93595800  0.37381000  1
  H  1075  1  0.12618100  0.93138600  0.56646500  1
  H  1076  1  0.31967700  0.07686400  0.59625000  1
  H  1125  1  0.38604500  0.18162700  0.67966200  1
  H  1126  1  0.41293300  0.20289000  0.70249800  1
  H  1127  1  0.44616800  0.16987100  0.63676300  1
  H  1128  1  0.47300300  0.19146300  0.65954700  1
  H  1129  1  0.47486800  0.17254700  0.70964900  1
  H  1130  1  0.50779100  0.17201000  0.73944400  1
  H  1131  1  0.49326000  0.23548300  0.72407900  1
  H  1132  1  0.49500600  0.27410000  0.72320000  1
  H  1133  1  0.42777300  0.23508700  0.66356700  1
  H  1134  1  0.42832800  0.27631900  0.66371900  1
  H  1135  1  0.41878500  0.31390200  0.70804600  1
  H  1136  1  0.39151100  0.33728300  0.68791100  1
  H  1137  1  0.46981900  0.31392800  0.65573300  1
  H  1138  1  0.44255500  0.33729100  0.63541200  1
  H  1139  1  0.47555800  0.33740000  0.71165900  1
  H  1140  1  0.50777600  0.33690700  0.74210700  1
  H  1141  1  0.55701200  0.23322500  0.78595900  1
  H  1142  1  0.55750000  0.27447100  0.78609400  1
  H  1143  1  0.56730500  0.31793500  0.74867500  1
  H  1144  1  0.58812200  0.34133200  0.77421200  1
  H  1145  1  0.50937500  0.30740800  0.79403000  1
  H  1146  1  0.52998900  0.33057400  0.81955000  1
  H  1147  1  0.50447300  0.19040000  0.78643200  1
  H  1148  1  0.52425400  0.16446800  0.80977800  1
  H  1149  1  0.59218400  0.17347200  0.77582900  1
  H  1150  1  0.57214200  0.19924600  0.75238200  1
  H  1155  1  0.56746200  0.34944100  0.83081700  1
  H  1156  1  0.37909800  0.35115100  0.65150400  1
  H  1157  1  0.38457600  0.17425000  0.63485300  1
  H  1158  1  0.56068400  0.14292400  0.81978700  1
  H  1207  1  0.88612800  0.82707500  0.76597000  1
  H  1208  1  0.91291620  0.80581100  0.74315000  1
  H  1209  1  0.94644420  0.83909100  0.80871400  1
  H  1210  1  0.97318920  0.81749200  0.78594400  1
  H  1211  1  0.97492920  0.83627100  0.73587600  1
  H  1212  1  0.00777900  0.83682100  0.70608400  1
  H  1213  1  0.99327819  0.77334500  0.72146500  1
  H  1214  1  0.99501819  0.73471800  0.72228900  1
  H  1215  1  0.92794120  0.77367500  0.78196100  1
  H  1216  1  0.92848120  0.73244300  0.78176900  1
  H  1217  1  0.91878820  0.69489200  0.73745600  1
  H  1218  1  0.89153700  0.67152900  0.75760200  1
  H  1219  1  0.96995520  0.69489500  0.78977100  1
  H  1220  1  0.94270620  0.67154000  0.81010500  1
  H  1221  1  0.97560620  0.67141000  0.73385200  1
  H  1222  1  0.00779600  0.67191400  0.70344500  1
  H  1223  1  0.05683900  0.77565500  0.65955100  1
  H  1224  1  0.05736700  0.73441300  0.65941600  1
  H  1225  1  0.06734400  0.69090000  0.69687000  1
  H  1226  1  0.08812500  0.66752700  0.67134600  1
  H  1227  1  0.00937200  0.70139700  0.65146400  1
  H  1228  1  0.02994700  0.67826400  0.62595600  1
  H  1229  1  0.00432100  0.81842000  0.65910000  1
  H  1230  1  0.02403200  0.84435300  0.63572900  1
  H  1231  1  0.09207300  0.83541600  0.66963700  1
  H  1232  1  0.07210200  0.80964300  0.69311100  1
  H  1237  1  0.06731000  0.65934500  0.61471500  1
  H  1238  1  0.87917400  0.65771300  0.79402000  1
  H  1239  1  0.88476900  0.83460100  0.81066000  1
  H  1240  1  0.06044000  0.86589700  0.62565400  1
  H  1289  1  0.10315000  0.82854400  0.26725500  1
  H  1290  1  0.07692300  0.80698600  0.24407900  1
  H  1291  1  0.04217000  0.83958600  0.30943100  1
  H  1292  1  0.01601100  0.81775100  0.28630400  1
  H  1293  1  0.01483700  0.83687500  0.23636800  1
  H  1294  1  0.98192320  0.83736200  0.20655600  1
  H  1295  1  0.99662219  0.77391100  0.22192000  1
  H  1296  1  0.99520019  0.73531200  0.22265500  1
  H  1297  1  0.06229300  0.77440100  0.28229300  1
  H  1298  1  0.06196400  0.73316000  0.28205200  1
  H  1299  1  0.07062900  0.69478400  0.23701000  1
  H  1300  1  0.09782500  0.67080700  0.25645900  1
  H  1301  1  0.02132000  0.69587100  0.29055700  1
  H  1302  1  0.04856300  0.67190500  0.31022600  1
  H  1303  1  0.01454500  0.67200200  0.23428600  1
  H  1304  1  0.98230220  0.67249300  0.20386700  1
  H  1305  1  0.93298420  0.77607600  0.15994600  1
  H  1306  1  0.93264620  0.73484800  0.15978500  1
  H  1307  1  0.92254320  0.69180000  0.19706800  1
  H  1308  1  0.90164520  0.66864000  0.17136200  1
  H  1309  1  0.98097520  0.70184300  0.15208500  1
  H  1310  1  0.96027720  0.67891700  0.12638900  1
  H  1311  1  0.98533820  0.81860800  0.15938300  1
  H  1312  1  0.96550220  0.84405100  0.13555900  1
  H  1313  1  0.89754300  0.83546000  0.16956700  1
  H  1314  1  0.91764920  0.81015900  0.19349400  1
  H  1319  1  0.92237920  0.66060800  0.11486000  1
  H  1320  1  0.11084800  0.65578400  0.29183400  1
  H  1321  1  0.10202800  0.83564400  0.31366500  1
  H  1322  1  0.92906820  0.86520200  0.12502300  1
  H  1371  1  0.60339600  0.18046400  0.17845300  1
  H  1372  1  0.57716900  0.20195000  0.20159800  1
  H  1373  1  0.54234300  0.16916300  0.13629300  1
  H  1374  1  0.51618300  0.19093900  0.15939900  1
  H  1375  1  0.51495500  0.17194600  0.20929200  1
  H  1376  1  0.48207100  0.17145500  0.23906600  1
  H  1377  1  0.49687900  0.23490600  0.22377800  1
  H  1378  1  0.49538700  0.27352200  0.22302500  1
  H  1379  1  0.56243400  0.23447000  0.16344700  1
  H  1380  1  0.56210800  0.27570700  0.16371200  1
  H  1381  1  0.57086400  0.31411300  0.20869800  1
  H  1382  1  0.59803700  0.33806200  0.18920500  1
  H  1383  1  0.52141000  0.31293000  0.15516000  1
  H  1384  1  0.54862600  0.33686900  0.13544700  1
  H  1385  1  0.51476400  0.33683200  0.21140600  1
  H  1386  1  0.48251800  0.33634300  0.24175800  1
  H  1387  1  0.43320600  0.23271300  0.28561200  1
  H  1388  1  0.43284100  0.27394000  0.28576500  1
  H  1389  1  0.42278200  0.31712500  0.24849900  1
  H  1390  1  0.40192200  0.34027100  0.27418200  1
  H  1391  1  0.48113300  0.30694700  0.29362500  1
  H  1392  1  0.46047400  0.32985400  0.31929400  1
  H  1393  1  0.48553000  0.19016400  0.28627100  1
  H  1394  1  0.46563500  0.16474900  0.31007100  1
  H  1395  1  0.39767700  0.17341300  0.27596800  1
  H  1396  1  0.41783900  0.19868200  0.25206100  1
  H  1401  1  0.42276100  0.34831900  0.33074900  1
  H  1402  1  0.61099100  0.35302000  0.15379900  1
  H  1403  1  0.60236500  0.17334500  0.13218800  1
  H  1404  1  0.42914500  0.14366000  0.32058200  1
  H  1453  1  0.13810700  0.54750000  0.39708100  1
  H  1454  1  0.16424700  0.52424600  0.41863500  1
  H  1455  1  0.19831100  0.59116900  0.38866500  1
  H  1456  1  0.22437400  0.56795400  0.41047100  1
  H  1457  1  0.22699900  0.51790400  0.39029800  1
  H  1458  1  0.25987400  0.48810600  0.39010000  1
  H  1459  1  0.24338100  0.50243700  0.45341800  1
  H  1460  1  0.24335300  0.50224100  0.49186200  1
  H  1461  1  0.17646600  0.56167900  0.45238200  1
  H  1462  1  0.17641200  0.56142400  0.49359800  1
  H  1463  1  0.17479700  0.51587600  0.53807000  1
  H  1464  1  0.14988400  0.53409900  0.56467600  1
  H  1465  1  0.21492800  0.57395100  0.52671600  1
  H  1466  1  0.18971700  0.59244500  0.55319100  1
  H  1467  1  0.22869700  0.51797100  0.55520600  1
  H  1468  1  0.26094300  0.48770400  0.55495300  1
  H  1469  1  0.30653300  0.44015300  0.45175000  1
  H  1470  1  0.30671100  0.44011900  0.49303700  1
  H  1471  1  0.32061200  0.47780800  0.53181900  1
  H  1472  1  0.34097800  0.45430700  0.55744200  1
  H  1473  1  0.25800800  0.43603100  0.53112900  1
  H  1474  1  0.27822200  0.41243900  0.55663400  1
  H  1475  1  0.25516400  0.44067300  0.40846500  1
  H  1476  1  0.27502700  0.41696000  0.38299300  1
  H  1477  1  0.34332800  0.45024800  0.39269200  1
  H  1478  1  0.32320700  0.47405600  0.41802800  1
  H  1483  1  0.31258800  0.40564500  0.58215100  1
  H  1484  1  0.14473200  0.56587800  0.58891000  1
  H  1485  1  0.13894200  0.59468000  0.39163300  1
  H  1486  1  0.31163700  0.40612400  0.36235200  1
  H  1535  1  0.63793800  0.46107400  0.04805800  1
  H  1536  1  0.66404000  0.48431400  0.02650000  1
  H  1537  1  0.69831200  0.41774500  0.05705800  1
  H  1538  1  0.72434600  0.44093900  0.03523500  1
  H  1539  1  0.72685300  0.49089900  0.05516600  1
  H  1540  1  0.75972300  0.52073300  0.05542800  1
  H  1541  1  0.74336400  0.50630100  0.99207500  1
  H  1542  1  0.74338100  0.50662600  0.95364100  1
  H  1543  1  0.67645100  0.44701300  0.99291400  1
  H  1544  1  0.67642500  0.44736200  0.95169500  1
  H  1545  1  0.67466800  0.49300400  0.90747000  1
  H  1546  1  0.64975200  0.47478200  0.88079100  1
  H  1547  1  0.71507700  0.43504500  0.91859600  1
  H  1548  1  0.68987100  0.41655400  0.89204700  1
  H  1549  1  0.72865300  0.49096800  0.89026700  1
  H  1550  1  0.76095000  0.52122800  0.89058000  1
  H  1551  1  0.80647500  0.56870500  0.99394700  1
  H  1552  1  0.80674200  0.56878700  0.95265800  1
  H  1553  1  0.82063600  0.53108100  0.91375000  1
  H  1554  1  0.84100500  0.55459000  0.88815800  1
  H  1555  1  0.75815700  0.57292700  0.91448400  1
  H  1556  1  0.77837300  0.59652600  0.88901300  1
  H  1557  1  0.75504200  0.56821500  0.03686200  1
  H  1558  1  0.77487300  0.59194000  0.06240700  1
  H  1559  1  0.84308400  0.55846400  0.05318800  1
  H  1560  1  0.82299700  0.53465400  0.02777800  1
  H  1565  1  0.81267900  0.60331300  0.86349300  1
  H  1566  1  0.64477800  0.44303100  0.85639300  1
  H  1567  1  0.63875600  0.41412500  0.05386100  1
  H  1568  1  0.81142500  0.60263300  0.08332600  1
  H  1579  1  0.63888300  0.15452900  0.15464400  1
  H  1580  1  0.68351400  0.15602600  0.15676100  1
  H  1581  1  0.70897100  0.13545700  0.13144300  1
  H  1582  1  0.68976100  0.11309700  0.10408300  1
  H  1595  1  0.13863600  0.85437100  0.29098100  1
  H  1596  1  0.18327300  0.85287600  0.28898100  1
  H  1597  1  0.20873300  0.87354400  0.31429200  1
  H  1598  1  0.18952400  0.89599300  0.34152700  1
  H  1611  1  0.38972600  0.43328900  0.56847200  1
  H  1612  1  0.43426200  0.43764300  0.56987200  1
  H  1613  1  0.45935200  0.41479100  0.59353400  1
  H  1614  1  0.43998600  0.38755200  0.61593000  1
  H  1627  1  0.88978100  0.57559100  0.87710400  1
  H  1628  1  0.93430020  0.57119900  0.87570600  1
  H  1629  1  0.95938520  0.59402000  0.85203600  1
  H  1630  1  0.94002820  0.62126600  0.82963100  1
  H  1643  1  0.35167300  0.15630100  0.29331700  1
  H  1644  1  0.30767900  0.15199400  0.28710200  1
  H  1645  1  0.28348700  0.12680000  0.30900500  1
  H  1646  1  0.30311400  0.10604600  0.33728500  1
  H  1659  1  0.85159800  0.85261800  0.15221500  1
  H  1660  1  0.80762200  0.85697100  0.15838300  1
  H  1661  1  0.78347800  0.88222000  0.13648400  1
  H  1662  1  0.80313400  0.90298600  0.10825000  1
  H  1675  1  0.60177700  0.43183800  0.87752300  1
  H  1676  1  0.55816000  0.43909900  0.87252500  1
  H  1677  1  0.53424600  0.41913700  0.84555500  1
  H  1678  1  0.55379100  0.39158600  0.82383400  1
  H  1691  1  0.10174800  0.57705000  0.56794200  1
  H  1692  1  0.05815400  0.56971800  0.57294300  1
  H  1693  1  0.03429400  0.58965200  0.59990100  1
  H  1694  1  0.05386500  0.61724900  0.62160300  1
  H  1707  1  0.85159400  0.85752600  0.78897700  1
  H  1708  1  0.80697400  0.85705100  0.78627200  1
  H  1709  1  0.78158300  0.87473000  0.81373100  1
  H  1710  1  0.80079700  0.89333300  0.84364900  1
  H  1723  1  0.35143200  0.15127900  0.65667600  1
  H  1724  1  0.30681200  0.15173100  0.65935900  1
  H  1725  1  0.28135500  0.13407200  0.63186300  1
  H  1726  1  0.30050200  0.11552100  0.60192600  1
  H  1739  1  0.10191200  0.57240900  0.37306300  1
  H  1740  1  0.05728400  0.57046900  0.37482700  1
  H  1741  1  0.03174400  0.59591300  0.35441300  1
  H  1742  1  0.05085700  0.62322600  0.33195200  1
  H  1755  1  0.60194300  0.43634100  0.07250600  1
  H  1756  1  0.55731500  0.43832600  0.07081500  1
  H  1757  1  0.53180300  0.41291200  0.09127100  1
  H  1758  1  0.55095000  0.38558300  0.11370600  1
  H  1771  1  0.13821900  0.85079300  0.65104900  1
  H  1772  1  0.18280500  0.85219500  0.65494300  1
  H  1773  1  0.20756100  0.87577200  0.63175300  1
  H  1774  1  0.18780600  0.89805100  0.60461400  1
  H  1787  1  0.63839800  0.15818300  0.79441900  1
  H  1788  1  0.68297800  0.15683800  0.79054100  1
  H  1789  1  0.70778900  0.13326800  0.81371900  1
  H  1790  1  0.68809800  0.11094000  0.84083000  1
  H  1803  1  0.88881800  0.57519200  0.07091200  1
  H  1804  1  0.93275420  0.56884900  0.07542600  1
  H  1805  1  0.95690220  0.59056400  0.10083800  1
  H  1806  1  0.93728620  0.61878900  0.12161000  1
  H  1819  1  0.38904700  0.43366400  0.37469900  1
  H  1820  1  0.43296300  0.44007900  0.37017300  1
  H  1821  1  0.45706200  0.41837200  0.34479200  1
  H  1822  1  0.43742500  0.39008300  0.32406500  1
  H  1873  1  0.39254800  0.04325600  0.89776000  1
  H  1874  1  0.41988500  0.02285000  0.92078400  1
  H  1875  1  0.45043500  0.08860100  0.88584900  1
  H  1876  1  0.47767800  0.06810400  0.90908800  1
  H  1877  1  0.48227200  0.01884100  0.89046000  1
  H  1878  1  0.51549800  0.98940800  0.88966600  1
  H  1879  1  0.49927500  0.00268500  0.95327400  1
  H  1880  1  0.50166200  0.00384200  0.99182100  1
  H  1881  1  0.43346900  0.06290400  0.95326600  1
  H  1882  1  0.43436800  0.06272000  0.99452000  1
  H  1883  1  0.42683400  0.01811100  0.03297600  1
  H  1884  1  0.39968200  0.03762100  0.05688400  1
  H  1885  1  0.47592700  0.07186500  0.03127400  1
  H  1886  1  0.44874200  0.09158600  0.05516700  1
  H  1887  1  0.48328600  0.01564300  0.05529200  1
  H  1888  1  0.51543400  0.98520900  0.05456500  1
  H  1889  1  0.56344400  0.94130200  0.95055500  1
  H  1890  1  0.56402900  0.94092600  0.99179700  1
  H  1891  1  0.57441700  0.97856300  0.03532600  1
  H  1892  1  0.59543600  0.95300200  0.05857600  1
  H  1893  1  0.51656000  0.93304000  0.02487400  1
  H  1894  1  0.53738400  0.90749200  0.04786600  1
  H  1895  1  0.51286200  0.94295700  0.90459700  1
  H  1896  1  0.53399400  0.92286900  0.87660300  1
  H  1897  1  0.60115200  0.95587400  0.89147100  1
  H  1898  1  0.57982400  0.97630900  0.91913300  1
  H  1903  1  0.57509800  0.89628900  0.06654300  1
  H  1904  1  0.38658100  0.07313800  0.07154100  1
  H  1905  1  0.38349700  0.07748600  0.87888200  1
  H  1906  1  0.57674700  0.93192500  0.84936800  1
  H  1955  1  0.89214100  0.96556900  0.54748600  1
  H  1956  1  0.91945040  0.98600500  0.52450000  1
  H  1957  1  0.95013540  0.92043000  0.55967200  1
  H  1958  1  0.97734540  0.94095900  0.53646500  1
  H  1959  1  0.98196640  0.99012100  0.55501000  1
  H  1960  1  0.01520300  0.01958100  0.55585400  1
  H  1961  1  0.99885938  0.00639400  0.49222300  1
  H  1962  1  0.00143600  0.00523000  0.45368500  1
  H  1963  1  0.93307640  0.94611800  0.49204700  1
  H  1964  1  0.93400040  0.94638900  0.45079800  1
  H  1965  1  0.92646440  0.99101700  0.41249700  1
  H  1966  1  0.89929100  0.97147000  0.38855100  1
  H  1967  1  0.97568540  0.93738700  0.41412700  1
  H  1968  1  0.94848440  0.91762800  0.39020600  1
  H  1969  1  0.98295540  0.99351700  0.39018800  1
  H  1970  1  0.01520900  0.02389800  0.39096400  1
  H  1971  1  0.06328000  0.06766300  0.49512800  1
  H  1972  1  0.06396600  0.06806300  0.45388500  1
  H  1973  1  0.07411500  0.03040400  0.41012800  1
  H  1974  1  0.09517800  0.05592700  0.38688800  1
  H  1975  1  0.01662000  0.07613900  0.42079300  1
  H  1976  1  0.03749300  0.10164800  0.39781600  1
  H  1977  1  0.01263500  0.06618200  0.54076500  1
  H  1978  1  0.03383000  0.08622800  0.56881900  1
  H  1979  1  0.10077200  0.05282400  0.55435900  1
  H  1980  1  0.07938300  0.03244600  0.52663300  1
  H  1985  1  0.07507600  0.11272900  0.37897400  1
  H  1986  1  0.88626700  0.93595800  0.37381000  1
  H  1987  1  0.88315200  0.93138600  0.56646500  1
  H  1988  1  0.07664800  0.07686400  0.59625000  1
  H  2037  1  0.14301600  0.18162700  0.67966200  1
  H  2038  1  0.16990400  0.20289000  0.70249800  1
  H  2039  1  0.20313900  0.16987100  0.63676300  1
  H  2040  1  0.22997400  0.19146300  0.65954700  1
  H  2041  1  0.23183900  0.17254700  0.70964900  1
  H  2042  1  0.26476200  0.17201000  0.73944400  1
  H  2043  1  0.25023100  0.23548300  0.72407900  1
  H  2044  1  0.25197700  0.27410000  0.72320000  1
  H  2045  1  0.18474400  0.23508700  0.66356700  1
  H  2046  1  0.18529900  0.27631900  0.66371900  1
  H  2047  1  0.17575600  0.31390200  0.70804600  1
  H  2048  1  0.14848200  0.33728300  0.68791100  1
  H  2049  1  0.22679000  0.31392800  0.65573300  1
  H  2050  1  0.19952600  0.33729100  0.63541200  1
  H  2051  1  0.23252900  0.33740000  0.71165900  1
  H  2052  1  0.26474700  0.33690700  0.74210700  1
  H  2053  1  0.31398300  0.23322500  0.78595900  1
  H  2054  1  0.31447100  0.27447100  0.78609400  1
  H  2055  1  0.32427600  0.31793500  0.74867500  1
  H  2056  1  0.34509300  0.34133200  0.77421200  1
  H  2057  1  0.26634600  0.30740800  0.79403000  1
  H  2058  1  0.28696000  0.33057400  0.81955000  1
  H  2059  1  0.26144400  0.19040000  0.78643200  1
  H  2060  1  0.28122500  0.16446800  0.80977800  1
  H  2061  1  0.34915500  0.17347200  0.77582900  1
  H  2062  1  0.32911300  0.19924600  0.75238200  1
  H  2067  1  0.32443300  0.34944100  0.83081700  1
  H  2068  1  0.13606900  0.35115100  0.65150400  1
  H  2069  1  0.14154700  0.17425000  0.63485300  1
  H  2070  1  0.31765500  0.14292400  0.81978700  1
  H  2119  1  0.64309900  0.82707500  0.76597000  1
  H  2120  1  0.66988700  0.80581100  0.74315000  1
  H  2121  1  0.70341500  0.83909100  0.80871400  1
  H  2122  1  0.73016000  0.81749200  0.78594400  1
  H  2123  1  0.73190000  0.83627100  0.73587600  1
  H  2124  1  0.76475000  0.83682100  0.70608400  1
  H  2125  1  0.75024900  0.77334500  0.72146500  1
  H  2126  1  0.75198900  0.73471800  0.72228900  1
  H  2127  1  0.68491200  0.77367500  0.78196100  1
  H  2128  1  0.68545200  0.73244300  0.78176900  1
  H  2129  1  0.67575900  0.69489200  0.73745600  1
  H  2130  1  0.64850800  0.67152900  0.75760200  1
  H  2131  1  0.72692600  0.69489500  0.78977100  1
  H  2132  1  0.69967700  0.67154000  0.81010500  1
  H  2133  1  0.73257700  0.67141000  0.73385200  1
  H  2134  1  0.76476700  0.67191400  0.70344500  1
  H  2135  1  0.81381000  0.77565500  0.65955100  1
  H  2136  1  0.81433800  0.73441300  0.65941600  1
  H  2137  1  0.82431500  0.69090000  0.69687000  1
  H  2138  1  0.84509600  0.66752700  0.67134600  1
  H  2139  1  0.76634300  0.70139700  0.65146400  1
  H  2140  1  0.78691800  0.67826400  0.62595600  1
  H  2141  1  0.76129200  0.81842000  0.65910000  1
  H  2142  1  0.78100300  0.84435300  0.63572900  1
  H  2143  1  0.84904400  0.83541600  0.66963700  1
  H  2144  1  0.82907300  0.80964300  0.69311100  1
  H  2149  1  0.82428100  0.65934500  0.61471500  1
  H  2150  1  0.63614500  0.65771300  0.79402000  1
  H  2151  1  0.64174000  0.83460100  0.81066000  1
  H  2152  1  0.81741100  0.86589700  0.62565400  1
  H  2201  1  0.86012100  0.82854400  0.26725500  1
  H  2202  1  0.83389400  0.80698600  0.24407900  1
  H  2203  1  0.79914100  0.83958600  0.30943100  1
  H  2204  1  0.77298200  0.81775100  0.28630400  1
  H  2205  1  0.77180800  0.83687500  0.23636800  1
  H  2206  1  0.73889400  0.83736200  0.20655600  1
  H  2207  1  0.75359300  0.77391100  0.22192000  1
  H  2208  1  0.75217100  0.73531200  0.22265500  1
  H  2209  1  0.81926400  0.77440100  0.28229300  1
  H  2210  1  0.81893500  0.73316000  0.28205200  1
  H  2211  1  0.82760000  0.69478400  0.23701000  1
  H  2212  1  0.85479600  0.67080700  0.25645900  1
  H  2213  1  0.77829100  0.69587100  0.29055700  1
  H  2214  1  0.80553400  0.67190500  0.31022600  1
  H  2215  1  0.77151600  0.67200200  0.23428600  1
  H  2216  1  0.73927300  0.67249300  0.20386700  1
  H  2217  1  0.68995500  0.77607600  0.15994600  1
  H  2218  1  0.68961700  0.73484800  0.15978500  1
  H  2219  1  0.67951400  0.69180000  0.19706800  1
  H  2220  1  0.65861600  0.66864000  0.17136200  1
  H  2221  1  0.73794600  0.70184300  0.15208500  1
  H  2222  1  0.71724800  0.67891700  0.12638900  1
  H  2223  1  0.74230900  0.81860800  0.15938300  1
  H  2224  1  0.72247300  0.84405100  0.13555900  1
  H  2225  1  0.65451400  0.83546000  0.16956700  1
  H  2226  1  0.67462000  0.81015900  0.19349400  1
  H  2231  1  0.67935000  0.66060800  0.11486000  1
  H  2232  1  0.86781900  0.65578400  0.29183400  1
  H  2233  1  0.85899900  0.83564400  0.31366500  1
  H  2234  1  0.68603900  0.86520200  0.12502300  1
  H  2283  1  0.36036700  0.18046400  0.17845300  1
  H  2284  1  0.33414000  0.20195000  0.20159800  1
  H  2285  1  0.29931400  0.16916300  0.13629300  1
  H  2286  1  0.27315400  0.19093900  0.15939900  1
  H  2287  1  0.27192600  0.17194600  0.20929200  1
  H  2288  1  0.23904200  0.17145500  0.23906600  1
  H  2289  1  0.25385000  0.23490600  0.22377800  1
  H  2290  1  0.25235800  0.27352200  0.22302500  1
  H  2291  1  0.31940500  0.23447000  0.16344700  1
  H  2292  1  0.31907900  0.27570700  0.16371200  1
  H  2293  1  0.32783500  0.31411300  0.20869800  1
  H  2294  1  0.35500800  0.33806200  0.18920500  1
  H  2295  1  0.27838100  0.31293000  0.15516000  1
  H  2296  1  0.30559700  0.33686900  0.13544700  1
  H  2297  1  0.27173500  0.33683200  0.21140600  1
  H  2298  1  0.23948900  0.33634300  0.24175800  1
  H  2299  1  0.19017700  0.23271300  0.28561200  1
  H  2300  1  0.18981200  0.27394000  0.28576500  1
  H  2301  1  0.17975300  0.31712500  0.24849900  1
  H  2302  1  0.15889300  0.34027100  0.27418200  1
  H  2303  1  0.23810400  0.30694700  0.29362500  1
  H  2304  1  0.21744500  0.32985400  0.31929400  1
  H  2305  1  0.24250100  0.19016400  0.28627100  1
  H  2306  1  0.22260600  0.16474900  0.31007100  1
  H  2307  1  0.15464800  0.17341300  0.27596800  1
  H  2308  1  0.17481000  0.19868200  0.25206100  1
  H  2313  1  0.17973200  0.34831900  0.33074900  1
  H  2314  1  0.36796200  0.35302000  0.15379900  1
  H  2315  1  0.35933600  0.17334500  0.13218800  1
  H  2316  1  0.18611600  0.14366000  0.32058200  1
  H  2365  1  0.89507800  0.54750000  0.39708100  1
  H  2366  1  0.92121840  0.52424600  0.41863500  1
  H  2367  1  0.95528240  0.59116900  0.38866500  1
  H  2368  1  0.98134540  0.56795400  0.41047100  1
  H  2369  1  0.98397040  0.51790400  0.39029800  1
  H  2370  1  0.01684500  0.48810600  0.39010000  1
  H  2371  1  0.00035200  0.50243700  0.45341800  1
  H  2372  1  0.00032400  0.50224100  0.49186200  1
  H  2373  1  0.93343740  0.56167900  0.45238200  1
  H  2374  1  0.93338340  0.56142400  0.49359800  1
  H  2375  1  0.93176840  0.51587600  0.53807000  1
  H  2376  1  0.90685540  0.53409900  0.56467600  1
  H  2377  1  0.97189940  0.57395100  0.52671600  1
  H  2378  1  0.94668840  0.59244500  0.55319100  1
  H  2379  1  0.98566840  0.51797100  0.55520600  1
  H  2380  1  0.01791400  0.48770400  0.55495300  1
  H  2381  1  0.06350400  0.44015300  0.45175000  1
  H  2382  1  0.06368200  0.44011900  0.49303700  1
  H  2383  1  0.07758300  0.47780800  0.53181900  1
  H  2384  1  0.09794900  0.45430700  0.55744200  1
  H  2385  1  0.01497900  0.43603100  0.53112900  1
  H  2386  1  0.03519300  0.41243900  0.55663400  1
  H  2387  1  0.01213500  0.44067300  0.40846500  1
  H  2388  1  0.03199800  0.41696000  0.38299300  1
  H  2389  1  0.10029900  0.45024800  0.39269200  1
  H  2390  1  0.08017800  0.47405600  0.41802800  1
  H  2395  1  0.06955900  0.40564500  0.58215100  1
  H  2396  1  0.90170340  0.56587800  0.58891000  1
  H  2397  1  0.89591300  0.59468000  0.39163300  1
  H  2398  1  0.06860800  0.40612400  0.36235200  1
  H  2447  1  0.39490900  0.46107400  0.04805800  1
  H  2448  1  0.42101100  0.48431400  0.02650000  1
  H  2449  1  0.45528300  0.41774500  0.05705800  1
  H  2450  1  0.48131700  0.44093900  0.03523500  1
  H  2451  1  0.48382400  0.49089900  0.05516600  1
  H  2452  1  0.51669400  0.52073300  0.05542800  1
  H  2453  1  0.50033500  0.50630100  0.99207500  1
  H  2454  1  0.50035200  0.50662600  0.95364100  1
  H  2455  1  0.43342200  0.44701300  0.99291400  1
  H  2456  1  0.43339600  0.44736200  0.95169500  1
  H  2457  1  0.43163900  0.49300400  0.90747000  1
  H  2458  1  0.40672300  0.47478200  0.88079100  1
  H  2459  1  0.47204800  0.43504500  0.91859600  1
  H  2460  1  0.44684200  0.41655400  0.89204700  1
  H  2461  1  0.48562400  0.49096800  0.89026700  1
  H  2462  1  0.51792100  0.52122800  0.89058000  1
  H  2463  1  0.56344600  0.56870500  0.99394700  1
  H  2464  1  0.56371300  0.56878700  0.95265800  1
  H  2465  1  0.57760700  0.53108100  0.91375000  1
  H  2466  1  0.59797600  0.55459000  0.88815800  1
  H  2467  1  0.51512800  0.57292700  0.91448400  1
  H  2468  1  0.53534400  0.59652600  0.88901300  1
  H  2469  1  0.51201300  0.56821500  0.03686200  1
  H  2470  1  0.53184400  0.59194000  0.06240700  1
  H  2471  1  0.60005500  0.55846400  0.05318800  1
  H  2472  1  0.57996800  0.53465400  0.02777800  1
  H  2477  1  0.56965000  0.60331300  0.86349300  1
  H  2478  1  0.40174900  0.44303100  0.85639300  1
  H  2479  1  0.39572700  0.41412500  0.05386100  1
  H  2480  1  0.56839600  0.60263300  0.08332600  1
  H  2491  1  0.39585400  0.15452900  0.15464400  1
  H  2492  1  0.44048500  0.15602600  0.15676100  1
  H  2493  1  0.46594200  0.13545700  0.13144300  1
  H  2494  1  0.44673200  0.11309700  0.10408300  1
  H  2507  1  0.89560700  0.85437100  0.29098100  1
  H  2508  1  0.94024440  0.85287600  0.28898100  1
  H  2509  1  0.96570440  0.87354400  0.31429200  1
  H  2510  1  0.94649540  0.89599300  0.34152700  1
  H  2523  1  0.14669700  0.43328900  0.56847200  1
  H  2524  1  0.19123300  0.43764300  0.56987200  1
  H  2525  1  0.21632300  0.41479100  0.59353400  1
  H  2526  1  0.19695700  0.38755200  0.61593000  1
  H  2539  1  0.64675200  0.57559100  0.87710400  1
  H  2540  1  0.69127100  0.57119900  0.87570600  1
  H  2541  1  0.71635600  0.59402000  0.85203600  1
  H  2542  1  0.69699900  0.62126600  0.82963100  1
  H  2555  1  0.10864400  0.15630100  0.29331700  1
  H  2556  1  0.06465000  0.15199400  0.28710200  1
  H  2557  1  0.04045800  0.12680000  0.30900500  1
  H  2558  1  0.06008500  0.10604600  0.33728500  1
  H  2571  1  0.60856900  0.85261800  0.15221500  1
  H  2572  1  0.56459300  0.85697100  0.15838300  1
  H  2573  1  0.54044900  0.88222000  0.13648400  1
  H  2574  1  0.56010500  0.90298600  0.10825000  1
  H  2587  1  0.35874800  0.43183800  0.87752300  1
  H  2588  1  0.31513100  0.43909900  0.87252500  1
  H  2589  1  0.29121700  0.41913700  0.84555500  1
  H  2590  1  0.31076200  0.39158600  0.82383400  1
  H  2603  1  0.85871900  0.57705000  0.56794200  1
  H  2604  1  0.81512500  0.56971800  0.57294300  1
  H  2605  1  0.79126500  0.58965200  0.59990100  1
  H  2606  1  0.81083600  0.61724900  0.62160300  1
  H  2619  1  0.60856500  0.85752600  0.78897700  1
  H  2620  1  0.56394500  0.85705100  0.78627200  1
  H  2621  1  0.53855400  0.87473000  0.81373100  1
  H  2622  1  0.55776800  0.89333300  0.84364900  1
  H  2635  1  0.10840300  0.15127900  0.65667600  1
  H  2636  1  0.06378300  0.15173100  0.65935900  1
  H  2637  1  0.03832600  0.13407200  0.63186300  1
  H  2638  1  0.05747300  0.11552100  0.60192600  1
  H  2651  1  0.85888300  0.57240900  0.37306300  1
  H  2652  1  0.81425500  0.57046900  0.37482700  1
  H  2653  1  0.78871500  0.59591300  0.35441300  1
  H  2654  1  0.80782800  0.62322600  0.33195200  1
  H  2667  1  0.35891400  0.43634100  0.07250600  1
  H  2668  1  0.31428600  0.43832600  0.07081500  1
  H  2669  1  0.28877400  0.41291200  0.09127100  1
  H  2670  1  0.30792100  0.38558300  0.11370600  1
  H  2683  1  0.89519000  0.85079300  0.65104900  1
  H  2684  1  0.93977640  0.85219500  0.65494300  1
  H  2685  1  0.96453240  0.87577200  0.63175300  1
  H  2686  1  0.94477740  0.89805100  0.60461400  1
  H  2699  1  0.39536900  0.15818300  0.79441900  1
  H  2700  1  0.43994900  0.15683800  0.79054100  1
  H  2701  1  0.46476000  0.13326800  0.81371900  1
  H  2702  1  0.44506900  0.11094000  0.84083000  1
  H  2715  1  0.64578900  0.57519200  0.07091200  1
  H  2716  1  0.68972500  0.56884900  0.07542600  1
  H  2717  1  0.71387300  0.59056400  0.10083800  1
  H  2718  1  0.69425700  0.61878900  0.12161000  1
  H  2731  1  0.14601800  0.43366400  0.37469900  1
  H  2732  1  0.18993400  0.44007900  0.37017300  1
  H  2733  1  0.21403300  0.41837200  0.34479200  1
  H  2734  1  0.19439600  0.39008300  0.32406500  1
  C  1  1  0.97598600  0.01182500  0.90402200  1
  C  2  1  0.99412800  0.99577900  0.90361100  1
  C  3  1  0.99998500  0.99004100  0.92507600  1
  C  5  1  0.97050700  0.01660000  0.92575500  1
  C  6  1  0.95267700  0.03235900  0.93280100  1
  C  7  1  0.94788900  0.03754000  0.95502900  1
  C  9  1  0.94889900  0.03755500  0.99167100  1
  C  10  1  0.93137400  0.05304000  0.98492200  1
  C  11  1  0.93082100  0.05308700  0.96244400  1
  C  12  1  0.95464500  0.03213000  0.01368000  1
  C  13  1  0.97216500  0.01577100  0.01996300  1
  C  15  1  0.00095800  0.98870300  0.01931800  1
  C  16  1  0.99476200  0.99295600  0.04102600  1
  C  17  1  0.97722800  0.00951800  0.04142200  1
  C  18  1  0.01805700  0.97235800  0.01223900  1
  C  19  1  0.02356900  0.96775700  0.99000300  1
  C  21  1  0.02334800  0.96831400  0.95332800  1
  C  22  1  0.03961200  0.95183900  0.96012000  1
  C  23  1  0.03987400  0.95159200  0.98260300  1
  C  24  1  0.01763900  0.97371700  0.93129600  1
  C  25  1  0.03030100  0.96169300  0.91449600  1
  C  26  1  0.05608800  0.96492500  0.91041700  1
  C  27  1  0.06869200  0.95276500  0.89430300  1
  C  28  1  0.05582200  0.93704600  0.88173400  1
  C  29  1  0.03003900  0.93383300  0.88570200  1
  C  30  1  0.01754900  0.94576900  0.90204100  1
  C  31  1  0.02927400  0.95843100  0.02826600  1
  C  32  1  0.05224000  0.96381300  0.03836100  1
  C  33  1  0.06464100  0.94868300  0.05195500  1
  C  34  1  0.05463500  0.92760300  0.05568500  1
  C  35  1  0.03140900  0.92252600  0.04574600  1
  C  36  1  0.01893200  0.93763100  0.03231300  1
  C  37  1  0.94040200  0.04288000  0.03029700  1
  C  38  1  0.91808000  0.03334200  0.03808100  1
  C  39  1  0.90199600  0.04498100  0.05203700  1
  C  40  1  0.90755600  0.06657000  0.05869800  1
  C  41  1  0.93020600  0.07590100  0.05114300  1
  C  42  1  0.94631500  0.06428800  0.03712000  1
  C  43  1  0.93765400  0.04322700  0.91675000  1
  C  44  1  0.91278400  0.03637300  0.91303200  1
  C  45  1  0.94603700  0.06240900  0.90627700  1
  C  46  1  0.92989400  0.07449200  0.89263900  1
  C  47  1  0.90474700  0.06796400  0.88920400  1
  C  48  1  0.89665000  0.04854800  0.89955300  1
  C  75  1  0.06676800  0.91171000  0.06816400  1
  C  76  1  0.89036300  0.07809000  0.07142500  1
  C  77  1  0.88775200  0.08025900  0.87694100  1
  C  78  1  0.06728600  0.92681700  0.86426900  1
  C  83  1  0.47566500  0.99715300  0.54146100  1
  C  84  1  0.49384100  0.01318800  0.54189900  1
  C  85  1  0.49965700  0.01895000  0.52044100  1
  C  87  1  0.47016300  0.99238400  0.51971800  1
  C  88  1  0.45230000  0.97663500  0.51264500  1
  C  89  1  0.44751600  0.97149600  0.49040000  1
  C  91  1  0.44855400  0.97156000  0.45376700  1
  C  92  1  0.43100500  0.95605700  0.46044000  1
  C  93  1  0.43043300  0.95596400  0.48291600  1
  C  94  1  0.45431700  0.97703200  0.43178300  1
  C  95  1  0.47189400  0.99335000  0.42552100  1
  C  97  1  0.50075600  0.02038500  0.42620700  1
  C  98  1  0.49452900  0.01615200  0.40448900  1
  C  99  1  0.47697900  0.99958600  0.40406500  1
  C  100  1  0.51790500  0.03671000  0.43331300  1
  C  101  1  0.52334100  0.04132800  0.45556700  1
  C  103  1  0.52302700  0.04074400  0.49223600  1
  C  104  1  0.53935700  0.05720500  0.48551800  1
  C  105  1  0.53967800  0.05746700  0.46303600  1
  C  106  1  0.51729500  0.03529400  0.51424100  1
  C  107  1  0.52997600  0.04727900  0.53106900  1
  C  108  1  0.55571300  0.04390000  0.53527800  1
  C  109  1  0.56834700  0.05602100  0.55143000  1
  C  110  1  0.55555400  0.07184300  0.56388400  1
  C  111  1  0.52981300  0.07518600  0.55979500  1
  C  112  1  0.51729200  0.06329100  0.54341700  1
  C  113  1  0.52915300  0.05064800  0.41731500  1
  C  114  1  0.55203000  0.04520100  0.40715900  1
  C  115  1  0.56445200  0.06030600  0.39355900  1
  C  116  1  0.55457200  0.08143500  0.38988900  1
  C  117  1  0.53142900  0.08657800  0.39988200  1
  C  118  1  0.51893500  0.07150100  0.41332600  1
  C  119  1  0.44007200  0.96630200  0.41513600  1
  C  120  1  0.41771700  0.97580200  0.40737600  1
  C  121  1  0.40162900  0.96414500  0.39340100  1
  C  122  1  0.40723300  0.94258300  0.38671900  1
  C  123  1  0.42994000  0.93330500  0.39422900  1
  C  124  1  0.44605200  0.94493300  0.40827200  1
  C  125  1  0.43727500  0.96574100  0.52866300  1
  C  126  1  0.41237600  0.97251400  0.53229200  1
  C  127  1  0.44567900  0.94659300  0.53919200  1
  C  128  1  0.42955300  0.93449300  0.55281700  1
  C  129  1  0.40438800  0.94095300  0.55617700  1
  C  130  1  0.39625600  0.96031900  0.54575000  1
  C  157  1  0.56673500  0.09730800  0.37740000  1
  C  158  1  0.39005300  0.93103900  0.37397400  1
  C  159  1  0.38741100  0.92864500  0.56843900  1
  C  160  1  0.56705100  0.08204900  0.58135100  1
  C  165  1  0.72583100  0.18615700  0.71631900  1
  C  166  1  0.74378700  0.18588100  0.73255600  1
  C  167  1  0.75003300  0.20739800  0.73772700  1
  C  169  1  0.72081600  0.20784600  0.71094700  1
  C  170  1  0.70324100  0.21477900  0.69490000  1
  C  171  1  0.69844200  0.23698800  0.68957000  1
  C  173  1  0.69915600  0.27363900  0.68951800  1
  C  174  1  0.68207500  0.26678900  0.67369000  1
  C  175  1  0.68172700  0.24431300  0.67365000  1
  C  176  1  0.70460000  0.29568700  0.69499200  1
  C  177  1  0.72196200  0.30211000  0.71142800  1
  C  179  1  0.75077900  0.30167300  0.73851500  1
  C  180  1  0.74424200  0.32332800  0.73433500  1
  C  181  1  0.72669700  0.32360000  0.71774800  1
  C  182  1  0.76805300  0.29471000  0.75480400  1
  C  183  1  0.77373600  0.27250800  0.75944900  1
  C  185  1  0.77354700  0.23583100  0.75913000  1
  C  186  1  0.78996900  0.24272400  0.77546400  1
  C  187  1  0.79020800  0.26520900  0.77556500  1
  C  188  1  0.76764900  0.21377500  0.75400900  1
  C  189  1  0.77931100  0.19711100  0.76693800  1
  C  190  1  0.80484200  0.19177900  0.76427400  1
  C  191  1  0.81664700  0.17665400  0.77822700  1
  C  192  1  0.80336500  0.16622000  0.79530900  1
  C  193  1  0.77769000  0.17145600  0.79764100  1
  C  194  1  0.76591200  0.18669100  0.78383200  1
  C  195  1  0.77912800  0.31080700  0.76873100  1
  C  196  1  0.80203600  0.32098900  0.76338000  1
  C  197  1  0.81429700  0.33470600  0.77848600  1
  C  198  1  0.80422100  0.33845900  0.79951900  1
  C  199  1  0.78102500  0.32845900  0.80454500  1
  C  200  1  0.76867200  0.31491800  0.78945700  1
  C  201  1  0.69029700  0.31218000  0.68408700  1
  C  202  1  0.66737700  0.31929700  0.69302200  1
  C  203  1  0.65124900  0.33296000  0.68103300  1
  C  204  1  0.65738100  0.33995300  0.65967800  1
  C  205  1  0.68061500  0.33308400  0.65095900  1
  C  206  1  0.69675800  0.31935400  0.66291900  1
  C  207  1  0.68878800  0.19864100  0.68358500  1
  C  208  1  0.66347000  0.19516600  0.68924700  1
  C  209  1  0.69807900  0.18855100  0.66451200  1
  C  210  1  0.68227300  0.17589500  0.65109400  1
  C  211  1  0.65675700  0.17304600  0.65638800  1
  C  212  1  0.64763600  0.18271900  0.67573200  1
  C  239  1  0.81633500  0.35091300  0.81545300  1
  C  240  1  0.64015600  0.35216600  0.64763500  1
  C  241  1  0.64003500  0.16419100  0.64156300  1
  C  242  1  0.81456400  0.15136000  0.80966600  1
  C  247  1  0.22586400  0.82266400  0.72920500  1
  C  248  1  0.24377200  0.82294500  0.71296200  1
  C  249  1  0.25000600  0.80143300  0.70780000  1
  C  251  1  0.22085000  0.80097500  0.73458800  1
  C  252  1  0.20330700  0.79404200  0.75064000  1
  C  253  1  0.19852300  0.77182000  0.75594500  1
  C  255  1  0.19922500  0.73516000  0.75596000  1
  C  256  1  0.18220300  0.74198900  0.77180400  1
  C  257  1  0.18185400  0.76446500  0.77186000  1
  C  258  1  0.20465000  0.71311500  0.75048100  1
  C  259  1  0.22200600  0.70670300  0.73406800  1
  C  261  1  0.25081000  0.70714800  0.70701300  1
  C  262  1  0.24426900  0.68549200  0.71119900  1
  C  263  1  0.22674100  0.68521600  0.72776700  1
  C  264  1  0.26806500  0.71411200  0.69072900  1
  C  265  1  0.27372400  0.73632700  0.68610100  1
  C  267  1  0.27348700  0.77301300  0.68640800  1
  C  268  1  0.28985800  0.76614300  0.67006600  1
  C  269  1  0.29014400  0.74365600  0.66998400  1
  C  270  1  0.26759400  0.79506800  0.69152500  1
  C  271  1  0.27921800  0.81174300  0.67858400  1
  C  272  1  0.30476100  0.81710100  0.68122800  1
  C  273  1  0.31652900  0.83222000  0.66725100  1
  C  274  1  0.30319400  0.84263700  0.65017200  1
  C  275  1  0.27750800  0.83738100  0.64786300  1
  C  276  1  0.26577100  0.82214400  0.66169000  1
  C  277  1  0.27912900  0.69801400  0.67680500  1
  C  278  1  0.30204300  0.68783300  0.68216200  1
  C  279  1  0.31430400  0.67415100  0.66705000  1
  C  280  1  0.30421500  0.67039100  0.64600000  1
  C  281  1  0.28101300  0.68038300  0.64096700  1
  C  282  1  0.26868400  0.69391700  0.65604800  1
  C  283  1  0.19038200  0.69660500  0.76140400  1
  C  284  1  0.16743600  0.68947100  0.75246400  1
  C  285  1  0.15130500  0.67584100  0.76447500  1
  C  286  1  0.15746800  0.66886500  0.78583900  1
  C  287  1  0.18073400  0.67574300  0.79455500  1
  C  288  1  0.19689300  0.68942900  0.78257000  1
  C  289  1  0.18887900  0.81017700  0.76196700  1
  C  290  1  0.16353100  0.81361100  0.75634000  1
  C  291  1  0.19823400  0.82034000  0.78100300  1
  C  292  1  0.18249700  0.83305600  0.79438900  1
  C  293  1  0.15693700  0.83581900  0.78916000  1
  C  294  1  0.14774300  0.82604900  0.76986300  1
  C  321  1  0.31629200  0.65793000  0.63006200  1
  C  322  1  0.14023600  0.65668000  0.79789600  1
  C  323  1  0.14025100  0.84466900  0.80399900  1
  C  324  1  0.31435100  0.85750200  0.63579500  1
  C  329  1  0.24996900  0.82325100  0.22969200  1
  C  330  1  0.23204500  0.82350500  0.21343000  1
  C  331  1  0.22583800  0.80198000  0.20826900  1
  C  333  1  0.25505200  0.80156800  0.23505300  1
  C  334  1  0.27264700  0.79465000  0.25109200  1
  C  335  1  0.27760500  0.77244800  0.25635800  1
  C  337  1  0.27708000  0.73578100  0.25635100  1
  C  338  1  0.29418900  0.74266900  0.27213300  1
  C  339  1  0.29440200  0.76515100  0.27222700  1
  C  340  1  0.27166600  0.71372200  0.25089300  1
  C  341  1  0.25427800  0.70730300  0.23446600  1
  C  343  1  0.22541400  0.70773100  0.20742000  1
  C  344  1  0.23193200  0.68607600  0.21161200  1
  C  345  1  0.24951300  0.68581100  0.22816600  1
  C  346  1  0.20811600  0.71468800  0.19115300  1
  C  347  1  0.20229800  0.73686700  0.18656300  1
  C  349  1  0.20234800  0.77352500  0.18690400  1
  C  350  1  0.18598500  0.76660400  0.17053700  1
  C  351  1  0.18583400  0.74412500  0.17042100  1
  C  352  1  0.20821700  0.79558800  0.19200000  1
  C  353  1  0.19657400  0.81219900  0.17899500  1
  C  354  1  0.17101100  0.81749000  0.18152300  1
  C  355  1  0.15916200  0.83231600  0.16727200  1
  C  356  1  0.17242600  0.84245600  0.15000300  1
  C  357  1  0.19813500  0.83727900  0.14782500  1
  C  358  1  0.20995100  0.82234100  0.16192500  1
  C  359  1  0.19705800  0.69860000  0.17722900  1
  C  360  1  0.17396400  0.68866400  0.18242000  1
  C  361  1  0.16163500  0.67513000  0.16720300  1
  C  362  1  0.17185200  0.67132300  0.14623400  1
  C  363  1  0.19520700  0.68109500  0.14134900  1
  C  364  1  0.20760900  0.69447600  0.15654200  1
  C  365  1  0.28606600  0.69720400  0.26169200  1
  C  366  1  0.30846100  0.68956900  0.25219900  1
  C  367  1  0.32456200  0.67555900  0.26379900  1
  C  368  1  0.31895600  0.66868500  0.28531100  1
  C  369  1  0.29623800  0.67609800  0.29460100  1
  C  370  1  0.28010300  0.69017200  0.28302100  1
  C  371  1  0.28678400  0.81085100  0.26261400  1
  C  372  1  0.31213200  0.81462100  0.25724200  1
  C  373  1  0.27703900  0.82083000  0.28157100  1
  C  374  1  0.29242600  0.83367600  0.29516400  1
  C  375  1  0.31797000  0.83679300  0.29016100  1
  C  376  1  0.32755900  0.82728100  0.27091700  1
  C  403  1  0.15976600  0.65893800  0.13026200  1
  C  404  1  0.33616200  0.65587500  0.29678100  1
  C  405  1  0.33422000  0.84581600  0.30524700  1
  C  406  1  0.16123300  0.85705600  0.13536900  1
  C  411  1  0.75010100  0.18556800  0.21595000  1
  C  412  1  0.73218000  0.18531400  0.23218400  1
  C  413  1  0.72602600  0.20683600  0.23736100  1
  C  415  1  0.75521900  0.20725000  0.21060300  1
  C  416  1  0.77283100  0.21416300  0.19459500  1
  C  417  1  0.77777800  0.23637800  0.18935500  1
  C  419  1  0.77725300  0.27305600  0.18938100  1
  C  420  1  0.79434700  0.26618600  0.17361900  1
  C  421  1  0.79456400  0.24370400  0.17351700  1
  C  422  1  0.77185400  0.29511400  0.19483200  1
  C  423  1  0.75446600  0.30153300  0.21122200  1
  C  425  1  0.72560700  0.30110400  0.23823000  1
  C  426  1  0.73214100  0.32276000  0.23403600  1
  C  427  1  0.74969100  0.32302400  0.21749000  1
  C  428  1  0.70830000  0.29415500  0.25447200  1
  C  429  1  0.70255800  0.27195800  0.25909100  1
  C  431  1  0.70262600  0.23529000  0.25874900  1
  C  432  1  0.68627900  0.24219500  0.27509400  1
  C  433  1  0.68611700  0.26467500  0.27521300  1
  C  434  1  0.70844200  0.21322700  0.25362700  1
  C  435  1  0.69677300  0.19660900  0.26660700  1
  C  436  1  0.67119300  0.19133800  0.26404500  1
  C  437  1  0.65930900  0.17653200  0.27828600  1
  C  438  1  0.67255000  0.16638500  0.29558200  1
  C  439  1  0.69827700  0.17153300  0.29779200  1
  C  440  1  0.71013500  0.18643800  0.28369000  1
  C  441  1  0.69726000  0.31023900  0.26840200  1
  C  442  1  0.67419300  0.32021300  0.26318000  1
  C  443  1  0.66188800  0.33375100  0.27838200  1
  C  444  1  0.67208300  0.33752800  0.29938800  1
  C  445  1  0.69541300  0.32771900  0.30430500  1
  C  446  1  0.70778400  0.31432800  0.28913100  1
  C  447  1  0.78623700  0.31164100  0.18402300  1
  C  448  1  0.80866700  0.31929400  0.19349700  1
  C  449  1  0.82475200  0.33333333  0.18187300  1
  C  450  1  0.81909700  0.34013100  0.16034900  1
  C  451  1  0.79632300  0.33272400  0.15109000  1
  C  452  1  0.78020800  0.31865800  0.16269000  1
  C  453  1  0.78697600  0.19796900  0.18309200  1
  C  454  1  0.81236100  0.19428300  0.18844000  1
  C  455  1  0.77724500  0.18794900  0.16412000  1
  C  456  1  0.79263300  0.17512600  0.15054000  1
  C  457  1  0.81819800  0.17207800  0.15554200  1
  C  458  1  0.82779700  0.18166400  0.17477200  1
  C  485  1  0.66002300  0.34991400  0.31536500  1
  C  486  1  0.83629100  0.35292500  0.14885300  1
  C  487  1  0.83449200  0.16312100  0.14047000  1
  C  488  1  0.66132200  0.15181200  0.31021900  1
  C  493  1  0.47762800  0.51110000  0.40399300  1
  C  494  1  0.49553900  0.49484900  0.40389800  1
  C  495  1  0.50115800  0.48936600  0.42547300  1
  C  497  1  0.47195700  0.51614300  0.42563300  1
  C  498  1  0.45400700  0.53192800  0.43237900  1
  C  499  1  0.44857100  0.53696000  0.45454700  1
  C  501  1  0.44886000  0.53705500  0.49124500  1
  C  502  1  0.43091900  0.55202600  0.48420000  1
  C  503  1  0.43091700  0.55212900  0.46171400  1
  C  504  1  0.45463100  0.53204100  0.51335600  1
  C  505  1  0.47253100  0.51603300  0.51982700  1
  C  507  1  0.50153000  0.48909100  0.51962000  1
  C  508  1  0.49634600  0.49449900  0.54126600  1
  C  509  1  0.47875100  0.51099900  0.54138800  1
  C  510  1  0.51857000  0.47254800  0.51289000  1
  C  511  1  0.52400300  0.46746700  0.49076600  1
  C  513  1  0.52399700  0.46763800  0.45410200  1
  C  514  1  0.53981700  0.45093300  0.46115700  1
  C  515  1  0.53990300  0.45088700  0.48365000  1
  C  516  1  0.51846400  0.47289900  0.43200300  1
  C  517  1  0.53017600  0.45989800  0.41545500  1
  C  518  1  0.55584600  0.46224900  0.41047200  1
  C  519  1  0.56769600  0.44807500  0.39561500  1
  C  520  1  0.55433700  0.43105000  0.38513700  1
  C  521  1  0.52853700  0.42903200  0.39002800  1
  C  522  1  0.51669900  0.44307900  0.40497300  1
  C  523  1  0.53024000  0.45935200  0.52929400  1
  C  524  1  0.55445600  0.46418300  0.53717100  1
  C  525  1  0.56647100  0.45021100  0.55216600  1
  C  526  1  0.55477400  0.43087300  0.55971700  1
  C  527  1  0.53043600  0.42626100  0.55178200  1
  C  528  1  0.51840200  0.44018000  0.53680000  1
  C  529  1  0.44055200  0.54304800  0.52999000  1
  C  530  1  0.42135300  0.53196200  0.54127900  1
  C  531  1  0.40664200  0.54278300  0.55693600  1
  C  532  1  0.41023600  0.56518200  0.56166300  1
  C  533  1  0.42939600  0.57629100  0.55023400  1
  C  534  1  0.44437000  0.56538500  0.53474300  1
  C  535  1  0.44009800  0.54350100  0.41603800  1
  C  536  1  0.41500600  0.53774900  0.41151100  1
  C  537  1  0.44964700  0.56292600  0.40679600  1
  C  538  1  0.43428600  0.57660300  0.39401300  1
  C  539  1  0.40898900  0.57118300  0.39008600  1
  C  540  1  0.39961500  0.55149400  0.39888000  1
  C  567  1  0.56618700  0.41658600  0.57450100  1
  C  568  1  0.39521800  0.57524500  0.57733100  1
  C  569  1  0.39260100  0.58630300  0.38129200  1
  C  570  1  0.56552600  0.41649300  0.37049100  1
  C  575  1  0.97749800  0.49769300  0.04148800  1
  C  576  1  0.99539600  0.51397600  0.04161600  1
  C  577  1  0.00104400  0.51943500  0.02004800  1
  C  579  1  0.97185700  0.49262400  0.01983800  1
  C  580  1  0.95391400  0.47681500  0.01306000  1
  C  581  1  0.94850000  0.47181300  0.99087100  1
  C  583  1  0.94882300  0.47180500  0.95417800  1
  C  584  1  0.93090300  0.45677200  0.96114400  1
  C  585  1  0.93087000  0.45662800  0.98362900  1
  C  586  1  0.95461300  0.47687600  0.93209400  1
  C  587  1  0.97253400  0.49287600  0.92565100  1
  C  589  1  0.00157300  0.51980700  0.92590900  1
  C  590  1  0.99635900  0.51442000  0.90425300  1
  C  591  1  0.97873800  0.49792400  0.90409900  1
  C  592  1  0.01863900  0.53634600  0.93266900  1
  C  593  1  0.02404500  0.54140200  0.95481300  1
  C  595  1  0.02394300  0.54119600  0.99147100  1
  C  596  1  0.03978600  0.55792100  0.98449200  1
  C  597  1  0.03995300  0.55797500  0.96199900  1
  C  598  1  0.01835500  0.53590600  0.01354300  1
  C  599  1  0.03002400  0.54891500  0.03011800  1
  C  600  1  0.05565000  0.54649700  0.03525200  1
  C  601  1  0.06748000  0.56067800  0.05014200  1
  C  602  1  0.05412900  0.57775000  0.06049800  1
  C  603  1  0.02836200  0.57982600  0.05545800  1
  C  604  1  0.01654900  0.56578100  0.04047200  1
  C  605  1  0.03031900  0.54956500  0.91629800  1
  C  606  1  0.05450400  0.54472000  0.90841300  1
  C  607  1  0.06652500  0.55870200  0.89344000  1
  C  608  1  0.05486700  0.57806100  0.88590300  1
  C  609  1  0.03056400  0.58269300  0.89385200  1
  C  610  1  0.01853200  0.56876900  0.90882100  1
  C  611  1  0.94055000  0.46588200  0.91542800  1
  C  612  1  0.92128300  0.47694800  0.90418900  1
  C  613  1  0.90657600  0.46613200  0.88849400  1
  C  614  1  0.91026200  0.44376800  0.88369300  1
  C  615  1  0.92950000  0.43268500  0.89506500  1
  C  616  1  0.94447200  0.44358800  0.91058900  1
  C  617  1  0.93997900  0.46523300  0.02936600  1
  C  618  1  0.91485400  0.47090900  0.03376200  1
  C  619  1  0.94957500  0.44590400  0.03877300  1
  C  620  1  0.93425300  0.43226400  0.05162100  1
  C  621  1  0.90890200  0.43757300  0.05536100  1
  C  622  1  0.89947300  0.45715800  0.04638300  1
  C  649  1  0.06627600  0.59235000  0.87112300  1
  C  650  1  0.89524500  0.43369300  0.86801600  1
  C  651  1  0.89253600  0.42244400  0.06418500  1
  C  652  1  0.06530600  0.59229700  0.07517400  1
  C  657  1  0.88322600  0.10692700  0.09710900  1
  C  658  1  0.89511800  0.12063800  0.11261100  1
  C  659  1  0.88005700  0.13317100  0.12725100  1
  C  660  1  0.85358400  0.13205400  0.12531100  1
  C  663  1  0.89201500  0.14589400  0.14349000  1
  C  664  1  0.91820200  0.14677000  0.14495400  1
  C  665  1  0.93294200  0.13485700  0.13030200  1
  C  666  1  0.92152000  0.12182500  0.11432300  1
  C  673  1  0.38297500  0.90215900  0.34834700  1
  C  674  1  0.39488200  0.88841500  0.33292100  1
  C  675  1  0.37982300  0.87583800  0.31828300  1
  C  676  1  0.35335500  0.87696300  0.32015600  1
  C  679  1  0.39177500  0.86305200  0.30212400  1
  C  680  1  0.41796200  0.86217600  0.30073100  1
  C  681  1  0.43270300  0.87414500  0.31537900  1
  C  682  1  0.42128400  0.88723000  0.33128400  1
  C  689  1  0.63356800  0.37812000  0.61886200  1
  C  690  1  0.64561300  0.39395900  0.60566500  1
  C  691  1  0.63078800  0.40743000  0.59166800  1
  C  692  1  0.60447200  0.40444100  0.59122000  1
  C  695  1  0.64280700  0.42338300  0.57863300  1
  C  696  1  0.66887800  0.42605500  0.57934500  1
  C  697  1  0.68340800  0.41282000  0.59303900  1
  C  698  1  0.67190100  0.39690300  0.60608800  1
  C  705  1  0.13363100  0.63074400  0.82669100  1
  C  706  1  0.14566500  0.61489800  0.83989700  1
  C  707  1  0.13084400  0.60144200  0.85389900  1
  C  708  1  0.10453500  0.60445300  0.85435000  1
  C  711  1  0.14285900  0.58548400  0.86694000  1
  C  712  1  0.16892100  0.58278900  0.86622800  1
  C  713  1  0.18344800  0.59600700  0.85252900  1
  C  714  1  0.17194400  0.61193000  0.83947600  1
  C  721  1  0.59498800  0.10734700  0.34977600  1
  C  722  1  0.58275400  0.11915600  0.33291000  1
  C  723  1  0.59714400  0.13370700  0.31967800  1
  C  724  1  0.62326900  0.13549200  0.32339800  1
  C  727  1  0.58497500  0.14571600  0.30300800  1
  C  728  1  0.55921600  0.14330300  0.29924500  1
  C  729  1  0.54521000  0.12872200  0.31192700  1
  C  730  1  0.55687000  0.11670700  0.32856500  1
  C  737  1  0.09499500  0.90163900  0.09582300  1
  C  738  1  0.08274200  0.88982800  0.11265600  1
  C  739  1  0.09710400  0.87524300  0.12588500  1
  C  740  1  0.12321600  0.87343200  0.12218500  1
  C  743  1  0.08491900  0.86322800  0.14252600  1
  C  744  1  0.05917200  0.86566700  0.14626100  1
  C  745  1  0.04519300  0.88028100  0.13358200  1
  C  746  1  0.05686900  0.89230100  0.11697200  1
  C  753  1  0.84517700  0.37792800  0.82586200  1
  C  754  1  0.83316000  0.39473700  0.83786600  1
  C  755  1  0.84750800  0.40711700  0.85319400  1
  C  756  1  0.87353800  0.40285900  0.85518100  1
  C  759  1  0.83530900  0.42312800  0.86598800  1
  C  760  1  0.80970800  0.42742300  0.86325800  1
  C  761  1  0.79585900  0.41585700  0.84765800  1
  C  762  1  0.80746300  0.39964900  0.83507900  1
  C  769  1  0.34521800  0.63101300  0.61956900  1
  C  770  1  0.33320300  0.61416200  0.60757500  1
  C  771  1  0.34752800  0.60178500  0.59226100  1
  C  772  1  0.37355700  0.60606800  0.59027100  1
  C  775  1  0.33530600  0.58575100  0.57947400  1
  C  776  1  0.30971700  0.58141500  0.58220400  1
  C  777  1  0.29589800  0.59296300  0.59779800  1
  C  778  1  0.30751800  0.60920200  0.61036500  1
  C  785  1  0.09363800  0.89881700  0.85122500  1
  C  786  1  0.08153100  0.88707300  0.83422500  1
  C  787  1  0.09650500  0.87568400  0.81859700  1
  C  788  1  0.12293000  0.87545100  0.82127600  1
  C  791  1  0.08453500  0.86511400  0.80088300  1
  C  792  1  0.05836700  0.86487600  0.79906000  1
  C  793  1  0.04367300  0.87512900  0.81494000  1
  C  794  1  0.05513600  0.88614500  0.83235000  1
  C  801  1  0.59333200  0.11010600  0.59436600  1
  C  802  1  0.58125500  0.12180100  0.61137700  1
  C  803  1  0.59626500  0.13316200  0.62703600  1
  C  804  1  0.62268200  0.13339500  0.62436500  1
  C  807  1  0.58434000  0.14370400  0.64475600  1
  C  808  1  0.55817500  0.14392900  0.64656400  1
  C  809  1  0.54344200  0.13368800  0.63066100  1
  C  810  1  0.55486400  0.12270500  0.61324200  1
  C  817  1  0.34341600  0.63001600  0.32548600  1
  C  818  1  0.33158900  0.61453600  0.33925800  1
  C  819  1  0.34670600  0.59981100  0.35168900  1
  C  820  1  0.37317500  0.60162600  0.35040100  1
  C  823  1  0.33480100  0.58361200  0.36448900  1
  C  824  1  0.30861800  0.58225200  0.36552100  1
  C  825  1  0.29383000  0.59697700  0.35370000  1
  C  826  1  0.30519500  0.61292800  0.34060500  1
  C  833  1  0.84351500  0.37874200  0.12009900  1
  C  834  1  0.83167200  0.39423000  0.10633500  1
  C  835  1  0.84677000  0.40893400  0.09387200  1
  C  836  1  0.87324200  0.40709100  0.09511100  1
  C  839  1  0.83484600  0.42514700  0.08109500  1
  C  840  1  0.80866100  0.42653500  0.08010600  1
  C  841  1  0.79388900  0.41182600  0.09195200  1
  C  842  1  0.80527400  0.39586600  0.10503100  1
  C  849  1  0.38126800  0.90090100  0.59560900  1
  C  850  1  0.39353200  0.88781900  0.61143200  1
  C  851  1  0.37890500  0.87388300  0.62511700  1
  C  852  1  0.35254400  0.87346400  0.62243300  1
  C  855  1  0.39115200  0.86090900  0.64099800  1
  C  856  1  0.41725700  0.86162400  0.64340300  1
  C  857  1  0.43159200  0.87527300  0.62997500  1
  C  858  1  0.41985600  0.88825600  0.61411900  1
  C  865  1  0.88157600  0.10802400  0.84980800  1
  C  866  1  0.89380600  0.12113500  0.83400500  1
  C  867  1  0.87914800  0.13506600  0.82032900  1
  C  868  1  0.85279300  0.13544900  0.82300600  1
  C  871  1  0.89135600  0.14807000  0.80446400  1
  C  872  1  0.91745700  0.14738700  0.80206900  1
  C  873  1  0.93182300  0.13374300  0.81549000  1
  C  874  1  0.92012500  0.12073100  0.83132900  1
  C  881  1  0.13153000  0.63138000  0.12009200  1
  C  882  1  0.14376500  0.61455500  0.10828900  1
  C  883  1  0.12940400  0.60144000  0.09360600  1
  C  884  1  0.10331800  0.60525700  0.09170500  1
  C  887  1  0.14155900  0.58480300  0.08159100  1
  C  888  1  0.16728300  0.58096600  0.08412500  1
  C  889  1  0.18126500  0.59353900  0.09883300  1
  C  890  1  0.16961200  0.61014000  0.11085500  1
  C  897  1  0.63169700  0.37738200  0.32560300  1
  C  898  1  0.64393600  0.39425500  0.33738500  1
  C  899  1  0.62959600  0.40737300  0.35204700  1
  C  900  1  0.60351300  0.40353200  0.35395900  1
  C  903  1  0.64176800  0.42405100  0.36403400  1
  C  904  1  0.66748000  0.42793200  0.36149400  1
  C  905  1  0.68143400  0.41536400  0.34680400  1
  C  906  1  0.66976800  0.39872000  0.33480900  1
  C  913  1  0.73295700  0.01182500  0.90402200  1
  C  914  1  0.75109900  0.99577900  0.90361100  1
  C  915  1  0.75695600  0.99004100  0.92507600  1
  C  917  1  0.72747800  0.01660000  0.92575500  1
  C  918  1  0.70964800  0.03235900  0.93280100  1
  C  919  1  0.70486000  0.03754000  0.95502900  1
  C  921  1  0.70587000  0.03755500  0.99167100  1
  C  922  1  0.68834500  0.05304000  0.98492200  1
  C  923  1  0.68779200  0.05308700  0.96244400  1
  C  924  1  0.71161600  0.03213000  0.01368000  1
  C  925  1  0.72913600  0.01577100  0.01996300  1
  C  927  1  0.75792900  0.98870300  0.01931800  1
  C  928  1  0.75173300  0.99295600  0.04102600  1
  C  929  1  0.73419900  0.00951800  0.04142200  1
  C  930  1  0.77502800  0.97235800  0.01223900  1
  C  931  1  0.78054000  0.96775700  0.99000300  1
  C  933  1  0.78031900  0.96831400  0.95332800  1
  C  934  1  0.79658300  0.95183900  0.96012000  1
  C  935  1  0.79684500  0.95159200  0.98260300  1
  C  936  1  0.77461000  0.97371700  0.93129600  1
  C  937  1  0.78727200  0.96169300  0.91449600  1
  C  938  1  0.81305900  0.96492500  0.91041700  1
  C  939  1  0.82566300  0.95276500  0.89430300  1
  C  940  1  0.81279300  0.93704600  0.88173400  1
  C  941  1  0.78701000  0.93383300  0.88570200  1
  C  942  1  0.77452000  0.94576900  0.90204100  1
  C  943  1  0.78624500  0.95843100  0.02826600  1
  C  944  1  0.80921100  0.96381300  0.03836100  1
  C  945  1  0.82161200  0.94868300  0.05195500  1
  C  946  1  0.81160600  0.92760300  0.05568500  1
  C  947  1  0.78838000  0.92252600  0.04574600  1
  C  948  1  0.77590300  0.93763100  0.03231300  1
  C  949  1  0.69737300  0.04288000  0.03029700  1
  C  950  1  0.67505100  0.03334200  0.03808100  1
  C  951  1  0.65896700  0.04498100  0.05203700  1
  C  952  1  0.66452700  0.06657000  0.05869800  1
  C  953  1  0.68717700  0.07590100  0.05114300  1
  C  954  1  0.70328600  0.06428800  0.03712000  1
  C  955  1  0.69462500  0.04322700  0.91675000  1
  C  956  1  0.66975500  0.03637300  0.91303200  1
  C  957  1  0.70300800  0.06240900  0.90627700  1
  C  958  1  0.68686500  0.07449200  0.89263900  1
  C  959  1  0.66171800  0.06796400  0.88920400  1
  C  960  1  0.65362100  0.04854800  0.89955300  1
  C  987  1  0.82373900  0.91171000  0.06816400  1
  C  988  1  0.64733400  0.07809000  0.07142500  1
  C  989  1  0.64472300  0.08025900  0.87694100  1
  C  990  1  0.82425700  0.92681700  0.86426900  1
  C  995  1  0.23263600  0.99715300  0.54146100  1
  C  996  1  0.25081200  0.01318800  0.54189900  1
  C  997  1  0.25662800  0.01895000  0.52044100  1
  C  999  1  0.22713400  0.99238400  0.51971800  1
  C  1000  1  0.20927100  0.97663500  0.51264500  1
  C  1001  1  0.20448700  0.97149600  0.49040000  1
  C  1003  1  0.20552500  0.97156000  0.45376700  1
  C  1004  1  0.18797600  0.95605700  0.46044000  1
  C  1005  1  0.18740400  0.95596400  0.48291600  1
  C  1006  1  0.21128800  0.97703200  0.43178300  1
  C  1007  1  0.22886500  0.99335000  0.42552100  1
  C  1009  1  0.25772700  0.02038500  0.42620700  1
  C  1010  1  0.25150000  0.01615200  0.40448900  1
  C  1011  1  0.23395000  0.99958600  0.40406500  1
  C  1012  1  0.27487600  0.03671000  0.43331300  1
  C  1013  1  0.28031200  0.04132800  0.45556700  1
  C  1015  1  0.27999800  0.04074400  0.49223600  1
  C  1016  1  0.29632800  0.05720500  0.48551800  1
  C  1017  1  0.29664900  0.05746700  0.46303600  1
  C  1018  1  0.27426600  0.03529400  0.51424100  1
  C  1019  1  0.28694700  0.04727900  0.53106900  1
  C  1020  1  0.31268400  0.04390000  0.53527800  1
  C  1021  1  0.32531800  0.05602100  0.55143000  1
  C  1022  1  0.31252500  0.07184300  0.56388400  1
  C  1023  1  0.28678400  0.07518600  0.55979500  1
  C  1024  1  0.27426300  0.06329100  0.54341700  1
  C  1025  1  0.28612400  0.05064800  0.41731500  1
  C  1026  1  0.30900100  0.04520100  0.40715900  1
  C  1027  1  0.32142300  0.06030600  0.39355900  1
  C  1028  1  0.31154300  0.08143500  0.38988900  1
  C  1029  1  0.28840000  0.08657800  0.39988200  1
  C  1030  1  0.27590600  0.07150100  0.41332600  1
  C  1031  1  0.19704300  0.96630200  0.41513600  1
  C  1032  1  0.17468800  0.97580200  0.40737600  1
  C  1033  1  0.15860000  0.96414500  0.39340100  1
  C  1034  1  0.16420400  0.94258300  0.38671900  1
  C  1035  1  0.18691100  0.93330500  0.39422900  1
  C  1036  1  0.20302300  0.94493300  0.40827200  1
  C  1037  1  0.19424600  0.96574100  0.52866300  1
  C  1038  1  0.16934700  0.97251400  0.53229200  1
  C  1039  1  0.20265000  0.94659300  0.53919200  1
  C  1040  1  0.18652400  0.93449300  0.55281700  1
  C  1041  1  0.16135900  0.94095300  0.55617700  1
  C  1042  1  0.15322700  0.96031900  0.54575000  1
  C  1069  1  0.32370600  0.09730800  0.37740000  1
  C  1070  1  0.14702400  0.93103900  0.37397400  1
  C  1071  1  0.14438200  0.92864500  0.56843900  1
  C  1072  1  0.32402200  0.08204900  0.58135100  1
  C  1077  1  0.48280200  0.18615700  0.71631900  1
  C  1078  1  0.50075800  0.18588100  0.73255600  1
  C  1079  1  0.50700400  0.20739800  0.73772700  1
  C  1081  1  0.47778700  0.20784600  0.71094700  1
  C  1082  1  0.46021200  0.21477900  0.69490000  1
  C  1083  1  0.45541300  0.23698800  0.68957000  1
  C  1085  1  0.45612700  0.27363900  0.68951800  1
  C  1086  1  0.43904600  0.26678900  0.67369000  1
  C  1087  1  0.43869800  0.24431300  0.67365000  1
  C  1088  1  0.46157100  0.29568700  0.69499200  1
  C  1089  1  0.47893300  0.30211000  0.71142800  1
  C  1091  1  0.50775000  0.30167300  0.73851500  1
  C  1092  1  0.50121300  0.32332800  0.73433500  1
  C  1093  1  0.48366800  0.32360000  0.71774800  1
  C  1094  1  0.52502400  0.29471000  0.75480400  1
  C  1095  1  0.53070700  0.27250800  0.75944900  1
  C  1097  1  0.53051800  0.23583100  0.75913000  1
  C  1098  1  0.54694000  0.24272400  0.77546400  1
  C  1099  1  0.54717900  0.26520900  0.77556500  1
  C  1100  1  0.52462000  0.21377500  0.75400900  1
  C  1101  1  0.53628200  0.19711100  0.76693800  1
  C  1102  1  0.56181300  0.19177900  0.76427400  1
  C  1103  1  0.57361800  0.17665400  0.77822700  1
  C  1104  1  0.56033600  0.16622000  0.79530900  1
  C  1105  1  0.53466100  0.17145600  0.79764100  1
  C  1106  1  0.52288300  0.18669100  0.78383200  1
  C  1107  1  0.53609900  0.31080700  0.76873100  1
  C  1108  1  0.55900700  0.32098900  0.76338000  1
  C  1109  1  0.57126800  0.33470600  0.77848600  1
  C  1110  1  0.56119200  0.33845900  0.79951900  1
  C  1111  1  0.53799600  0.32845900  0.80454500  1
  C  1112  1  0.52564300  0.31491800  0.78945700  1
  C  1113  1  0.44726800  0.31218000  0.68408700  1
  C  1114  1  0.42434800  0.31929700  0.69302200  1
  C  1115  1  0.40822000  0.33296000  0.68103300  1
  C  1116  1  0.41435200  0.33995300  0.65967800  1
  C  1117  1  0.43758600  0.33308400  0.65095900  1
  C  1118  1  0.45372900  0.31935400  0.66291900  1
  C  1119  1  0.44575900  0.19864100  0.68358500  1
  C  1120  1  0.42044100  0.19516600  0.68924700  1
  C  1121  1  0.45505000  0.18855100  0.66451200  1
  C  1122  1  0.43924400  0.17589500  0.65109400  1
  C  1123  1  0.41372800  0.17304600  0.65638800  1
  C  1124  1  0.40460700  0.18271900  0.67573200  1
  C  1151  1  0.57330600  0.35091300  0.81545300  1
  C  1152  1  0.39712700  0.35216600  0.64763500  1
  C  1153  1  0.39700600  0.16419100  0.64156300  1
  C  1154  1  0.57153500  0.15136000  0.80966600  1
  C  1159  1  0.98283520  0.82266400  0.72920500  1
  C  1160  1  0.00074300  0.82294500  0.71296200  1
  C  1161  1  0.00697700  0.80143300  0.70780000  1
  C  1163  1  0.97782120  0.80097500  0.73458800  1
  C  1164  1  0.96027820  0.79404200  0.75064000  1
  C  1165  1  0.95549420  0.77182000  0.75594500  1
  C  1167  1  0.95619620  0.73516000  0.75596000  1
  C  1168  1  0.93917420  0.74198900  0.77180400  1
  C  1169  1  0.93882520  0.76446500  0.77186000  1
  C  1170  1  0.96162120  0.71311500  0.75048100  1
  C  1171  1  0.97897720  0.70670300  0.73406800  1
  C  1173  1  0.00778100  0.70714800  0.70701300  1
  C  1174  1  0.00124000  0.68549200  0.71119900  1
  C  1175  1  0.98371220  0.68521600  0.72776700  1
  C  1176  1  0.02503600  0.71411200  0.69072900  1
  C  1177  1  0.03069500  0.73632700  0.68610100  1
  C  1179  1  0.03045800  0.77301300  0.68640800  1
  C  1180  1  0.04682900  0.76614300  0.67006600  1
  C  1181  1  0.04711500  0.74365600  0.66998400  1
  C  1182  1  0.02456500  0.79506800  0.69152500  1
  C  1183  1  0.03618900  0.81174300  0.67858400  1
  C  1184  1  0.06173200  0.81710100  0.68122800  1
  C  1185  1  0.07350000  0.83222000  0.66725100  1
  C  1186  1  0.06016500  0.84263700  0.65017200  1
  C  1187  1  0.03447900  0.83738100  0.64786300  1
  C  1188  1  0.02274200  0.82214400  0.66169000  1
  C  1189  1  0.03610000  0.69801400  0.67680500  1
  C  1190  1  0.05901400  0.68783300  0.68216200  1
  C  1191  1  0.07127500  0.67415100  0.66705000  1
  C  1192  1  0.06118600  0.67039100  0.64600000  1
  C  1193  1  0.03798400  0.68038300  0.64096700  1
  C  1194  1  0.02565500  0.69391700  0.65604800  1
  C  1195  1  0.94735320  0.69660500  0.76140400  1
  C  1196  1  0.92440720  0.68947100  0.75246400  1
  C  1197  1  0.90827620  0.67584100  0.76447500  1
  C  1198  1  0.91443920  0.66886500  0.78583900  1
  C  1199  1  0.93770520  0.67574300  0.79455500  1
  C  1200  1  0.95386420  0.68942900  0.78257000  1
  C  1201  1  0.94585020  0.81017700  0.76196700  1
  C  1202  1  0.92050220  0.81361100  0.75634000  1
  C  1203  1  0.95520520  0.82034000  0.78100300  1
  C  1204  1  0.93946820  0.83305600  0.79438900  1
  C  1205  1  0.91390820  0.83581900  0.78916000  1
  C  1206  1  0.90471420  0.82604900  0.76986300  1
  C  1233  1  0.07326300  0.65793000  0.63006200  1
  C  1234  1  0.89720700  0.65668000  0.79789600  1
  C  1235  1  0.89722200  0.84466900  0.80399900  1
  C  1236  1  0.07132200  0.85750200  0.63579500  1
  C  1241  1  0.00694000  0.82325100  0.22969200  1
  C  1242  1  0.98901620  0.82350500  0.21343000  1
  C  1243  1  0.98280920  0.80198000  0.20826900  1
  C  1245  1  0.01202300  0.80156800  0.23505300  1
  C  1246  1  0.02961800  0.79465000  0.25109200  1
  C  1247  1  0.03457600  0.77244800  0.25635800  1
  C  1249  1  0.03405100  0.73578100  0.25635100  1
  C  1250  1  0.05116000  0.74266900  0.27213300  1
  C  1251  1  0.05137300  0.76515100  0.27222700  1
  C  1252  1  0.02863700  0.71372200  0.25089300  1
  C  1253  1  0.01124900  0.70730300  0.23446600  1
  C  1255  1  0.98238520  0.70773100  0.20742000  1
  C  1256  1  0.98890320  0.68607600  0.21161200  1
  C  1257  1  0.00648400  0.68581100  0.22816600  1
  C  1258  1  0.96508720  0.71468800  0.19115300  1
  C  1259  1  0.95926920  0.73686700  0.18656300  1
  C  1261  1  0.95931920  0.77352500  0.18690400  1
  C  1262  1  0.94295620  0.76660400  0.17053700  1
  C  1263  1  0.94280520  0.74412500  0.17042100  1
  C  1264  1  0.96518820  0.79558800  0.19200000  1
  C  1265  1  0.95354520  0.81219900  0.17899500  1
  C  1266  1  0.92798220  0.81749000  0.18152300  1
  C  1267  1  0.91613320  0.83231600  0.16727200  1
  C  1268  1  0.92939720  0.84245600  0.15000300  1
  C  1269  1  0.95510620  0.83727900  0.14782500  1
  C  1270  1  0.96692220  0.82234100  0.16192500  1
  C  1271  1  0.95402920  0.69860000  0.17722900  1
  C  1272  1  0.93093520  0.68866400  0.18242000  1
  C  1273  1  0.91860620  0.67513000  0.16720300  1
  C  1274  1  0.92882320  0.67132300  0.14623400  1
  C  1275  1  0.95217820  0.68109500  0.14134900  1
  C  1276  1  0.96458020  0.69447600  0.15654200  1
  C  1277  1  0.04303700  0.69720400  0.26169200  1
  C  1278  1  0.06543200  0.68956900  0.25219900  1
  C  1279  1  0.08153300  0.67555900  0.26379900  1
  C  1280  1  0.07592700  0.66868500  0.28531100  1
  C  1281  1  0.05320900  0.67609800  0.29460100  1
  C  1282  1  0.03707400  0.69017200  0.28302100  1
  C  1283  1  0.04375500  0.81085100  0.26261400  1
  C  1284  1  0.06910300  0.81462100  0.25724200  1
  C  1285  1  0.03401000  0.82083000  0.28157100  1
  C  1286  1  0.04939700  0.83367600  0.29516400  1
  C  1287  1  0.07494100  0.83679300  0.29016100  1
  C  1288  1  0.08453000  0.82728100  0.27091700  1
  C  1315  1  0.91673720  0.65893800  0.13026200  1
  C  1316  1  0.09313300  0.65587500  0.29678100  1
  C  1317  1  0.09119100  0.84581600  0.30524700  1
  C  1318  1  0.91820420  0.85705600  0.13536900  1
  C  1323  1  0.50707200  0.18556800  0.21595000  1
  C  1324  1  0.48915100  0.18531400  0.23218400  1
  C  1325  1  0.48299700  0.20683600  0.23736100  1
  C  1327  1  0.51219000  0.20725000  0.21060300  1
  C  1328  1  0.52980200  0.21416300  0.19459500  1
  C  1329  1  0.53474900  0.23637800  0.18935500  1
  C  1331  1  0.53422400  0.27305600  0.18938100  1
  C  1332  1  0.55131800  0.26618600  0.17361900  1
  C  1333  1  0.55153500  0.24370400  0.17351700  1
  C  1334  1  0.52882500  0.29511400  0.19483200  1
  C  1335  1  0.51143700  0.30153300  0.21122200  1
  C  1337  1  0.48257800  0.30110400  0.23823000  1
  C  1338  1  0.48911200  0.32276000  0.23403600  1
  C  1339  1  0.50666200  0.32302400  0.21749000  1
  C  1340  1  0.46527100  0.29415500  0.25447200  1
  C  1341  1  0.45952900  0.27195800  0.25909100  1
  C  1343  1  0.45959700  0.23529000  0.25874900  1
  C  1344  1  0.44325000  0.24219500  0.27509400  1
  C  1345  1  0.44308800  0.26467500  0.27521300  1
  C  1346  1  0.46541300  0.21322700  0.25362700  1
  C  1347  1  0.45374400  0.19660900  0.26660700  1
  C  1348  1  0.42816400  0.19133800  0.26404500  1
  C  1349  1  0.41628000  0.17653200  0.27828600  1
  C  1350  1  0.42952100  0.16638500  0.29558200  1
  C  1351  1  0.45524800  0.17153300  0.29779200  1
  C  1352  1  0.46710600  0.18643800  0.28369000  1
  C  1353  1  0.45423100  0.31023900  0.26840200  1
  C  1354  1  0.43116400  0.32021300  0.26318000  1
  C  1355  1  0.41885900  0.33375100  0.27838200  1
  C  1356  1  0.42905400  0.33752800  0.29938800  1
  C  1357  1  0.45238400  0.32771900  0.30430500  1
  C  1358  1  0.46475500  0.31432800  0.28913100  1
  C  1359  1  0.54320800  0.31164100  0.18402300  1
  C  1360  1  0.56563800  0.31929400  0.19349700  1
  C  1361  1  0.58172300  0.33333333  0.18187300  1
  C  1362  1  0.57606800  0.34013100  0.16034900  1
  C  1363  1  0.55329400  0.33272400  0.15109000  1
  C  1364  1  0.53717900  0.31865800  0.16269000  1
  C  1365  1  0.54394700  0.19796900  0.18309200  1
  C  1366  1  0.56933200  0.19428300  0.18844000  1
  C  1367  1  0.53421600  0.18794900  0.16412000  1
  C  1368  1  0.54960400  0.17512600  0.15054000  1
  C  1369  1  0.57516900  0.17207800  0.15554200  1
  C  1370  1  0.58476800  0.18166400  0.17477200  1
  C  1397  1  0.41699400  0.34991400  0.31536500  1
  C  1398  1  0.59326200  0.35292500  0.14885300  1
  C  1399  1  0.59146300  0.16312100  0.14047000  1
  C  1400  1  0.41829300  0.15181200  0.31021900  1
  C  1405  1  0.23459900  0.51110000  0.40399300  1
  C  1406  1  0.25251000  0.49484900  0.40389800  1
  C  1407  1  0.25812900  0.48936600  0.42547300  1
  C  1409  1  0.22892800  0.51614300  0.42563300  1
  C  1410  1  0.21097800  0.53192800  0.43237900  1
  C  1411  1  0.20554200  0.53696000  0.45454700  1
  C  1413  1  0.20583100  0.53705500  0.49124500  1
  C  1414  1  0.18789000  0.55202600  0.48420000  1
  C  1415  1  0.18788800  0.55212900  0.46171400  1
  C  1416  1  0.21160200  0.53204100  0.51335600  1
  C  1417  1  0.22950200  0.51603300  0.51982700  1
  C  1419  1  0.25850100  0.48909100  0.51962000  1
  C  1420  1  0.25331700  0.49449900  0.54126600  1
  C  1421  1  0.23572200  0.51099900  0.54138800  1
  C  1422  1  0.27554100  0.47254800  0.51289000  1
  C  1423  1  0.28097400  0.46746700  0.49076600  1
  C  1425  1  0.28096800  0.46763800  0.45410200  1
  C  1426  1  0.29678800  0.45093300  0.46115700  1
  C  1427  1  0.29687400  0.45088700  0.48365000  1
  C  1428  1  0.27543500  0.47289900  0.43200300  1
  C  1429  1  0.28714700  0.45989800  0.41545500  1
  C  1430  1  0.31281700  0.46224900  0.41047200  1
  C  1431  1  0.32466700  0.44807500  0.39561500  1
  C  1432  1  0.31130800  0.43105000  0.38513700  1
  C  1433  1  0.28550800  0.42903200  0.39002800  1
  C  1434  1  0.27367000  0.44307900  0.40497300  1
  C  1435  1  0.28721100  0.45935200  0.52929400  1
  C  1436  1  0.31142700  0.46418300  0.53717100  1
  C  1437  1  0.32344200  0.45021100  0.55216600  1
  C  1438  1  0.31174500  0.43087300  0.55971700  1
  C  1439  1  0.28740700  0.42626100  0.55178200  1
  C  1440  1  0.27537300  0.44018000  0.53680000  1
  C  1441  1  0.19752300  0.54304800  0.52999000  1
  C  1442  1  0.17832400  0.53196200  0.54127900  1
  C  1443  1  0.16361300  0.54278300  0.55693600  1
  C  1444  1  0.16720700  0.56518200  0.56166300  1
  C  1445  1  0.18636700  0.57629100  0.55023400  1
  C  1446  1  0.20134100  0.56538500  0.53474300  1
  C  1447  1  0.19706900  0.54350100  0.41603800  1
  C  1448  1  0.17197700  0.53774900  0.41151100  1
  C  1449  1  0.20661800  0.56292600  0.40679600  1
  C  1450  1  0.19125700  0.57660300  0.39401300  1
  C  1451  1  0.16596000  0.57118300  0.39008600  1
  C  1452  1  0.15658600  0.55149400  0.39888000  1
  C  1479  1  0.32315800  0.41658600  0.57450100  1
  C  1480  1  0.15218900  0.57524500  0.57733100  1
  C  1481  1  0.14957200  0.58630300  0.38129200  1
  C  1482  1  0.32249700  0.41649300  0.37049100  1
  C  1487  1  0.73446900  0.49769300  0.04148800  1
  C  1488  1  0.75236700  0.51397600  0.04161600  1
  C  1489  1  0.75801500  0.51943500  0.02004800  1
  C  1491  1  0.72882800  0.49262400  0.01983800  1
  C  1492  1  0.71088500  0.47681500  0.01306000  1
  C  1493  1  0.70547100  0.47181300  0.99087100  1
  C  1495  1  0.70579400  0.47180500  0.95417800  1
  C  1496  1  0.68787400  0.45677200  0.96114400  1
  C  1497  1  0.68784100  0.45662800  0.98362900  1
  C  1498  1  0.71158400  0.47687600  0.93209400  1
  C  1499  1  0.72950500  0.49287600  0.92565100  1
  C  1501  1  0.75854400  0.51980700  0.92590900  1
  C  1502  1  0.75333000  0.51442000  0.90425300  1
  C  1503  1  0.73570900  0.49792400  0.90409900  1
  C  1504  1  0.77561000  0.53634600  0.93266900  1
  C  1505  1  0.78101600  0.54140200  0.95481300  1
  C  1507  1  0.78091400  0.54119600  0.99147100  1
  C  1508  1  0.79675700  0.55792100  0.98449200  1
  C  1509  1  0.79692400  0.55797500  0.96199900  1
  C  1510  1  0.77532600  0.53590600  0.01354300  1
  C  1511  1  0.78699500  0.54891500  0.03011800  1
  C  1512  1  0.81262100  0.54649700  0.03525200  1
  C  1513  1  0.82445100  0.56067800  0.05014200  1
  C  1514  1  0.81110000  0.57775000  0.06049800  1
  C  1515  1  0.78533300  0.57982600  0.05545800  1
  C  1516  1  0.77352000  0.56578100  0.04047200  1
  C  1517  1  0.78729000  0.54956500  0.91629800  1
  C  1518  1  0.81147500  0.54472000  0.90841300  1
  C  1519  1  0.82349600  0.55870200  0.89344000  1
  C  1520  1  0.81183800  0.57806100  0.88590300  1
  C  1521  1  0.78753500  0.58269300  0.89385200  1
  C  1522  1  0.77550300  0.56876900  0.90882100  1
  C  1523  1  0.69752100  0.46588200  0.91542800  1
  C  1524  1  0.67825400  0.47694800  0.90418900  1
  C  1525  1  0.66354700  0.46613200  0.88849400  1
  C  1526  1  0.66723300  0.44376800  0.88369300  1
  C  1527  1  0.68647100  0.43268500  0.89506500  1
  C  1528  1  0.70144300  0.44358800  0.91058900  1
  C  1529  1  0.69695000  0.46523300  0.02936600  1
  C  1530  1  0.67182500  0.47090900  0.03376200  1
  C  1531  1  0.70654600  0.44590400  0.03877300  1
  C  1532  1  0.69122400  0.43226400  0.05162100  1
  C  1533  1  0.66587300  0.43757300  0.05536100  1
  C  1534  1  0.65644400  0.45715800  0.04638300  1
  C  1561  1  0.82324700  0.59235000  0.87112300  1
  C  1562  1  0.65221600  0.43369300  0.86801600  1
  C  1563  1  0.64950700  0.42244400  0.06418500  1
  C  1564  1  0.82227700  0.59229700  0.07517400  1
  C  1569  1  0.64019700  0.10692700  0.09710900  1
  C  1570  1  0.65208900  0.12063800  0.11261100  1
  C  1571  1  0.63702800  0.13317100  0.12725100  1
  C  1572  1  0.61055500  0.13205400  0.12531100  1
  C  1575  1  0.64898600  0.14589400  0.14349000  1
  C  1576  1  0.67517300  0.14677000  0.14495400  1
  C  1577  1  0.68991300  0.13485700  0.13030200  1
  C  1578  1  0.67849100  0.12182500  0.11432300  1
  C  1585  1  0.13994600  0.90215900  0.34834700  1
  C  1586  1  0.15185300  0.88841500  0.33292100  1
  C  1587  1  0.13679400  0.87583800  0.31828300  1
  C  1588  1  0.11032600  0.87696300  0.32015600  1
  C  1591  1  0.14874600  0.86305200  0.30212400  1
  C  1592  1  0.17493300  0.86217600  0.30073100  1
  C  1593  1  0.18967400  0.87414500  0.31537900  1
  C  1594  1  0.17825500  0.88723000  0.33128400  1
  C  1601  1  0.39053900  0.37812000  0.61886200  1
  C  1602  1  0.40258400  0.39395900  0.60566500  1
  C  1603  1  0.38775900  0.40743000  0.59166800  1
  C  1604  1  0.36144300  0.40444100  0.59122000  1
  C  1607  1  0.39977800  0.42338300  0.57863300  1
  C  1608  1  0.42584900  0.42605500  0.57934500  1
  C  1609  1  0.44037900  0.41282000  0.59303900  1
  C  1610  1  0.42887200  0.39690300  0.60608800  1
  C  1617  1  0.89060200  0.63074400  0.82669100  1
  C  1618  1  0.90263620  0.61489800  0.83989700  1
  C  1619  1  0.88781500  0.60144200  0.85389900  1
  C  1620  1  0.86150600  0.60445300  0.85435000  1
  C  1623  1  0.89983000  0.58548400  0.86694000  1
  C  1624  1  0.92589220  0.58278900  0.86622800  1
  C  1625  1  0.94041920  0.59600700  0.85252900  1
  C  1626  1  0.92891520  0.61193000  0.83947600  1
  C  1633  1  0.35195900  0.10734700  0.34977600  1
  C  1634  1  0.33972500  0.11915600  0.33291000  1
  C  1635  1  0.35411500  0.13370700  0.31967800  1
  C  1636  1  0.38024000  0.13549200  0.32339800  1
  C  1639  1  0.34194600  0.14571600  0.30300800  1
  C  1640  1  0.31618700  0.14330300  0.29924500  1
  C  1641  1  0.30218100  0.12872200  0.31192700  1
  C  1642  1  0.31384100  0.11670700  0.32856500  1
  C  1649  1  0.85196600  0.90163900  0.09582300  1
  C  1650  1  0.83971300  0.88982800  0.11265600  1
  C  1651  1  0.85407500  0.87524300  0.12588500  1
  C  1652  1  0.88018700  0.87343200  0.12218500  1
  C  1655  1  0.84189000  0.86322800  0.14252600  1
  C  1656  1  0.81614300  0.86566700  0.14626100  1
  C  1657  1  0.80216400  0.88028100  0.13358200  1
  C  1658  1  0.81384000  0.89230100  0.11697200  1
  C  1665  1  0.60214800  0.37792800  0.82586200  1
  C  1666  1  0.59013100  0.39473700  0.83786600  1
  C  1667  1  0.60447900  0.40711700  0.85319400  1
  C  1668  1  0.63050900  0.40285900  0.85518100  1
  C  1671  1  0.59228000  0.42312800  0.86598800  1
  C  1672  1  0.56667900  0.42742300  0.86325800  1
  C  1673  1  0.55283000  0.41585700  0.84765800  1
  C  1674  1  0.56443400  0.39964900  0.83507900  1
  C  1681  1  0.10218900  0.63101300  0.61956900  1
  C  1682  1  0.09017400  0.61416200  0.60757500  1
  C  1683  1  0.10449900  0.60178500  0.59226100  1
  C  1684  1  0.13052800  0.60606800  0.59027100  1
  C  1687  1  0.09227700  0.58575100  0.57947400  1
  C  1688  1  0.06668800  0.58141500  0.58220400  1
  C  1689  1  0.05286900  0.59296300  0.59779800  1
  C  1690  1  0.06448900  0.60920200  0.61036500  1
  C  1697  1  0.85060900  0.89881700  0.85122500  1
  C  1698  1  0.83850200  0.88707300  0.83422500  1
  C  1699  1  0.85347600  0.87568400  0.81859700  1
  C  1700  1  0.87990100  0.87545100  0.82127600  1
  C  1703  1  0.84150600  0.86511400  0.80088300  1
  C  1704  1  0.81533800  0.86487600  0.79906000  1
  C  1705  1  0.80064400  0.87512900  0.81494000  1
  C  1706  1  0.81210700  0.88614500  0.83235000  1
  C  1713  1  0.35030300  0.11010600  0.59436600  1
  C  1714  1  0.33822600  0.12180100  0.61137700  1
  C  1715  1  0.35323600  0.13316200  0.62703600  1
  C  1716  1  0.37965300  0.13339500  0.62436500  1
  C  1719  1  0.34131100  0.14370400  0.64475600  1
  C  1720  1  0.31514600  0.14392900  0.64656400  1
  C  1721  1  0.30041300  0.13368800  0.63066100  1
  C  1722  1  0.31183500  0.12270500  0.61324200  1
  C  1729  1  0.10038700  0.63001600  0.32548600  1
  C  1730  1  0.08856000  0.61453600  0.33925800  1
  C  1731  1  0.10367700  0.59981100  0.35168900  1
  C  1732  1  0.13014600  0.60162600  0.35040100  1
  C  1735  1  0.09177200  0.58361200  0.36448900  1
  C  1736  1  0.06558900  0.58225200  0.36552100  1
  C  1737  1  0.05080100  0.59697700  0.35370000  1
  C  1738  1  0.06216600  0.61292800  0.34060500  1
  C  1745  1  0.60048600  0.37874200  0.12009900  1
  C  1746  1  0.58864300  0.39423000  0.10633500  1
  C  1747  1  0.60374100  0.40893400  0.09387200  1
  C  1748  1  0.63021300  0.40709100  0.09511100  1
  C  1751  1  0.59181700  0.42514700  0.08109500  1
  C  1752  1  0.56563200  0.42653500  0.08010600  1
  C  1753  1  0.55086000  0.41182600  0.09195200  1
  C  1754  1  0.56224500  0.39586600  0.10503100  1
  C  1761  1  0.13823900  0.90090100  0.59560900  1
  C  1762  1  0.15050300  0.88781900  0.61143200  1
  C  1763  1  0.13587600  0.87388300  0.62511700  1
  C  1764  1  0.10951500  0.87346400  0.62243300  1
  C  1767  1  0.14812300  0.86090900  0.64099800  1
  C  1768  1  0.17422800  0.86162400  0.64340300  1
  C  1769  1  0.18856300  0.87527300  0.62997500  1
  C  1770  1  0.17682700  0.88825600  0.61411900  1
  C  1777  1  0.63854700  0.10802400  0.84980800  1
  C  1778  1  0.65077700  0.12113500  0.83400500  1
  C  1779  1  0.63611900  0.13506600  0.82032900  1
  C  1780  1  0.60976400  0.13544900  0.82300600  1
  C  1783  1  0.64832700  0.14807000  0.80446400  1
  C  1784  1  0.67442800  0.14738700  0.80206900  1
  C  1785  1  0.68879400  0.13374300  0.81549000  1
  C  1786  1  0.67709600  0.12073100  0.83132900  1
  C  1793  1  0.88850100  0.63138000  0.12009200  1
  C  1794  1  0.90073620  0.61455500  0.10828900  1
  C  1795  1  0.88637500  0.60144000  0.09360600  1
  C  1796  1  0.86028900  0.60525700  0.09170500  1
  C  1799  1  0.89853000  0.58480300  0.08159100  1
  C  1800  1  0.92425420  0.58096600  0.08412500  1
  C  1801  1  0.93823620  0.59353900  0.09883300  1
  C  1802  1  0.92658320  0.61014000  0.11085500  1
  C  1809  1  0.38866800  0.37738200  0.32560300  1
  C  1810  1  0.40090700  0.39425500  0.33738500  1
  C  1811  1  0.38656700  0.40737300  0.35204700  1
  C  1812  1  0.36048400  0.40353200  0.35395900  1
  C  1815  1  0.39873900  0.42405100  0.36403400  1
  C  1816  1  0.42445100  0.42793200  0.36149400  1
  C  1817  1  0.43840500  0.41536400  0.34680400  1
  C  1818  1  0.42673900  0.39872000  0.33480900  1
  C  1825  1  0.48992800  0.01182500  0.90402200  1
  C  1826  1  0.50807000  0.99577900  0.90361100  1
  C  1827  1  0.51392700  0.99004100  0.92507600  1
  C  1829  1  0.48444900  0.01660000  0.92575500  1
  C  1830  1  0.46661900  0.03235900  0.93280100  1
  C  1831  1  0.46183100  0.03754000  0.95502900  1
  C  1833  1  0.46284100  0.03755500  0.99167100  1
  C  1834  1  0.44531600  0.05304000  0.98492200  1
  C  1835  1  0.44476300  0.05308700  0.96244400  1
  C  1836  1  0.46858700  0.03213000  0.01368000  1
  C  1837  1  0.48610700  0.01577100  0.01996300  1
  C  1839  1  0.51490000  0.98870300  0.01931800  1
  C  1840  1  0.50870400  0.99295600  0.04102600  1
  C  1841  1  0.49117000  0.00951800  0.04142200  1
  C  1842  1  0.53199900  0.97235800  0.01223900  1
  C  1843  1  0.53751100  0.96775700  0.99000300  1
  C  1845  1  0.53729000  0.96831400  0.95332800  1
  C  1846  1  0.55355400  0.95183900  0.96012000  1
  C  1847  1  0.55381600  0.95159200  0.98260300  1
  C  1848  1  0.53158100  0.97371700  0.93129600  1
  C  1849  1  0.54424300  0.96169300  0.91449600  1
  C  1850  1  0.57003000  0.96492500  0.91041700  1
  C  1851  1  0.58263400  0.95276500  0.89430300  1
  C  1852  1  0.56976400  0.93704600  0.88173400  1
  C  1853  1  0.54398100  0.93383300  0.88570200  1
  C  1854  1  0.53149100  0.94576900  0.90204100  1
  C  1855  1  0.54321600  0.95843100  0.02826600  1
  C  1856  1  0.56618200  0.96381300  0.03836100  1
  C  1857  1  0.57858300  0.94868300  0.05195500  1
  C  1858  1  0.56857700  0.92760300  0.05568500  1
  C  1859  1  0.54535100  0.92252600  0.04574600  1
  C  1860  1  0.53287400  0.93763100  0.03231300  1
  C  1861  1  0.45434400  0.04288000  0.03029700  1
  C  1862  1  0.43202200  0.03334200  0.03808100  1
  C  1863  1  0.41593800  0.04498100  0.05203700  1
  C  1864  1  0.42149800  0.06657000  0.05869800  1
  C  1865  1  0.44414800  0.07590100  0.05114300  1
  C  1866  1  0.46025700  0.06428800  0.03712000  1
  C  1867  1  0.45159600  0.04322700  0.91675000  1
  C  1868  1  0.42672600  0.03637300  0.91303200  1
  C  1869  1  0.45997900  0.06240900  0.90627700  1
  C  1870  1  0.44383600  0.07449200  0.89263900  1
  C  1871  1  0.41868900  0.06796400  0.88920400  1
  C  1872  1  0.41059200  0.04854800  0.89955300  1
  C  1899  1  0.58071000  0.91171000  0.06816400  1
  C  1900  1  0.40430500  0.07809000  0.07142500  1
  C  1901  1  0.40169400  0.08025900  0.87694100  1
  C  1902  1  0.58122800  0.92681700  0.86426900  1
  C  1907  1  0.98960740  0.99715300  0.54146100  1
  C  1908  1  0.00778300  0.01318800  0.54189900  1
  C  1909  1  0.01359900  0.01895000  0.52044100  1
  C  1911  1  0.98410540  0.99238400  0.51971800  1
  C  1912  1  0.96624240  0.97663500  0.51264500  1
  C  1913  1  0.96145840  0.97149600  0.49040000  1
  C  1915  1  0.96249640  0.97156000  0.45376700  1
  C  1916  1  0.94494740  0.95605700  0.46044000  1
  C  1917  1  0.94437540  0.95596400  0.48291600  1
  C  1918  1  0.96825940  0.97703200  0.43178300  1
  C  1919  1  0.98583640  0.99335000  0.42552100  1
  C  1921  1  0.01469800  0.02038500  0.42620700  1
  C  1922  1  0.00847100  0.01615200  0.40448900  1
  C  1923  1  0.99092138  0.99958600  0.40406500  1
  C  1924  1  0.03184700  0.03671000  0.43331300  1
  C  1925  1  0.03728300  0.04132800  0.45556700  1
  C  1927  1  0.03696900  0.04074400  0.49223600  1
  C  1928  1  0.05329900  0.05720500  0.48551800  1
  C  1929  1  0.05362000  0.05746700  0.46303600  1
  C  1930  1  0.03123700  0.03529400  0.51424100  1
  C  1931  1  0.04391800  0.04727900  0.53106900  1
  C  1932  1  0.06965500  0.04390000  0.53527800  1
  C  1933  1  0.08228900  0.05602100  0.55143000  1
  C  1934  1  0.06949600  0.07184300  0.56388400  1
  C  1935  1  0.04375500  0.07518600  0.55979500  1
  C  1936  1  0.03123400  0.06329100  0.54341700  1
  C  1937  1  0.04309500  0.05064800  0.41731500  1
  C  1938  1  0.06597200  0.04520100  0.40715900  1
  C  1939  1  0.07839400  0.06030600  0.39355900  1
  C  1940  1  0.06851400  0.08143500  0.38988900  1
  C  1941  1  0.04537100  0.08657800  0.39988200  1
  C  1942  1  0.03287700  0.07150100  0.41332600  1
  C  1943  1  0.95401440  0.96630200  0.41513600  1
  C  1944  1  0.93165940  0.97580200  0.40737600  1
  C  1945  1  0.91557140  0.96414500  0.39340100  1
  C  1946  1  0.92117540  0.94258300  0.38671900  1
  C  1947  1  0.94388240  0.93330500  0.39422900  1
  C  1948  1  0.95999440  0.94493300  0.40827200  1
  C  1949  1  0.95121740  0.96574100  0.52866300  1
  C  1950  1  0.92631840  0.97251400  0.53229200  1
  C  1951  1  0.95962140  0.94659300  0.53919200  1
  C  1952  1  0.94349540  0.93449300  0.55281700  1
  C  1953  1  0.91833040  0.94095300  0.55617700  1
  C  1954  1  0.91019840  0.96031900  0.54575000  1
  C  1981  1  0.08067700  0.09730800  0.37740000  1
  C  1982  1  0.90399540  0.93103900  0.37397400  1
  C  1983  1  0.90135340  0.92864500  0.56843900  1
  C  1984  1  0.08099300  0.08204900  0.58135100  1
  C  1989  1  0.23977300  0.18615700  0.71631900  1
  C  1990  1  0.25772900  0.18588100  0.73255600  1
  C  1991  1  0.26397500  0.20739800  0.73772700  1
  C  1993  1  0.23475800  0.20784600  0.71094700  1
  C  1994  1  0.21718300  0.21477900  0.69490000  1
  C  1995  1  0.21238400  0.23698800  0.68957000  1
  C  1997  1  0.21309800  0.27363900  0.68951800  1
  C  1998  1  0.19601700  0.26678900  0.67369000  1
  C  1999  1  0.19566900  0.24431300  0.67365000  1
  C  2000  1  0.21854200  0.29568700  0.69499200  1
  C  2001  1  0.23590400  0.30211000  0.71142800  1
  C  2003  1  0.26472100  0.30167300  0.73851500  1
  C  2004  1  0.25818400  0.32332800  0.73433500  1
  C  2005  1  0.24063900  0.32360000  0.71774800  1
  C  2006  1  0.28199500  0.29471000  0.75480400  1
  C  2007  1  0.28767800  0.27250800  0.75944900  1
  C  2009  1  0.28748900  0.23583100  0.75913000  1
  C  2010  1  0.30391100  0.24272400  0.77546400  1
  C  2011  1  0.30415000  0.26520900  0.77556500  1
  C  2012  1  0.28159100  0.21377500  0.75400900  1
  C  2013  1  0.29325300  0.19711100  0.76693800  1
  C  2014  1  0.31878400  0.19177900  0.76427400  1
  C  2015  1  0.33058900  0.17665400  0.77822700  1
  C  2016  1  0.31730700  0.16622000  0.79530900  1
  C  2017  1  0.29163200  0.17145600  0.79764100  1
  C  2018  1  0.27985400  0.18669100  0.78383200  1
  C  2019  1  0.29307000  0.31080700  0.76873100  1
  C  2020  1  0.31597800  0.32098900  0.76338000  1
  C  2021  1  0.32823900  0.33470600  0.77848600  1
  C  2022  1  0.31816300  0.33845900  0.79951900  1
  C  2023  1  0.29496700  0.32845900  0.80454500  1
  C  2024  1  0.28261400  0.31491800  0.78945700  1
  C  2025  1  0.20423900  0.31218000  0.68408700  1
  C  2026  1  0.18131900  0.31929700  0.69302200  1
  C  2027  1  0.16519100  0.33296000  0.68103300  1
  C  2028  1  0.17132300  0.33995300  0.65967800  1
  C  2029  1  0.19455700  0.33308400  0.65095900  1
  C  2030  1  0.21070000  0.31935400  0.66291900  1
  C  2031  1  0.20273000  0.19864100  0.68358500  1
  C  2032  1  0.17741200  0.19516600  0.68924700  1
  C  2033  1  0.21202100  0.18855100  0.66451200  1
  C  2034  1  0.19621500  0.17589500  0.65109400  1
  C  2035  1  0.17069900  0.17304600  0.65638800  1
  C  2036  1  0.16157800  0.18271900  0.67573200  1
  C  2063  1  0.33027700  0.35091300  0.81545300  1
  C  2064  1  0.15409800  0.35216600  0.64763500  1
  C  2065  1  0.15397700  0.16419100  0.64156300  1
  C  2066  1  0.32850600  0.15136000  0.80966600  1
  C  2071  1  0.73980600  0.82266400  0.72920500  1
  C  2072  1  0.75771400  0.82294500  0.71296200  1
  C  2073  1  0.76394800  0.80143300  0.70780000  1
  C  2075  1  0.73479200  0.80097500  0.73458800  1
  C  2076  1  0.71724900  0.79404200  0.75064000  1
  C  2077  1  0.71246500  0.77182000  0.75594500  1
  C  2079  1  0.71316700  0.73516000  0.75596000  1
  C  2080  1  0.69614500  0.74198900  0.77180400  1
  C  2081  1  0.69579600  0.76446500  0.77186000  1
  C  2082  1  0.71859200  0.71311500  0.75048100  1
  C  2083  1  0.73594800  0.70670300  0.73406800  1
  C  2085  1  0.76475200  0.70714800  0.70701300  1
  C  2086  1  0.75821100  0.68549200  0.71119900  1
  C  2087  1  0.74068300  0.68521600  0.72776700  1
  C  2088  1  0.78200700  0.71411200  0.69072900  1
  C  2089  1  0.78766600  0.73632700  0.68610100  1
  C  2091  1  0.78742900  0.77301300  0.68640800  1
  C  2092  1  0.80380000  0.76614300  0.67006600  1
  C  2093  1  0.80408600  0.74365600  0.66998400  1
  C  2094  1  0.78153600  0.79506800  0.69152500  1
  C  2095  1  0.79316000  0.81174300  0.67858400  1
  C  2096  1  0.81870300  0.81710100  0.68122800  1
  C  2097  1  0.83047100  0.83222000  0.66725100  1
  C  2098  1  0.81713600  0.84263700  0.65017200  1
  C  2099  1  0.79145000  0.83738100  0.64786300  1
  C  2100  1  0.77971300  0.82214400  0.66169000  1
  C  2101  1  0.79307100  0.69801400  0.67680500  1
  C  2102  1  0.81598500  0.68783300  0.68216200  1
  C  2103  1  0.82824600  0.67415100  0.66705000  1
  C  2104  1  0.81815700  0.67039100  0.64600000  1
  C  2105  1  0.79495500  0.68038300  0.64096700  1
  C  2106  1  0.78262600  0.69391700  0.65604800  1
  C  2107  1  0.70432400  0.69660500  0.76140400  1
  C  2108  1  0.68137800  0.68947100  0.75246400  1
  C  2109  1  0.66524700  0.67584100  0.76447500  1
  C  2110  1  0.67141000  0.66886500  0.78583900  1
  C  2111  1  0.69467600  0.67574300  0.79455500  1
  C  2112  1  0.71083500  0.68942900  0.78257000  1
  C  2113  1  0.70282100  0.81017700  0.76196700  1
  C  2114  1  0.67747300  0.81361100  0.75634000  1
  C  2115  1  0.71217600  0.82034000  0.78100300  1
  C  2116  1  0.69643900  0.83305600  0.79438900  1
  C  2117  1  0.67087900  0.83581900  0.78916000  1
  C  2118  1  0.66168500  0.82604900  0.76986300  1
  C  2145  1  0.83023400  0.65793000  0.63006200  1
  C  2146  1  0.65417800  0.65668000  0.79789600  1
  C  2147  1  0.65419300  0.84466900  0.80399900  1
  C  2148  1  0.82829300  0.85750200  0.63579500  1
  C  2153  1  0.76391100  0.82325100  0.22969200  1
  C  2154  1  0.74598700  0.82350500  0.21343000  1
  C  2155  1  0.73978000  0.80198000  0.20826900  1
  C  2157  1  0.76899400  0.80156800  0.23505300  1
  C  2158  1  0.78658900  0.79465000  0.25109200  1
  C  2159  1  0.79154700  0.77244800  0.25635800  1
  C  2161  1  0.79102200  0.73578100  0.25635100  1
  C  2162  1  0.80813100  0.74266900  0.27213300  1
  C  2163  1  0.80834400  0.76515100  0.27222700  1
  C  2164  1  0.78560800  0.71372200  0.25089300  1
  C  2165  1  0.76822000  0.70730300  0.23446600  1
  C  2167  1  0.73935600  0.70773100  0.20742000  1
  C  2168  1  0.74587400  0.68607600  0.21161200  1
  C  2169  1  0.76345500  0.68581100  0.22816600  1
  C  2170  1  0.72205800  0.71468800  0.19115300  1
  C  2171  1  0.71624000  0.73686700  0.18656300  1
  C  2173  1  0.71629000  0.77352500  0.18690400  1
  C  2174  1  0.69992700  0.76660400  0.17053700  1
  C  2175  1  0.69977600  0.74412500  0.17042100  1
  C  2176  1  0.72215900  0.79558800  0.19200000  1
  C  2177  1  0.71051600  0.81219900  0.17899500  1
  C  2178  1  0.68495300  0.81749000  0.18152300  1
  C  2179  1  0.67310400  0.83231600  0.16727200  1
  C  2180  1  0.68636800  0.84245600  0.15000300  1
  C  2181  1  0.71207700  0.83727900  0.14782500  1
  C  2182  1  0.72389300  0.82234100  0.16192500  1
  C  2183  1  0.71100000  0.69860000  0.17722900  1
  C  2184  1  0.68790600  0.68866400  0.18242000  1
  C  2185  1  0.67557700  0.67513000  0.16720300  1
  C  2186  1  0.68579400  0.67132300  0.14623400  1
  C  2187  1  0.70914900  0.68109500  0.14134900  1
  C  2188  1  0.72155100  0.69447600  0.15654200  1
  C  2189  1  0.80000800  0.69720400  0.26169200  1
  C  2190  1  0.82240300  0.68956900  0.25219900  1
  C  2191  1  0.83850400  0.67555900  0.26379900  1
  C  2192  1  0.83289800  0.66868500  0.28531100  1
  C  2193  1  0.81018000  0.67609800  0.29460100  1
  C  2194  1  0.79404500  0.69017200  0.28302100  1
  C  2195  1  0.80072600  0.81085100  0.26261400  1
  C  2196  1  0.82607400  0.81462100  0.25724200  1
  C  2197  1  0.79098100  0.82083000  0.28157100  1
  C  2198  1  0.80636800  0.83367600  0.29516400  1
  C  2199  1  0.83191200  0.83679300  0.29016100  1
  C  2200  1  0.84150100  0.82728100  0.27091700  1
  C  2227  1  0.67370800  0.65893800  0.13026200  1
  C  2228  1  0.85010400  0.65587500  0.29678100  1
  C  2229  1  0.84816200  0.84581600  0.30524700  1
  C  2230  1  0.67517500  0.85705600  0.13536900  1
  C  2235  1  0.26404300  0.18556800  0.21595000  1
  C  2236  1  0.24612200  0.18531400  0.23218400  1
  C  2237  1  0.23996800  0.20683600  0.23736100  1
  C  2239  1  0.26916100  0.20725000  0.21060300  1
  C  2240  1  0.28677300  0.21416300  0.19459500  1
  C  2241  1  0.29172000  0.23637800  0.18935500  1
  C  2243  1  0.29119500  0.27305600  0.18938100  1
  C  2244  1  0.30828900  0.26618600  0.17361900  1
  C  2245  1  0.30850600  0.24370400  0.17351700  1
  C  2246  1  0.28579600  0.29511400  0.19483200  1
  C  2247  1  0.26840800  0.30153300  0.21122200  1
  C  2249  1  0.23954900  0.30110400  0.23823000  1
  C  2250  1  0.24608300  0.32276000  0.23403600  1
  C  2251  1  0.26363300  0.32302400  0.21749000  1
  C  2252  1  0.22224200  0.29415500  0.25447200  1
  C  2253  1  0.21650000  0.27195800  0.25909100  1
  C  2255  1  0.21656800  0.23529000  0.25874900  1
  C  2256  1  0.20022100  0.24219500  0.27509400  1
  C  2257  1  0.20005900  0.26467500  0.27521300  1
  C  2258  1  0.22238400  0.21322700  0.25362700  1
  C  2259  1  0.21071500  0.19660900  0.26660700  1
  C  2260  1  0.18513500  0.19133800  0.26404500  1
  C  2261  1  0.17325100  0.17653200  0.27828600  1
  C  2262  1  0.18649200  0.16638500  0.29558200  1
  C  2263  1  0.21221900  0.17153300  0.29779200  1
  C  2264  1  0.22407700  0.18643800  0.28369000  1
  C  2265  1  0.21120200  0.31023900  0.26840200  1
  C  2266  1  0.18813500  0.32021300  0.26318000  1
  C  2267  1  0.17583000  0.33375100  0.27838200  1
  C  2268  1  0.18602500  0.33752800  0.29938800  1
  C  2269  1  0.20935500  0.32771900  0.30430500  1
  C  2270  1  0.22172600  0.31432800  0.28913100  1
  C  2271  1  0.30017900  0.31164100  0.18402300  1
  C  2272  1  0.32260900  0.31929400  0.19349700  1
  C  2273  1  0.33869400  0.33333333  0.18187300  1
  C  2274  1  0.33303900  0.34013100  0.16034900  1
  C  2275  1  0.31026500  0.33272400  0.15109000  1
  C  2276  1  0.29415000  0.31865800  0.16269000  1
  C  2277  1  0.30091800  0.19796900  0.18309200  1
  C  2278  1  0.32630300  0.19428300  0.18844000  1
  C  2279  1  0.29118700  0.18794900  0.16412000  1
  C  2280  1  0.30657500  0.17512600  0.15054000  1
  C  2281  1  0.33214000  0.17207800  0.15554200  1
  C  2282  1  0.34173900  0.18166400  0.17477200  1
  C  2309  1  0.17396500  0.34991400  0.31536500  1
  C  2310  1  0.35023300  0.35292500  0.14885300  1
  C  2311  1  0.34843400  0.16312100  0.14047000  1
  C  2312  1  0.17526400  0.15181200  0.31021900  1
  C  2317  1  0.99157038  0.51110000  0.40399300  1
  C  2318  1  0.00948100  0.49484900  0.40389800  1
  C  2319  1  0.01510000  0.48936600  0.42547300  1
  C  2321  1  0.98589940  0.51614300  0.42563300  1
  C  2322  1  0.96794940  0.53192800  0.43237900  1
  C  2323  1  0.96251340  0.53696000  0.45454700  1
  C  2325  1  0.96280240  0.53705500  0.49124500  1
  C  2326  1  0.94486140  0.55202600  0.48420000  1
  C  2327  1  0.94485940  0.55212900  0.46171400  1
  C  2328  1  0.96857340  0.53204100  0.51335600  1
  C  2329  1  0.98647340  0.51603300  0.51982700  1
  C  2331  1  0.01547200  0.48909100  0.51962000  1
  C  2332  1  0.01028800  0.49449900  0.54126600  1
  C  2333  1  0.99269338  0.51099900  0.54138800  1
  C  2334  1  0.03251200  0.47254800  0.51289000  1
  C  2335  1  0.03794500  0.46746700  0.49076600  1
  C  2337  1  0.03793900  0.46763800  0.45410200  1
  C  2338  1  0.05375900  0.45093300  0.46115700  1
  C  2339  1  0.05384500  0.45088700  0.48365000  1
  C  2340  1  0.03240600  0.47289900  0.43200300  1
  C  2341  1  0.04411800  0.45989800  0.41545500  1
  C  2342  1  0.06978800  0.46224900  0.41047200  1
  C  2343  1  0.08163800  0.44807500  0.39561500  1
  C  2344  1  0.06827900  0.43105000  0.38513700  1
  C  2345  1  0.04247900  0.42903200  0.39002800  1
  C  2346  1  0.03064100  0.44307900  0.40497300  1
  C  2347  1  0.04418200  0.45935200  0.52929400  1
  C  2348  1  0.06839800  0.46418300  0.53717100  1
  C  2349  1  0.08041300  0.45021100  0.55216600  1
  C  2350  1  0.06871600  0.43087300  0.55971700  1
  C  2351  1  0.04437800  0.42626100  0.55178200  1
  C  2352  1  0.03234400  0.44018000  0.53680000  1
  C  2353  1  0.95449440  0.54304800  0.52999000  1
  C  2354  1  0.93529540  0.53196200  0.54127900  1
  C  2355  1  0.92058440  0.54278300  0.55693600  1
  C  2356  1  0.92417840  0.56518200  0.56166300  1
  C  2357  1  0.94333840  0.57629100  0.55023400  1
  C  2358  1  0.95831240  0.56538500  0.53474300  1
  C  2359  1  0.95404040  0.54350100  0.41603800  1
  C  2360  1  0.92894840  0.53774900  0.41151100  1
  C  2361  1  0.96358940  0.56292600  0.40679600  1
  C  2362  1  0.94822840  0.57660300  0.39401300  1
  C  2363  1  0.92293140  0.57118300  0.39008600  1
  C  2364  1  0.91355740  0.55149400  0.39888000  1
  C  2391  1  0.08012900  0.41658600  0.57450100  1
  C  2392  1  0.90916040  0.57524500  0.57733100  1
  C  2393  1  0.90654340  0.58630300  0.38129200  1
  C  2394  1  0.07946800  0.41649300  0.37049100  1
  C  2399  1  0.49144000  0.49769300  0.04148800  1
  C  2400  1  0.50933800  0.51397600  0.04161600  1
  C  2401  1  0.51498600  0.51943500  0.02004800  1
  C  2403  1  0.48579900  0.49262400  0.01983800  1
  C  2404  1  0.46785600  0.47681500  0.01306000  1
  C  2405  1  0.46244200  0.47181300  0.99087100  1
  C  2407  1  0.46276500  0.47180500  0.95417800  1
  C  2408  1  0.44484500  0.45677200  0.96114400  1
  C  2409  1  0.44481200  0.45662800  0.98362900  1
  C  2410  1  0.46855500  0.47687600  0.93209400  1
  C  2411  1  0.48647600  0.49287600  0.92565100  1
  C  2413  1  0.51551500  0.51980700  0.92590900  1
  C  2414  1  0.51030100  0.51442000  0.90425300  1
  C  2415  1  0.49268000  0.49792400  0.90409900  1
  C  2416  1  0.53258100  0.53634600  0.93266900  1
  C  2417  1  0.53798700  0.54140200  0.95481300  1
  C  2419  1  0.53788500  0.54119600  0.99147100  1
  C  2420  1  0.55372800  0.55792100  0.98449200  1
  C  2421  1  0.55389500  0.55797500  0.96199900  1
  C  2422  1  0.53229700  0.53590600  0.01354300  1
  C  2423  1  0.54396600  0.54891500  0.03011800  1
  C  2424  1  0.56959200  0.54649700  0.03525200  1
  C  2425  1  0.58142200  0.56067800  0.05014200  1
  C  2426  1  0.56807100  0.57775000  0.06049800  1
  C  2427  1  0.54230400  0.57982600  0.05545800  1
  C  2428  1  0.53049100  0.56578100  0.04047200  1
  C  2429  1  0.54426100  0.54956500  0.91629800  1
  C  2430  1  0.56844600  0.54472000  0.90841300  1
  C  2431  1  0.58046700  0.55870200  0.89344000  1
  C  2432  1  0.56880900  0.57806100  0.88590300  1
  C  2433  1  0.54450600  0.58269300  0.89385200  1
  C  2434  1  0.53247400  0.56876900  0.90882100  1
  C  2435  1  0.45449200  0.46588200  0.91542800  1
  C  2436  1  0.43522500  0.47694800  0.90418900  1
  C  2437  1  0.42051800  0.46613200  0.88849400  1
  C  2438  1  0.42420400  0.44376800  0.88369300  1
  C  2439  1  0.44344200  0.43268500  0.89506500  1
  C  2440  1  0.45841400  0.44358800  0.91058900  1
  C  2441  1  0.45392100  0.46523300  0.02936600  1
  C  2442  1  0.42879600  0.47090900  0.03376200  1
  C  2443  1  0.46351700  0.44590400  0.03877300  1
  C  2444  1  0.44819500  0.43226400  0.05162100  1
  C  2445  1  0.42284400  0.43757300  0.05536100  1
  C  2446  1  0.41341500  0.45715800  0.04638300  1
  C  2473  1  0.58021800  0.59235000  0.87112300  1
  C  2474  1  0.40918700  0.43369300  0.86801600  1
  C  2475  1  0.40647800  0.42244400  0.06418500  1
  C  2476  1  0.57924800  0.59229700  0.07517400  1
  C  2481  1  0.39716800  0.10692700  0.09710900  1
  C  2482  1  0.40906000  0.12063800  0.11261100  1
  C  2483  1  0.39399900  0.13317100  0.12725100  1
  C  2484  1  0.36752600  0.13205400  0.12531100  1
  C  2487  1  0.40595700  0.14589400  0.14349000  1
  C  2488  1  0.43214400  0.14677000  0.14495400  1
  C  2489  1  0.44688400  0.13485700  0.13030200  1
  C  2490  1  0.43546200  0.12182500  0.11432300  1
  C  2497  1  0.89691700  0.90215900  0.34834700  1
  C  2498  1  0.90882440  0.88841500  0.33292100  1
  C  2499  1  0.89376500  0.87583800  0.31828300  1
  C  2500  1  0.86729700  0.87696300  0.32015600  1
  C  2503  1  0.90571740  0.86305200  0.30212400  1
  C  2504  1  0.93190440  0.86217600  0.30073100  1
  C  2505  1  0.94664540  0.87414500  0.31537900  1
  C  2506  1  0.93522640  0.88723000  0.33128400  1
  C  2513  1  0.14751000  0.37812000  0.61886200  1
  C  2514  1  0.15955500  0.39395900  0.60566500  1
  C  2515  1  0.14473000  0.40743000  0.59166800  1
  C  2516  1  0.11841400  0.40444100  0.59122000  1
  C  2519  1  0.15674900  0.42338300  0.57863300  1
  C  2520  1  0.18282000  0.42605500  0.57934500  1
  C  2521  1  0.19735000  0.41282000  0.59303900  1
  C  2522  1  0.18584300  0.39690300  0.60608800  1
  C  2529  1  0.64757300  0.63074400  0.82669100  1
  C  2530  1  0.65960700  0.61489800  0.83989700  1
  C  2531  1  0.64478600  0.60144200  0.85389900  1
  C  2532  1  0.61847700  0.60445300  0.85435000  1
  C  2535  1  0.65680100  0.58548400  0.86694000  1
  C  2536  1  0.68286300  0.58278900  0.86622800  1
  C  2537  1  0.69739000  0.59600700  0.85252900  1
  C  2538  1  0.68588600  0.61193000  0.83947600  1
  C  2545  1  0.10893000  0.10734700  0.34977600  1
  C  2546  1  0.09669600  0.11915600  0.33291000  1
  C  2547  1  0.11108600  0.13370700  0.31967800  1
  C  2548  1  0.13721100  0.13549200  0.32339800  1
  C  2551  1  0.09891700  0.14571600  0.30300800  1
  C  2552  1  0.07315800  0.14330300  0.29924500  1
  C  2553  1  0.05915200  0.12872200  0.31192700  1
  C  2554  1  0.07081200  0.11670700  0.32856500  1
  C  2561  1  0.60893700  0.90163900  0.09582300  1
  C  2562  1  0.59668400  0.88982800  0.11265600  1
  C  2563  1  0.61104600  0.87524300  0.12588500  1
  C  2564  1  0.63715800  0.87343200  0.12218500  1
  C  2567  1  0.59886100  0.86322800  0.14252600  1
  C  2568  1  0.57311400  0.86566700  0.14626100  1
  C  2569  1  0.55913500  0.88028100  0.13358200  1
  C  2570  1  0.57081100  0.89230100  0.11697200  1
  C  2577  1  0.35911900  0.37792800  0.82586200  1
  C  2578  1  0.34710200  0.39473700  0.83786600  1
  C  2579  1  0.36145000  0.40711700  0.85319400  1
  C  2580  1  0.38748000  0.40285900  0.85518100  1
  C  2583  1  0.34925100  0.42312800  0.86598800  1
  C  2584  1  0.32365000  0.42742300  0.86325800  1
  C  2585  1  0.30980100  0.41585700  0.84765800  1
  C  2586  1  0.32140500  0.39964900  0.83507900  1
  C  2593  1  0.85916000  0.63101300  0.61956900  1
  C  2594  1  0.84714500  0.61416200  0.60757500  1
  C  2595  1  0.86147000  0.60178500  0.59226100  1
  C  2596  1  0.88749900  0.60606800  0.59027100  1
  C  2599  1  0.84924800  0.58575100  0.57947400  1
  C  2600  1  0.82365900  0.58141500  0.58220400  1
  C  2601  1  0.80984000  0.59296300  0.59779800  1
  C  2602  1  0.82146000  0.60920200  0.61036500  1
  C  2609  1  0.60758000  0.89881700  0.85122500  1
  C  2610  1  0.59547300  0.88707300  0.83422500  1
  C  2611  1  0.61044700  0.87568400  0.81859700  1
  C  2612  1  0.63687200  0.87545100  0.82127600  1
  C  2615  1  0.59847700  0.86511400  0.80088300  1
  C  2616  1  0.57230900  0.86487600  0.79906000  1
  C  2617  1  0.55761500  0.87512900  0.81494000  1
  C  2618  1  0.56907800  0.88614500  0.83235000  1
  C  2625  1  0.10727400  0.11010600  0.59436600  1
  C  2626  1  0.09519700  0.12180100  0.61137700  1
  C  2627  1  0.11020700  0.13316200  0.62703600  1
  C  2628  1  0.13662400  0.13339500  0.62436500  1
  C  2631  1  0.09828200  0.14370400  0.64475600  1
  C  2632  1  0.07211700  0.14392900  0.64656400  1
  C  2633  1  0.05738400  0.13368800  0.63066100  1
  C  2634  1  0.06880600  0.12270500  0.61324200  1
  C  2641  1  0.85735800  0.63001600  0.32548600  1
  C  2642  1  0.84553100  0.61453600  0.33925800  1
  C  2643  1  0.86064800  0.59981100  0.35168900  1
  C  2644  1  0.88711700  0.60162600  0.35040100  1
  C  2647  1  0.84874300  0.58361200  0.36448900  1
  C  2648  1  0.82256000  0.58225200  0.36552100  1
  C  2649  1  0.80777200  0.59697700  0.35370000  1
  C  2650  1  0.81913700  0.61292800  0.34060500  1
  C  2657  1  0.35745700  0.37874200  0.12009900  1
  C  2658  1  0.34561400  0.39423000  0.10633500  1
  C  2659  1  0.36071200  0.40893400  0.09387200  1
  C  2660  1  0.38718400  0.40709100  0.09511100  1
  C  2663  1  0.34878800  0.42514700  0.08109500  1
  C  2664  1  0.32260300  0.42653500  0.08010600  1
  C  2665  1  0.30783100  0.41182600  0.09195200  1
  C  2666  1  0.31921600  0.39586600  0.10503100  1
  C  2673  1  0.89521000  0.90090100  0.59560900  1
  C  2674  1  0.90747440  0.88781900  0.61143200  1
  C  2675  1  0.89284700  0.87388300  0.62511700  1
  C  2676  1  0.86648600  0.87346400  0.62243300  1
  C  2679  1  0.90509440  0.86090900  0.64099800  1
  C  2680  1  0.93119940  0.86162400  0.64340300  1
  C  2681  1  0.94553440  0.87527300  0.62997500  1
  C  2682  1  0.93379840  0.88825600  0.61411900  1
  C  2689  1  0.39551800  0.10802400  0.84980800  1
  C  2690  1  0.40774800  0.12113500  0.83400500  1
  C  2691  1  0.39309000  0.13506600  0.82032900  1
  C  2692  1  0.36673500  0.13544900  0.82300600  1
  C  2695  1  0.40529800  0.14807000  0.80446400  1
  C  2696  1  0.43139900  0.14738700  0.80206900  1
  C  2697  1  0.44576500  0.13374300  0.81549000  1
  C  2698  1  0.43406700  0.12073100  0.83132900  1
  C  2705  1  0.64547200  0.63138000  0.12009200  1
  C  2706  1  0.65770700  0.61455500  0.10828900  1
  C  2707  1  0.64334600  0.60144000  0.09360600  1
  C  2708  1  0.61726000  0.60525700  0.09170500  1
  C  2711  1  0.65550100  0.58480300  0.08159100  1
  C  2712  1  0.68122500  0.58096600  0.08412500  1
  C  2713  1  0.69520700  0.59353900  0.09883300  1
  C  2714  1  0.68355400  0.61014000  0.11085500  1
  C  2721  1  0.14563900  0.37738200  0.32560300  1
  C  2722  1  0.15787800  0.39425500  0.33738500  1
  C  2723  1  0.14353800  0.40737300  0.35204700  1
  C  2724  1  0.11745500  0.40353200  0.35395900  1
  C  2727  1  0.15571000  0.42405100  0.36403400  1
  C  2728  1  0.18142200  0.42793200  0.36149400  1
  C  2729  1  0.19537600  0.41536400  0.34680400  1
  C  2730  1  0.18371000  0.39872000  0.33480900  1
  N  4  1  0.98544300  0.00316200  0.93763000  1
  N  8  1  0.95832500  0.02880500  0.97315600  1
  N  14  1  0.98711800  0.00299100  0.00744400  1
  N  20  1  0.01422300  0.97732900  0.97184200  1
  N  86  1  0.48510500  0.00582900  0.50786300  1
  N  90  1  0.45797800  0.98027100  0.47231700  1
  N  96  1  0.48688900  0.00610800  0.43806100  1
  N  102  1  0.51392300  0.03175100  0.47368600  1
  N  168  1  0.73589800  0.21983800  0.72414900  1
  N  172  1  0.70847000  0.25518300  0.69851800  1
  N  178  1  0.73710000  0.28970300  0.72418900  1
  N  184  1  0.76435500  0.25429100  0.75001900  1
  N  250  1  0.23589600  0.78899000  0.72138000  1
  N  254  1  0.20852300  0.75363500  0.74698200  1
  N  260  1  0.23713100  0.71911200  0.72131200  1
  N  266  1  0.26434300  0.75453500  0.69552100  1
  N  332  1  0.24001800  0.78955600  0.22183000  1
  N  336  1  0.26764300  0.75422400  0.24740900  1
  N  342  1  0.23912600  0.71970600  0.22171500  1
  N  348  1  0.21160000  0.75509400  0.19601700  1
  N  414  1  0.74020900  0.21925800  0.22381500  1
  N  418  1  0.76782700  0.25459400  0.19830000  1
  N  424  1  0.73931400  0.28913000  0.22396400  1
  N  430  1  0.71185500  0.25373700  0.24964700  1
  N  496  1  0.48668100  0.50276600  0.43777400  1
  N  500  1  0.45886400  0.52847800  0.47286600  1
  N  506  1  0.48693400  0.50258900  0.50750000  1
  N  512  1  0.51504100  0.47705700  0.47246700  1
  N  578  1  0.98658700  0.50601100  0.00772100  1
  N  582  1  0.95880100  0.48035800  0.97259900  1
  N  588  1  0.98696300  0.50630500  0.93800400  1
  N  594  1  0.01502500  0.53179100  0.97306700  1
  N  661  1  0.84399600  0.11835900  0.11006900  1
  N  662  1  0.85779100  0.10666400  0.09691600  1
  N  671  1  0.89653300  0.09430000  0.08363600  1
  N  672  1  0.83728400  0.14240300  0.13816400  1
  N  677  1  0.34374800  0.89068000  0.33533600  1
  N  678  1  0.35754300  0.90241400  0.34848800  1
  N  687  1  0.39626300  0.91482100  0.36181600  1
  N  688  1  0.33707400  0.86655000  0.30732400  1
  N  693  1  0.59471700  0.38876900  0.60441200  1
  N  694  1  0.60826300  0.37651500  0.61729000  1
  N  703  1  0.64667500  0.36509100  0.63210600  1
  N  704  1  0.58988100  0.41655900  0.57828100  1
  N  709  1  0.09478700  0.62013100  0.84115100  1
  N  710  1  0.10833000  0.63236800  0.82826500  1
  N  719  1  0.14674300  0.64375500  0.81344000  1
  N  720  1  0.08995100  0.59234700  0.86730100  1
  N  725  1  0.63324100  0.12314600  0.33965900  1
  N  726  1  0.62005800  0.11002200  0.35195200  1
  N  735  1  0.58376000  0.09316300  0.36312300  1
  N  736  1  0.63757200  0.14841600  0.31100900  1
  N  741  1  0.13320800  0.88578400  0.10595000  1
  N  742  1  0.12005100  0.89893800  0.09366200  1
  N  751  1  0.08379300  0.91584400  0.08248200  1
  N  752  1  0.13749300  0.86047900  0.13456900  1
  N  757  1  0.88327600  0.38658100  0.84285000  1
  N  758  1  0.87004500  0.37495700  0.82915000  1
  N  767  1  0.83382200  0.36484700  0.81149500  1
  N  768  1  0.88907200  0.41337600  0.86864400  1
  N  773  1  0.38329300  0.62238200  0.60259300  1
  N  774  1  0.37008100  0.63400400  0.61627900  1
  N  783  1  0.33388900  0.64408400  0.63395500  1
  N  784  1  0.38907900  0.59557300  0.57679700  1
  N  789  1  0.13261400  0.88689400  0.83823000  1
  N  790  1  0.11896100  0.89776200  0.85218600  1
  N  799  1  0.08230900  0.91057800  0.86669400  1
  N  800  1  0.13920600  0.86521000  0.80827200  1
  N  805  1  0.63233800  0.12199900  0.60739400  1
  N  806  1  0.61865200  0.11115900  0.59341000  1
  N  815  1  0.58196400  0.09836400  0.57889500  1
  N  816  1  0.63897600  0.14363900  0.63736500  1
  N  821  1  0.38269700  0.61685000  0.33665800  1
  N  822  1  0.36884800  0.63009100  0.32506600  1
  N  831  1  0.33004900  0.64356600  0.31293700  1
  N  832  1  0.38951100  0.58864900  0.36060100  1
  N  837  1  0.88278100  0.39186100  0.10885300  1
  N  838  1  0.86895000  0.37864100  0.12047700  1
  N  847  1  0.83016200  0.36521000  0.13267500  1
  N  848  1  0.88957100  0.42005000  0.08488000  1
  N  853  1  0.34255900  0.88655100  0.60677900  1
  N  854  1  0.35593700  0.89933000  0.59429500  1
  N  863  1  0.39418600  0.91413300  0.58242000  1
  N  864  1  0.33814200  0.86059400  0.63477500  1
  N  869  1  0.84284400  0.12233600  0.83864400  1
  N  870  1  0.85624800  0.10956300  0.85111800  1
  N  879  1  0.89451600  0.09479800  0.86299200  1
  N  880  1  0.83836100  0.14831200  0.81068100  1
  N  885  1  0.09333900  0.62147600  0.10405600  1
  N  886  1  0.10649600  0.63366100  0.11729900  1
  N  895  1  0.14272800  0.64463800  0.13434600  1
  N  896  1  0.08903700  0.59299000  0.07867000  1
  N  901  1  0.59352600  0.38727400  0.34162400  1
  N  902  1  0.60666700  0.37508600  0.32840200  1
  N  911  1  0.64287100  0.36412600  0.31133700  1
  N  912  1  0.58925100  0.41581200  0.36698100  1
  N  916  1  0.74241400  0.00316200  0.93763000  1
  N  920  1  0.71529600  0.02880500  0.97315600  1
  N  926  1  0.74408900  0.00299100  0.00744400  1
  N  932  1  0.77119400  0.97732900  0.97184200  1
  N  998  1  0.24207600  0.00582900  0.50786300  1
  N  1002  1  0.21494900  0.98027100  0.47231700  1
  N  1008  1  0.24386000  0.00610800  0.43806100  1
  N  1014  1  0.27089400  0.03175100  0.47368600  1
  N  1080  1  0.49286900  0.21983800  0.72414900  1
  N  1084  1  0.46544100  0.25518300  0.69851800  1
  N  1090  1  0.49407100  0.28970300  0.72418900  1
  N  1096  1  0.52132600  0.25429100  0.75001900  1
  N  1162  1  0.99286719  0.78899000  0.72138000  1
  N  1166  1  0.96549420  0.75363500  0.74698200  1
  N  1172  1  0.99410219  0.71911200  0.72131200  1
  N  1178  1  0.02131400  0.75453500  0.69552100  1
  N  1244  1  0.99698919  0.78955600  0.22183000  1
  N  1248  1  0.02461400  0.75422400  0.24740900  1
  N  1254  1  0.99609719  0.71970600  0.22171500  1
  N  1260  1  0.96857120  0.75509400  0.19601700  1
  N  1326  1  0.49718000  0.21925800  0.22381500  1
  N  1330  1  0.52479800  0.25459400  0.19830000  1
  N  1336  1  0.49628500  0.28913000  0.22396400  1
  N  1342  1  0.46882600  0.25373700  0.24964700  1
  N  1408  1  0.24365200  0.50276600  0.43777400  1
  N  1412  1  0.21583500  0.52847800  0.47286600  1
  N  1418  1  0.24390500  0.50258900  0.50750000  1
  N  1424  1  0.27201200  0.47705700  0.47246700  1
  N  1490  1  0.74355800  0.50601100  0.00772100  1
  N  1494  1  0.71577200  0.48035800  0.97259900  1
  N  1500  1  0.74393400  0.50630500  0.93800400  1
  N  1506  1  0.77199600  0.53179100  0.97306700  1
  N  1573  1  0.60096700  0.11835900  0.11006900  1
  N  1574  1  0.61476200  0.10666400  0.09691600  1
  N  1583  1  0.65350400  0.09430000  0.08363600  1
  N  1584  1  0.59425500  0.14240300  0.13816400  1
  N  1589  1  0.10071900  0.89068000  0.33533600  1
  N  1590  1  0.11451400  0.90241400  0.34848800  1
  N  1599  1  0.15323400  0.91482100  0.36181600  1
  N  1600  1  0.09404500  0.86655000  0.30732400  1
  N  1605  1  0.35168800  0.38876900  0.60441200  1
  N  1606  1  0.36523400  0.37651500  0.61729000  1
  N  1615  1  0.40364600  0.36509100  0.63210600  1
  N  1616  1  0.34685200  0.41655900  0.57828100  1
  N  1621  1  0.85175800  0.62013100  0.84115100  1
  N  1622  1  0.86530100  0.63236800  0.82826500  1
  N  1631  1  0.90371420  0.64375500  0.81344000  1
  N  1632  1  0.84692200  0.59234700  0.86730100  1
  N  1637  1  0.39021200  0.12314600  0.33965900  1
  N  1638  1  0.37702900  0.11002200  0.35195200  1
  N  1647  1  0.34073100  0.09316300  0.36312300  1
  N  1648  1  0.39454300  0.14841600  0.31100900  1
  N  1653  1  0.89017900  0.88578400  0.10595000  1
  N  1654  1  0.87702200  0.89893800  0.09366200  1
  N  1663  1  0.84076400  0.91584400  0.08248200  1
  N  1664  1  0.89446400  0.86047900  0.13456900  1
  N  1669  1  0.64024700  0.38658100  0.84285000  1
  N  1670  1  0.62701600  0.37495700  0.82915000  1
  N  1679  1  0.59079300  0.36484700  0.81149500  1
  N  1680  1  0.64604300  0.41337600  0.86864400  1
  N  1685  1  0.14026400  0.62238200  0.60259300  1
  N  1686  1  0.12705200  0.63400400  0.61627900  1
  N  1695  1  0.09086000  0.64408400  0.63395500  1
  N  1696  1  0.14605000  0.59557300  0.57679700  1
  N  1701  1  0.88958500  0.88689400  0.83823000  1
  N  1702  1  0.87593200  0.89776200  0.85218600  1
  N  1711  1  0.83928000  0.91057800  0.86669400  1
  N  1712  1  0.89617700  0.86521000  0.80827200  1
  N  1717  1  0.38930900  0.12199900  0.60739400  1
  N  1718  1  0.37562300  0.11115900  0.59341000  1
  N  1727  1  0.33893500  0.09836400  0.57889500  1
  N  1728  1  0.39594700  0.14363900  0.63736500  1
  N  1733  1  0.13966800  0.61685000  0.33665800  1
  N  1734  1  0.12581900  0.63009100  0.32506600  1
  N  1743  1  0.08702000  0.64356600  0.31293700  1
  N  1744  1  0.14648200  0.58864900  0.36060100  1
  N  1749  1  0.63975200  0.39186100  0.10885300  1
  N  1750  1  0.62592100  0.37864100  0.12047700  1
  N  1759  1  0.58713300  0.36521000  0.13267500  1
  N  1760  1  0.64654200  0.42005000  0.08488000  1
  N  1765  1  0.09953000  0.88655100  0.60677900  1
  N  1766  1  0.11290800  0.89933000  0.59429500  1
  N  1775  1  0.15115700  0.91413300  0.58242000  1
  N  1776  1  0.09511300  0.86059400  0.63477500  1
  N  1781  1  0.59981500  0.12233600  0.83864400  1
  N  1782  1  0.61321900  0.10956300  0.85111800  1
  N  1791  1  0.65148700  0.09479800  0.86299200  1
  N  1792  1  0.59533200  0.14831200  0.81068100  1
  N  1797  1  0.85031000  0.62147600  0.10405600  1
  N  1798  1  0.86346700  0.63366100  0.11729900  1
  N  1807  1  0.89969900  0.64463800  0.13434600  1
  N  1808  1  0.84600800  0.59299000  0.07867000  1
  N  1813  1  0.35049700  0.38727400  0.34162400  1
  N  1814  1  0.36363800  0.37508600  0.32840200  1
  N  1823  1  0.39984200  0.36412600  0.31133700  1
  N  1824  1  0.34622200  0.41581200  0.36698100  1
  N  1828  1  0.49938500  0.00316200  0.93763000  1
  N  1832  1  0.47226700  0.02880500  0.97315600  1
  N  1838  1  0.50106000  0.00299100  0.00744400  1
  N  1844  1  0.52816500  0.97732900  0.97184200  1
  N  1910  1  0.99904738  0.00582900  0.50786300  1
  N  1914  1  0.97192040  0.98027100  0.47231700  1
  N  1920  1  0.00083100  0.00610800  0.43806100  1
  N  1926  1  0.02786500  0.03175100  0.47368600  1
  N  1992  1  0.24984000  0.21983800  0.72414900  1
  N  1996  1  0.22241200  0.25518300  0.69851800  1
  N  2002  1  0.25104200  0.28970300  0.72418900  1
  N  2008  1  0.27829700  0.25429100  0.75001900  1
  N  2074  1  0.74983800  0.78899000  0.72138000  1
  N  2078  1  0.72246500  0.75363500  0.74698200  1
  N  2084  1  0.75107300  0.71911200  0.72131200  1
  N  2090  1  0.77828500  0.75453500  0.69552100  1
  N  2156  1  0.75396000  0.78955600  0.22183000  1
  N  2160  1  0.78158500  0.75422400  0.24740900  1
  N  2166  1  0.75306800  0.71970600  0.22171500  1
  N  2172  1  0.72554200  0.75509400  0.19601700  1
  N  2238  1  0.25415100  0.21925800  0.22381500  1
  N  2242  1  0.28176900  0.25459400  0.19830000  1
  N  2248  1  0.25325600  0.28913000  0.22396400  1
  N  2254  1  0.22579700  0.25373700  0.24964700  1
  N  2320  1  0.00062300  0.50276600  0.43777400  1
  N  2324  1  0.97280640  0.52847800  0.47286600  1
  N  2330  1  0.00087600  0.50258900  0.50750000  1
  N  2336  1  0.02898300  0.47705700  0.47246700  1
  N  2402  1  0.50052900  0.50601100  0.00772100  1
  N  2406  1  0.47274300  0.48035800  0.97259900  1
  N  2412  1  0.50090500  0.50630500  0.93800400  1
  N  2418  1  0.52896700  0.53179100  0.97306700  1
  N  2485  1  0.35793800  0.11835900  0.11006900  1
  N  2486  1  0.37173300  0.10666400  0.09691600  1
  N  2495  1  0.41047500  0.09430000  0.08363600  1
  N  2496  1  0.35122600  0.14240300  0.13816400  1
  N  2501  1  0.85769000  0.89068000  0.33533600  1
  N  2502  1  0.87148500  0.90241400  0.34848800  1
  N  2511  1  0.91020540  0.91482100  0.36181600  1
  N  2512  1  0.85101600  0.86655000  0.30732400  1
  N  2517  1  0.10865900  0.38876900  0.60441200  1
  N  2518  1  0.12220500  0.37651500  0.61729000  1
  N  2527  1  0.16061700  0.36509100  0.63210600  1
  N  2528  1  0.10382300  0.41655900  0.57828100  1
  N  2533  1  0.60872900  0.62013100  0.84115100  1
  N  2534  1  0.62227200  0.63236800  0.82826500  1
  N  2543  1  0.66068500  0.64375500  0.81344000  1
  N  2544  1  0.60389300  0.59234700  0.86730100  1
  N  2549  1  0.14718300  0.12314600  0.33965900  1
  N  2550  1  0.13400000  0.11002200  0.35195200  1
  N  2559  1  0.09770200  0.09316300  0.36312300  1
  N  2560  1  0.15151400  0.14841600  0.31100900  1
  N  2565  1  0.64715000  0.88578400  0.10595000  1
  N  2566  1  0.63399300  0.89893800  0.09366200  1
  N  2575  1  0.59773500  0.91584400  0.08248200  1
  N  2576  1  0.65143500  0.86047900  0.13456900  1
  N  2581  1  0.39721800  0.38658100  0.84285000  1
  N  2582  1  0.38398700  0.37495700  0.82915000  1
  N  2591  1  0.34776400  0.36484700  0.81149500  1
  N  2592  1  0.40301400  0.41337600  0.86864400  1
  N  2597  1  0.89723500  0.62238200  0.60259300  1
  N  2598  1  0.88402300  0.63400400  0.61627900  1
  N  2607  1  0.84783100  0.64408400  0.63395500  1
  N  2608  1  0.90302140  0.59557300  0.57679700  1
  N  2613  1  0.64655600  0.88689400  0.83823000  1
  N  2614  1  0.63290300  0.89776200  0.85218600  1
  N  2623  1  0.59625100  0.91057800  0.86669400  1
  N  2624  1  0.65314800  0.86521000  0.80827200  1
  N  2629  1  0.14628000  0.12199900  0.60739400  1
  N  2630  1  0.13259400  0.11115900  0.59341000  1
  N  2639  1  0.09590600  0.09836400  0.57889500  1
  N  2640  1  0.15291800  0.14363900  0.63736500  1
  N  2645  1  0.89663900  0.61685000  0.33665800  1
  N  2646  1  0.88279000  0.63009100  0.32506600  1
  N  2655  1  0.84399100  0.64356600  0.31293700  1
  N  2656  1  0.90345340  0.58864900  0.36060100  1
  N  2661  1  0.39672300  0.39186100  0.10885300  1
  N  2662  1  0.38289200  0.37864100  0.12047700  1
  N  2671  1  0.34410400  0.36521000  0.13267500  1
  N  2672  1  0.40351300  0.42005000  0.08488000  1
  N  2677  1  0.85650100  0.88655100  0.60677900  1
  N  2678  1  0.86987900  0.89933000  0.59429500  1
  N  2687  1  0.90812840  0.91413300  0.58242000  1
  N  2688  1  0.85208400  0.86059400  0.63477500  1
  N  2693  1  0.35678600  0.12233600  0.83864400  1
  N  2694  1  0.37019000  0.10956300  0.85111800  1
  N  2703  1  0.40845800  0.09479800  0.86299200  1
  N  2704  1  0.35230300  0.14831200  0.81068100  1
  N  2709  1  0.60728100  0.62147600  0.10405600  1
  N  2710  1  0.62043800  0.63366100  0.11729900  1
  N  2719  1  0.65667000  0.64463800  0.13434600  1
  N  2720  1  0.60297900  0.59299000  0.07867000  1
  N  2725  1  0.10746800  0.38727400  0.34162400  1
  N  2726  1  0.12060900  0.37508600  0.32840200  1
  N  2735  1  0.15681300  0.36412600  0.31133700  1
  N  2736  1  0.10319300  0.41581200  0.36698100  1
