# generated using pymatgen
data_H36C47N4
_symmetry_space_group_name_H-M   'P 1'
_cell_length_a   63.16060000
_cell_length_b   72.13660000
_cell_length_c   72.13660000
_cell_angle_alpha   90.00000000
_cell_angle_beta   90.00000000
_cell_angle_gamma   90.00000000
_symmetry_Int_Tables_number   1
_chemical_formula_structural   H36C47N4
_chemical_formula_sum   'H1152 C1504 N128'
_cell_volume   328668.12321525
_cell_formula_units_Z   32
loop_
 _symmetry_equiv_pos_site_id
 _symmetry_equiv_pos_as_xyz
  1  'x, y, z'
loop_
 _atom_site_type_symbol
 _atom_site_label
 _atom_site_symmetry_multiplicity
 _atom_site_fract_x
 _atom_site_fract_y
 _atom_site_fract_z
 _atom_site_occupancy
  H  25  1  0.16637000  0.15850100  0.18414500  1
  H  26  1  0.17546400  0.12701200  0.18886300  1
  H  27  1  0.16931000  0.06868400  0.22130100  1
  H  28  1  0.15803800  0.04983400  0.24641000  1
  H  29  1  0.14012500  0.09749600  0.27608700  1
  H  30  1  0.13903400  0.16083400  0.23728200  1
  H  31  1  0.19073100  0.12848400  0.25150400  1
  H  32  1  0.19441200  0.16028900  0.30019000  1
  H  33  1  0.15677600  0.15850100  0.30345600  1
  H  34  1  0.11481900  0.11216100  0.22640800  1
  H  35  1  0.08578500  0.14211100  0.28067000  1
  H  36  1  0.06242700  0.12990300  0.25760200  1
  H  39  1  0.15987300  0.09837100  0.20479800  1
  H  40  1  0.18470100  0.10308400  0.21529200  1
  H  42  1  0.12432800  0.13598300  0.29489500  1
  H  43  1  0.12305200  0.15753300  0.28315000  1
  H  72  1  0.16640800  0.85638300  0.74833900  1
  H  73  1  0.17548500  0.88787200  0.74361200  1
  H  74  1  0.16928400  0.94618900  0.71117300  1
  H  75  1  0.15801300  0.96503200  0.68606100  1
  H  76  1  0.14013400  0.91735900  0.65638300  1
  H  77  1  0.13905800  0.85402600  0.69520600  1
  H  78  1  0.19074600  0.88640100  0.68096400  1
  H  79  1  0.19443300  0.85455800  0.63230100  1
  H  80  1  0.15679500  0.85632700  0.62904200  1
  H  81  1  0.11482300  0.90270000  0.70606400  1
  H  82  1  0.08580200  0.87272400  0.65181100  1
  H  83  1  0.06243900  0.88494000  0.67487000  1
  H  86  1  0.15986200  0.91649600  0.72767800  1
  H  87  1  0.18469800  0.91180400  0.71718600  1
  H  89  1  0.12434200  0.87884100  0.63758700  1
  H  90  1  0.12307400  0.85730000  0.64934900  1
  H  119  1  0.16631100  0.78956600  0.11728700  1
  H  120  1  0.17542300  0.78483400  0.08580400  1
  H  121  1  0.16928100  0.75237700  0.02748900  1
  H  122  1  0.15801900  0.72726100  0.00864500  1
  H  123  1  0.14013300  0.69758400  0.05631700  1
  H  124  1  0.13902800  0.73640600  0.11964700  1
  H  125  1  0.19072800  0.72219000  0.08728100  1
  H  126  1  0.19444300  0.67352000  0.11910900  1
  H  127  1  0.15680700  0.67024400  0.11734000  1
  H  128  1  0.11480500  0.74724700  0.07095300  1
  H  129  1  0.08579700  0.69300100  0.10095200  1
  H  130  1  0.06242700  0.71604900  0.08871700  1
  H  133  1  0.15983900  0.76888300  0.05717200  1
  H  134  1  0.18467400  0.75840200  0.06188400  1
  H  136  1  0.12434400  0.67878600  0.09483800  1
  H  137  1  0.12307300  0.69055000  0.11637800  1
  H  166  1  0.16640400  0.22534800  0.81521600  1
  H  167  1  0.17549400  0.23008300  0.84670100  1
  H  168  1  0.16929600  0.26253100  0.90501700  1
  H  169  1  0.15799200  0.28763400  0.92385700  1
  H  170  1  0.14010200  0.31730200  0.87618300  1
  H  171  1  0.13905200  0.27847700  0.81285300  1
  H  172  1  0.19074200  0.29272700  0.84522000  1
  H  173  1  0.19442500  0.34139300  0.81338200  1
  H  174  1  0.15678800  0.34465200  0.81515400  1
  H  175  1  0.11482500  0.26762800  0.86153400  1
  H  176  1  0.08579600  0.32187800  0.83155600  1
  H  177  1  0.06243700  0.29881800  0.84377900  1
  H  180  1  0.15988900  0.24602200  0.87533300  1
  H  181  1  0.18471500  0.25652200  0.87062000  1
  H  183  1  0.12433800  0.33610300  0.83766800  1
  H  184  1  0.12306400  0.32434200  0.81612700  1
  H  213  1  0.85692600  0.85638100  0.18413400  1
  H  214  1  0.84780100  0.88786500  0.18886000  1
  H  215  1  0.85392200  0.94619600  0.22130700  1
  H  216  1  0.86516600  0.96504600  0.24642300  1
  H  217  1  0.88310000  0.91738800  0.27609700  1
  H  218  1  0.88423100  0.85405000  0.23728700  1
  H  219  1  0.83251300  0.88639700  0.25149400  1
  H  220  1  0.82881500  0.85457900  0.30017200  1
  H  221  1  0.86645000  0.85636300  0.30344500  1
  H  222  1  0.90843600  0.90274600  0.22643400  1
  H  223  1  0.93745000  0.87275400  0.28068000  1
  H  224  1  0.96081600  0.88498000  0.25762500  1
  H  227  1  0.86338400  0.91651300  0.20479900  1
  H  228  1  0.83855300  0.91179000  0.21528500  1
  H  230  1  0.89890600  0.87887100  0.29490000  1
  H  231  1  0.90017900  0.85732900  0.28313900  1
  H  260  1  0.85683200  0.15847400  0.74837100  1
  H  261  1  0.84772000  0.12699500  0.74362300  1
  H  262  1  0.85391700  0.06867900  0.71117200  1
  H  263  1  0.86523100  0.04983800  0.68607100  1
  H  264  1  0.88314400  0.09751300  0.65641500  1
  H  265  1  0.88418300  0.16084200  0.69523800  1
  H  266  1  0.83249100  0.12847500  0.68098600  1
  H  267  1  0.82880500  0.16031100  0.63231900  1
  H  268  1  0.86644400  0.15854400  0.62906200  1
  H  269  1  0.90841000  0.11217000  0.70608700  1
  H  270  1  0.93743500  0.14216000  0.65184300  1
  H  271  1  0.96079400  0.12995000  0.67490600  1
  H  274  1  0.86332400  0.09836200  0.72768800  1
  H  275  1  0.83850400  0.10307900  0.71717700  1
  H  277  1  0.89889500  0.13603100  0.63761100  1
  H  278  1  0.90016500  0.15757300  0.64937100  1
  H  307  1  0.85692900  0.22531000  0.11724700  1
  H  308  1  0.84779200  0.23006500  0.08577300  1
  H  309  1  0.85390800  0.26254500  0.02746600  1
  H  310  1  0.86516600  0.28766500  0.00862800  1
  H  311  1  0.88312200  0.31730800  0.05630100  1
  H  312  1  0.88423200  0.27846200  0.11962200  1
  H  313  1  0.83252900  0.29268900  0.08727300  1
  H  314  1  0.82882300  0.34135900  0.11910400  1
  H  315  1  0.86645800  0.34463400  0.11732800  1
  H  316  1  0.90845300  0.26763500  0.07093000  1
  H  317  1  0.93746200  0.32188500  0.10092000  1
  H  318  1  0.96083200  0.29883700  0.08868300  1
  H  321  1  0.86336000  0.24601500  0.05713000  1
  H  322  1  0.83854500  0.25651900  0.06187900  1
  H  324  1  0.89891200  0.33609600  0.09481300  1
  H  325  1  0.90019100  0.32433500  0.11635400  1
  H  354  1  0.85688600  0.78955700  0.81520100  1
  H  355  1  0.84773000  0.78479600  0.84667200  1
  H  356  1  0.85388400  0.75234400  0.90498500  1
  H  357  1  0.86520400  0.72725300  0.92383400  1
  H  358  1  0.88316000  0.69759600  0.87617000  1
  H  359  1  0.88423500  0.73642300  0.81284200  1
  H  360  1  0.83251500  0.72217100  0.84519700  1
  H  361  1  0.82882900  0.67350300  0.81336300  1
  H  362  1  0.86646600  0.67024300  0.81513400  1
  H  363  1  0.90843600  0.74726000  0.86151700  1
  H  364  1  0.93746000  0.69301100  0.83153800  1
  H  365  1  0.96082100  0.71606700  0.84376200  1
  H  368  1  0.86330000  0.76886500  0.87531500  1
  H  369  1  0.83849800  0.75833800  0.87057000  1
  H  371  1  0.89891700  0.67878900  0.83764700  1
  H  372  1  0.90019000  0.69055100  0.81610800  1
  H  401  1  0.87941600  0.83740600  0.73725000  1
  H  402  1  0.86799700  0.86834200  0.74230000  1
  H  403  1  0.85210000  0.93049600  0.72259500  1
  H  404  1  0.85654600  0.95599600  0.70258000  1
  H  405  1  0.88111500  0.92085900  0.66127600  1
  H  406  1  0.88802700  0.84902600  0.68058300  1
  H  407  1  0.83473600  0.87995900  0.68551200  1
  H  408  1  0.82055500  0.85540900  0.63414000  1
  H  409  1  0.85520500  0.86238100  0.62343000  1
  H  410  1  0.91712100  0.89311200  0.69776100  1
  H  411  1  0.92712000  0.88266900  0.63198900  1
  H  412  1  0.95674700  0.88899600  0.65099300  1
  H  415  1  0.87246100  0.90122800  0.73068600  1
  H  416  1  0.84686500  0.89437000  0.72318900  1
  H  418  1  0.88587600  0.88823700  0.62956600  1
  H  419  1  0.89257100  0.86482900  0.63435400  1
  H  448  1  0.87935900  0.17745000  0.19522600  1
  H  449  1  0.86792800  0.14651700  0.19018800  1
  H  450  1  0.85192700  0.08438700  0.20992700  1
  H  451  1  0.85637500  0.05885800  0.22992500  1
  H  452  1  0.88125700  0.09393500  0.27114100  1
  H  453  1  0.88804300  0.16582600  0.25188500  1
  H  454  1  0.83473900  0.13485300  0.24698200  1
  H  455  1  0.82058800  0.15948500  0.29832000  1
  H  456  1  0.85524900  0.15254800  0.30901800  1
  H  457  1  0.91712900  0.12172300  0.23471000  1
  H  458  1  0.92715600  0.13225700  0.30046500  1
  H  459  1  0.95677600  0.12591200  0.28145900  1
  H  462  1  0.87235300  0.11362700  0.20178800  1
  H  463  1  0.84679300  0.12051100  0.20934600  1
  H  465  1  0.88592000  0.12668800  0.30291400  1
  H  466  1  0.89260400  0.15008900  0.29808000  1
  H  495  1  0.87937000  0.23642200  0.79625800  1
  H  496  1  0.86794000  0.23138800  0.82719200  1
  H  497  1  0.85192100  0.25114200  0.88931500  1
  H  498  1  0.85636500  0.27114000  0.91483800  1
  H  499  1  0.88126500  0.31234800  0.87975900  1
  H  500  1  0.88804900  0.29308300  0.80787300  1
  H  501  1  0.83474200  0.28817100  0.83882300  1
  H  502  1  0.82056400  0.33952500  0.81423500  1
  H  503  1  0.85521700  0.35023400  0.82119000  1
  H  504  1  0.91713100  0.27592000  0.85195900  1
  H  505  1  0.92713700  0.34168100  0.84146200  1
  H  506  1  0.95676300  0.32268100  0.84780000  1
  H  509  1  0.87237300  0.24300200  0.86008500  1
  H  510  1  0.84680500  0.25053600  0.85319400  1
  H  512  1  0.88589900  0.34411000  0.84704500  1
  H  513  1  0.89257900  0.33931300  0.82363500  1
  H  542  1  0.87941100  0.77850300  0.13626300  1
  H  543  1  0.86798500  0.78354200  0.10532600  1
  H  544  1  0.85201300  0.76379300  0.04318800  1
  H  545  1  0.85639500  0.74376600  0.01769700  1
  H  546  1  0.88118300  0.70253600  0.05280200  1
  H  547  1  0.88808300  0.72184200  0.12464400  1
  H  548  1  0.83477100  0.72671500  0.09370900  1
  H  549  1  0.82066200  0.67535700  0.11832000  1
  H  550  1  0.85533300  0.66468100  0.11136900  1
  H  551  1  0.91711500  0.73904400  0.08051900  1
  H  552  1  0.92723800  0.67330300  0.09104800  1
  H  553  1  0.95682300  0.69233400  0.08463600  1
  H  556  1  0.87243700  0.77191400  0.07242700  1
  H  557  1  0.84685600  0.76441700  0.07931900  1
  H  559  1  0.88599300  0.67081200  0.08551100  1
  H  560  1  0.89269300  0.67565300  0.10890700  1
  H  589  1  0.14384500  0.17743200  0.73727500  1
  H  590  1  0.15529100  0.14650100  0.74231000  1
  H  591  1  0.17134700  0.08438300  0.72255000  1
  H  592  1  0.16697900  0.05888100  0.70252300  1
  H  593  1  0.14209500  0.09396200  0.66131900  1
  H  594  1  0.13520300  0.16582200  0.68060800  1
  H  595  1  0.18854600  0.13488600  0.68552500  1
  H  596  1  0.20272000  0.15953400  0.63419800  1
  H  597  1  0.16806400  0.15259100  0.62348500  1
  H  598  1  0.10615400  0.12170200  0.69774600  1
  H  599  1  0.09617900  0.13220900  0.63198600  1
  H  600  1  0.06655900  0.12578000  0.65095800  1
  H  603  1  0.15087500  0.11360600  0.73068100  1
  H  604  1  0.17645000  0.12051200  0.72317800  1
  H  606  1  0.13741600  0.12672600  0.62955500  1
  H  607  1  0.13069100  0.15011300  0.63441900  1
  H  636  1  0.14388500  0.83742100  0.19520500  1
  H  637  1  0.15532000  0.86835400  0.19016300  1
  H  638  1  0.17127900  0.93050200  0.20989600  1
  H  639  1  0.16685100  0.95601300  0.22990800  1
  H  640  1  0.14204100  0.92091700  0.27113600  1
  H  641  1  0.13519300  0.84905300  0.25186000  1
  H  642  1  0.18850800  0.87999100  0.24696600  1
  H  643  1  0.20263800  0.85539800  0.29832900  1
  H  644  1  0.16797700  0.86236000  0.30901500  1
  H  645  1  0.10613800  0.89314600  0.23466500  1
  H  646  1  0.09606900  0.88266100  0.30041900  1
  H  647  1  0.06646500  0.88901500  0.28139700  1
  H  650  1  0.15086500  0.90124900  0.20176900  1
  H  651  1  0.17644100  0.89437400  0.20930000  1
  H  653  1  0.13731500  0.88823100  0.30287600  1
  H  654  1  0.13062400  0.86482400  0.29807500  1
  H  683  1  0.14387600  0.77844700  0.79623800  1
  H  684  1  0.15531800  0.78349200  0.82716700  1
  H  685  1  0.17124900  0.76377200  0.88932200  1
  H  686  1  0.16678600  0.74377100  0.91483700  1
  H  687  1  0.14206700  0.70250900  0.87972700  1
  H  688  1  0.13521000  0.72178800  0.80786800  1
  H  689  1  0.18852400  0.72670900  0.83881000  1
  H  690  1  0.20269800  0.67535200  0.81422600  1
  H  691  1  0.16804500  0.66464500  0.82118700  1
  H  692  1  0.10613400  0.73896400  0.85194700  1
  H  693  1  0.09613200  0.67319700  0.84147200  1
  H  694  1  0.06650300  0.69220100  0.84780200  1
  H  697  1  0.15086200  0.77189000  0.86005500  1
  H  698  1  0.17644200  0.76435600  0.85319700  1
  H  700  1  0.13737000  0.67076800  0.84704200  1
  H  701  1  0.13068400  0.67557000  0.82363500  1
  H  730  1  0.14387500  0.23640300  0.13628400  1
  H  731  1  0.15530400  0.23136100  0.10534900  1
  H  732  1  0.17114000  0.25107700  0.04317900  1
  H  733  1  0.16664800  0.27108000  0.01767600  1
  H  734  1  0.14206600  0.31237600  0.05282600  1
  H  735  1  0.13518300  0.29305900  0.12465700  1
  H  736  1  0.18848000  0.28816900  0.09369700  1
  H  737  1  0.20262500  0.33953000  0.11828400  1
  H  738  1  0.16795800  0.35021900  0.11133900  1
  H  739  1  0.10611500  0.27586000  0.08056000  1
  H  740  1  0.09603000  0.34161000  0.09108400  1
  H  741  1  0.06642300  0.32257800  0.08474500  1
  H  744  1  0.15081100  0.24296400  0.07246300  1
  H  745  1  0.17639800  0.25049600  0.07930600  1
  H  747  1  0.13727100  0.34407900  0.08549500  1
  H  748  1  0.13060000  0.33926600  0.10890300  1
  H  777  1  0.66958200  0.66018100  0.68609700  1
  H  778  1  0.67949500  0.62898100  0.69125300  1
  H  779  1  0.67219300  0.57012400  0.72261100  1
  H  780  1  0.65959700  0.55080800  0.74690300  1
  H  781  1  0.63813600  0.59780600  0.77578500  1
  H  782  1  0.63790000  0.66137200  0.73739400  1
  H  783  1  0.68972300  0.63218400  0.75500400  1
  H  784  1  0.68525500  0.66004000  0.80608600  1
  H  785  1  0.64827300  0.65578100  0.80619600  1
  H  786  1  0.61625500  0.61268700  0.72404200  1
  H  787  1  0.58153200  0.63986400  0.77719400  1
  H  788  1  0.56073900  0.62837300  0.75214000  1
  H  791  1  0.66342000  0.59988000  0.70585800  1
  H  792  1  0.68720400  0.60490400  0.71794000  1
  H  794  1  0.61856800  0.63301000  0.79370000  1
  H  795  1  0.61751800  0.65534400  0.78344900  1
  H  824  1  0.66963900  0.35470900  0.24639400  1
  H  825  1  0.67953800  0.38591000  0.24123100  1
  H  826  1  0.67219000  0.44476200  0.20988100  1
  H  827  1  0.65958600  0.46407400  0.18558800  1
  H  828  1  0.63814700  0.41706900  0.15670800  1
  H  829  1  0.63793400  0.35350300  0.19510600  1
  H  830  1  0.68974200  0.38267000  0.17748700  1
  H  831  1  0.68525800  0.35487600  0.12637300  1
  H  832  1  0.64827800  0.35914400  0.12627000  1
  H  833  1  0.61628300  0.40216600  0.20847000  1
  H  834  1  0.58154800  0.37501800  0.15531000  1
  H  835  1  0.56076300  0.38647900  0.18038000  1
  H  838  1  0.66343300  0.41499800  0.22663400  1
  H  839  1  0.68722200  0.40999600  0.21455000  1
  H  841  1  0.61857300  0.38189600  0.13879600  1
  H  842  1  0.61753400  0.35955400  0.14903000  1
  H  871  1  0.66955500  0.28761800  0.61896500  1
  H  872  1  0.67948900  0.28244300  0.58777000  1
  H  873  1  0.67219200  0.25107000  0.52892500  1
  H  874  1  0.65960000  0.22677100  0.50961400  1
  H  875  1  0.63814300  0.19789800  0.55661900  1
  H  876  1  0.63790000  0.23630500  0.62017600  1
  H  877  1  0.68972600  0.21868900  0.59099300  1
  H  878  1  0.68526100  0.16760700  0.61885100  1
  H  879  1  0.64827800  0.16749900  0.61459700  1
  H  880  1  0.61625800  0.24964200  0.57148300  1
  H  881  1  0.58153500  0.19650400  0.59868700  1
  H  882  1  0.56074200  0.22155300  0.58718600  1
  H  885  1  0.66341400  0.26782800  0.55867800  1
  H  886  1  0.68720100  0.25575200  0.56370000  1
  H  888  1  0.61856600  0.17999200  0.59184100  1
  H  889  1  0.61752500  0.19026000  0.61417000  1
  H  918  1  0.66963900  0.72729600  0.31353700  1
  H  919  1  0.67954900  0.73246500  0.34473500  1
  H  920  1  0.67223000  0.76383300  0.40358300  1
  H  921  1  0.65961900  0.78812300  0.42289200  1
  H  922  1  0.63814700  0.81698800  0.37588700  1
  H  923  1  0.63793600  0.77858300  0.31232800  1
  H  924  1  0.68974700  0.79620100  0.34148700  1
  H  925  1  0.68526900  0.84731500  0.31369000  1
  H  926  1  0.64828700  0.84742300  0.31796500  1
  H  927  1  0.61629000  0.76522900  0.36099700  1
  H  928  1  0.58155300  0.81839100  0.33385400  1
  H  929  1  0.56076800  0.79332300  0.34532000  1
  H  932  1  0.66346300  0.74707200  0.37383300  1
  H  933  1  0.68724400  0.75915600  0.36880300  1
  H  935  1  0.61858900  0.83490100  0.34072200  1
  H  936  1  0.61753200  0.82466500  0.31838100  1
  H  965  1  0.35367200  0.35470400  0.68608500  1
  H  966  1  0.34372400  0.38589900  0.69125400  1
  H  967  1  0.35101800  0.44476200  0.72260900  1
  H  968  1  0.36361900  0.46408100  0.74689700  1
  H  969  1  0.38510100  0.41708800  0.77577600  1
  H  970  1  0.38535300  0.35352300  0.73738700  1
  H  971  1  0.33351500  0.38269900  0.75499700  1
  H  972  1  0.33798900  0.35484400  0.80607800  1
  H  973  1  0.37497300  0.35910400  0.80618500  1
  H  974  1  0.40697500  0.40222200  0.72404100  1
  H  975  1  0.44170900  0.37501900  0.77717500  1
  H  976  1  0.46249600  0.38651500  0.75212100  1
  H  979  1  0.35979600  0.41500900  0.70585300  1
  H  980  1  0.33602000  0.40997400  0.71794000  1
  H  982  1  0.40468000  0.38186300  0.79369000  1
  H  983  1  0.40572000  0.35953500  0.78342200  1
  H  1012  1  0.35359400  0.66015200  0.24642700  1
  H  1013  1  0.34366200  0.62896000  0.24124100  1
  H  1014  1  0.35098300  0.57011300  0.20986600  1
  H  1015  1  0.36360700  0.55080500  0.18557900  1
  H  1016  1  0.38509800  0.59781200  0.15672900  1
  H  1017  1  0.38529700  0.66136900  0.19513500  1
  H  1018  1  0.33348500  0.63220200  0.17750600  1
  H  1019  1  0.33796600  0.66001500  0.12640000  1
  H  1020  1  0.37495100  0.65574800  0.12629900  1
  H  1021  1  0.40693600  0.61270600  0.20849100  1
  H  1022  1  0.44168100  0.63985300  0.15533300  1
  H  1023  1  0.46246100  0.62839600  0.18040800  1
  H  1026  1  0.35974700  0.59986200  0.22663700  1
  H  1027  1  0.33597400  0.60489600  0.21454200  1
  H  1029  1  0.40464300  0.63298000  0.13881700  1
  H  1030  1  0.40570400  0.65532200  0.14905300  1
  H  1059  1  0.35369900  0.72725100  0.61896500  1
  H  1060  1  0.34372900  0.73244000  0.58778000  1
  H  1061  1  0.35099400  0.76382500  0.52893000  1
  H  1062  1  0.36359900  0.78811500  0.50961500  1
  H  1063  1  0.38510900  0.81696800  0.55661500  1
  H  1064  1  0.38536700  0.77855900  0.62016800  1
  H  1065  1  0.33352500  0.79617200  0.59099300  1
  H  1066  1  0.33798300  0.84724900  0.61886200  1
  H  1067  1  0.37496700  0.84736800  0.61459400  1
  H  1068  1  0.40699800  0.76522900  0.57148000  1
  H  1069  1  0.44171200  0.81838500  0.59865800  1
  H  1070  1  0.46250900  0.79333700  0.58716100  1
  H  1073  1  0.35976900  0.74705000  0.55866400  1
  H  1074  1  0.33601200  0.75915300  0.56373200  1
  H  1076  1  0.40466400  0.83488300  0.59181900  1
  H  1077  1  0.40573300  0.82462500  0.61415000  1
  H  1106  1  0.35365300  0.28761700  0.31352200  1
  H  1107  1  0.34367200  0.28241400  0.34470300  1
  H  1108  1  0.35095300  0.25103900  0.40354800  1
  H  1109  1  0.36359100  0.22676600  0.42286600  1
  H  1110  1  0.38513000  0.19791900  0.37587300  1
  H  1111  1  0.38536100  0.23632800  0.31231700  1
  H  1112  1  0.33351800  0.21869400  0.34145000  1
  H  1113  1  0.33801900  0.16757900  0.31365000  1
  H  1114  1  0.37499800  0.16746600  0.31796100  1
  H  1115  1  0.40696400  0.24967400  0.36098200  1
  H  1116  1  0.44171900  0.19651100  0.33385800  1
  H  1117  1  0.46249600  0.22158200  0.34532400  1
  H  1120  1  0.35971800  0.26781400  0.37381200  1
  H  1121  1  0.33596800  0.25569700  0.36874600  1
  H  1123  1  0.40467700  0.18000000  0.34072500  1
  H  1124  1  0.40575200  0.19022300  0.31837800  1
  H  1153  1  0.37702600  0.33745400  0.23583500  1
  H  1154  1  0.36391500  0.36789800  0.24031800  1
  H  1155  1  0.34718000  0.42966100  0.22033600  1
  H  1156  1  0.35299600  0.45573800  0.20130300  1
  H  1157  1  0.38338800  0.42220300  0.16174900  1
  H  1158  1  0.38955500  0.34974500  0.17983700  1
  H  1159  1  0.33586800  0.37566500  0.18009500  1
  H  1160  1  0.32897600  0.36338600  0.12333200  1
  H  1161  1  0.36355400  0.37356900  0.11758200  1
  H  1162  1  0.41652400  0.39197500  0.20082700  1
  H  1163  1  0.43319800  0.38943800  0.13531400  1
  H  1164  1  0.46070000  0.39291300  0.15703400  1
  H  1167  1  0.36781700  0.40081100  0.22946900  1
  H  1168  1  0.34330100  0.39345700  0.21994400  1
  H  1170  1  0.39235600  0.39724900  0.13121800  1
  H  1171  1  0.39881400  0.37328500  0.13175400  1
  H  1200  1  0.37697400  0.67742500  0.69663600  1
  H  1201  1  0.36386900  0.64698000  0.69216200  1
  H  1202  1  0.34719900  0.58519800  0.71214800  1
  H  1203  1  0.35305700  0.55911900  0.73117400  1
  H  1204  1  0.38344500  0.59267700  0.77071900  1
  H  1205  1  0.38956600  0.66513100  0.75262400  1
  H  1206  1  0.33589300  0.63920800  0.75239200  1
  H  1207  1  0.32902500  0.65144900  0.80916500  1
  H  1208  1  0.36361500  0.64128000  0.81489500  1
  H  1209  1  0.41652700  0.62289100  0.73161200  1
  H  1210  1  0.43327500  0.62550200  0.79710900  1
  H  1211  1  0.46075900  0.62202600  0.77536400  1
  H  1214  1  0.36778200  0.61407000  0.70299200  1
  H  1215  1  0.34328500  0.62140900  0.71256900  1
  H  1217  1  0.39244700  0.61764800  0.80124400  1
  H  1218  1  0.39886600  0.64162100  0.80069000  1
  H  1247  1  0.37698400  0.73783800  0.29629400  1
  H  1248  1  0.36386800  0.73337100  0.32673700  1
  H  1249  1  0.34716100  0.75337800  0.38850200  1
  H  1250  1  0.35301600  0.77240000  0.41457900  1
  H  1251  1  0.38343200  0.81193500  0.38102600  1
  H  1252  1  0.38957100  0.79382900  0.30857400  1
  H  1253  1  0.33587400  0.79358800  0.33448600  1
  H  1254  1  0.32897300  0.85035400  0.32222200  1
  H  1255  1  0.36355300  0.85610300  0.33240400  1
  H  1256  1  0.41652900  0.77285500  0.35080000  1
  H  1257  1  0.43320700  0.83836700  0.34824100  1
  H  1258  1  0.46070800  0.81664500  0.35172300  1
  H  1261  1  0.36777500  0.74421900  0.35964700  1
  H  1262  1  0.34327400  0.75377400  0.35229400  1
  H  1264  1  0.39237300  0.84246700  0.35606200  1
  H  1265  1  0.39881700  0.84192700  0.33209500  1
  H  1294  1  0.37703400  0.27708700  0.63622100  1
  H  1295  1  0.36391700  0.28155800  0.60577700  1
  H  1296  1  0.34715800  0.26154000  0.54402100  1
  H  1297  1  0.35292400  0.24248600  0.51796600  1
  H  1298  1  0.38339400  0.20297300  0.55149700  1
  H  1299  1  0.38961000  0.22109600  0.62393500  1
  H  1300  1  0.33589300  0.22130900  0.59799900  1
  H  1301  1  0.32908700  0.16457400  0.61043500  1
  H  1302  1  0.36368300  0.15883900  0.60027700  1
  H  1303  1  0.41650800  0.24210100  0.58165400  1
  H  1304  1  0.43328300  0.17661100  0.58424500  1
  H  1305  1  0.46074300  0.19835800  0.58065400  1
  H  1308  1  0.36781700  0.27069200  0.57285400  1
  H  1309  1  0.34330600  0.26117700  0.58023600  1
  H  1311  1  0.39244000  0.17243100  0.57654700  1
  H  1312  1  0.39893900  0.17306600  0.60050000  1
  H  1341  1  0.64622400  0.67740300  0.23586200  1
  H  1342  1  0.65935300  0.64696200  0.24032900  1
  H  1343  1  0.67613600  0.58521400  0.22030000  1
  H  1344  1  0.67036800  0.55915500  0.20124200  1
  H  1345  1  0.63988800  0.59269000  0.16174000  1
  H  1346  1  0.63367100  0.66512900  0.17986400  1
  H  1347  1  0.68740800  0.63919700  0.18011400  1
  H  1348  1  0.69428000  0.65164300  0.12338600  1
  H  1349  1  0.65969300  0.64148100  0.11761700  1
  H  1350  1  0.60674400  0.62286700  0.20081800  1
  H  1351  1  0.59009600  0.62540700  0.13530000  1
  H  1352  1  0.56260100  0.62181100  0.15700400  1
  H  1355  1  0.65546800  0.61404600  0.22946100  1
  H  1356  1  0.67997700  0.62142700  0.21994100  1
  H  1358  1  0.63093600  0.61773800  0.13117600  1
  H  1359  1  0.62442900  0.64169100  0.13180500  1
  H  1388  1  0.64626200  0.33746800  0.69662000  1
  H  1389  1  0.65938000  0.36791100  0.69214600  1
  H  1390  1  0.67607100  0.42969100  0.71213700  1
  H  1391  1  0.67024400  0.45576100  0.73117300  1
  H  1392  1  0.63983600  0.42221400  0.77070800  1
  H  1393  1  0.63366400  0.34976700  0.75260400  1
  H  1394  1  0.68736600  0.37568600  0.75237200  1
  H  1395  1  0.69422400  0.36337500  0.80913100  1
  H  1396  1  0.65963900  0.37356000  0.81487000  1
  H  1397  1  0.60673000  0.39199700  0.73160700  1
  H  1398  1  0.59000700  0.38945600  0.79710900  1
  H  1399  1  0.56252200  0.39294900  0.77537100  1
  H  1402  1  0.65546000  0.40082600  0.70298500  1
  H  1403  1  0.67996500  0.39348000  0.71253600  1
  H  1405  1  0.63085600  0.39725100  0.80123300  1
  H  1406  1  0.62438300  0.37328900  0.80068100  1
  H  1435  1  0.64625100  0.27704300  0.29628700  1
  H  1436  1  0.65938600  0.28151000  0.32672300  1
  H  1437  1  0.67608500  0.26151900  0.38849800  1
  H  1438  1  0.67022700  0.24250000  0.41457600  1
  H  1439  1  0.63983400  0.20295100  0.38103000  1
  H  1440  1  0.63365200  0.22105700  0.30858100  1
  H  1441  1  0.68737200  0.22129800  0.33450400  1
  H  1442  1  0.69423100  0.16455000  0.32213600  1
  H  1443  1  0.65966300  0.15879500  0.33235200  1
  H  1444  1  0.60671600  0.24203500  0.35080300  1
  H  1445  1  0.59003700  0.17652100  0.34827400  1
  H  1446  1  0.56253600  0.19824500  0.35175600  1
  H  1449  1  0.65548000  0.27067400  0.35963200  1
  H  1450  1  0.67998000  0.26110900  0.35228700  1
  H  1452  1  0.63088700  0.17242400  0.35606500  1
  H  1453  1  0.62440700  0.17296100  0.33210600  1
  H  1482  1  0.64624800  0.73783000  0.63623600  1
  H  1483  1  0.65939100  0.73336200  0.60580100  1
  H  1484  1  0.67610900  0.75335400  0.54403200  1
  H  1485  1  0.67024700  0.77236700  0.51794800  1
  H  1486  1  0.63981700  0.81190700  0.55148200  1
  H  1487  1  0.63363400  0.79381100  0.62393500  1
  H  1488  1  0.68734500  0.79359100  0.59805700  1
  H  1489  1  0.69419300  0.85036800  0.61031000  1
  H  1490  1  0.65962400  0.85609800  0.60006700  1
  H  1491  1  0.60672200  0.77280600  0.58171200  1
  H  1492  1  0.58998400  0.83830900  0.58423100  1
  H  1493  1  0.56249800  0.81656400  0.58076500  1
  H  1496  1  0.65549100  0.74419800  0.57288700  1
  H  1497  1  0.67998400  0.75376600  0.58024500  1
  H  1499  1  0.63083800  0.84241900  0.57640300  1
  H  1500  1  0.62436400  0.84191300  0.60036400  1
  H  1510  1  0.12646800  0.98444700  0.27774000  1
  H  1511  1  0.11788700  0.01573900  0.28400400  1
  H  1514  1  0.19263100  0.99014700  0.24683500  1
  H  1515  1  0.20476900  0.99158200  0.26905100  1
  H  1516  1  0.20357300  0.01089300  0.25408800  1
  H  1518  1  0.18272200  0.04821700  0.28337400  1
  H  1519  1  0.19264100  0.04030500  0.26203200  1
  H  1520  1  0.20007600  0.02945600  0.28315700  1
  H  1522  1  0.13545400  0.04467700  0.29784600  1
  H  1524  1  0.17817300  0.96652400  0.26468100  1
  H  1530  1  0.12652200  0.03042000  0.65473600  1
  H  1531  1  0.11791900  0.99913300  0.64846300  1
  H  1534  1  0.19266900  0.02471900  0.68564700  1
  H  1535  1  0.20484500  0.02315800  0.66345400  1
  H  1536  1  0.20353200  0.00390700  0.67849400  1
  H  1538  1  0.18273400  0.96662900  0.64909200  1
  H  1539  1  0.19264400  0.97451300  0.67044800  1
  H  1540  1  0.20010100  0.98538100  0.64933900  1
  H  1542  1  0.13547100  0.97019000  0.63462100  1
  H  1544  1  0.17824400  0.04829500  0.66776400  1
  H  1550  1  0.12648500  0.69592000  0.94326500  1
  H  1551  1  0.11790700  0.68964300  0.97455400  1
  H  1554  1  0.19256200  0.72697000  0.94915500  1
  H  1555  1  0.20466400  0.70471300  0.95013700  1
  H  1556  1  0.20375400  0.71935900  0.96968200  1
  H  1558  1  0.18272500  0.69032400  0.00705700  1
  H  1559  1  0.19264100  0.71165900  0.99912000  1
  H  1560  1  0.20008500  0.69051800  0.98830200  1
  H  1562  1  0.13547200  0.67581400  0.00349800  1
  H  1564  1  0.17815900  0.70914100  0.92536000  1
  H  1570  1  0.12648900  0.31883000  0.98923800  1
  H  1571  1  0.11788600  0.32518000  0.95797600  1
  H  1574  1  0.19250100  0.28762300  0.98268800  1
  H  1575  1  0.20435100  0.31000500  0.98308800  1
  H  1576  1  0.20434600  0.29636700  0.96287100  1
  H  1578  1  0.18261900  0.32454600  0.92533900  1
  H  1579  1  0.19265500  0.30329600  0.93338100  1
  H  1580  1  0.20001100  0.32453600  0.94406500  1
  H  1582  1  0.13534600  0.33903900  0.92901300  1
  H  1584  1  0.17810600  0.30520700  0.00703700  1
  H  1590  1  0.89682400  0.03041600  0.27782400  1
  H  1591  1  0.90535500  0.99910500  0.28405800  1
  H  1594  1  0.83048700  0.02533000  0.24718900  1
  H  1595  1  0.81817800  0.02255000  0.26920200  1
  H  1596  1  0.82027300  0.00398500  0.25333500  1
  H  1598  1  0.84044400  0.96673300  0.28334500  1
  H  1599  1  0.83058000  0.97464400  0.26198900  1
  H  1600  1  0.82312900  0.98552800  0.28308700  1
  H  1602  1  0.88769500  0.97019300  0.29788600  1
  H  1604  1  0.84511900  0.04844300  0.26504600  1
  H  1610  1  0.89670700  0.98445200  0.65486600  1
  H  1611  1  0.90532900  0.01571100  0.64852400  1
  H  1614  1  0.83069400  0.99105500  0.68607200  1
  H  1615  1  0.81886100  0.99059900  0.66368400  1
  H  1616  1  0.81883200  0.01084400  0.67727800  1
  H  1618  1  0.84061900  0.04838300  0.64915600  1
  H  1619  1  0.83056600  0.04033200  0.67039800  1
  H  1620  1  0.82321500  0.02966500  0.64914700  1
  H  1622  1  0.88789700  0.04468700  0.63467100  1
  H  1624  1  0.84507800  0.96667900  0.66849600  1
  H  1630  1  0.89684300  0.31903200  0.94327300  1
  H  1631  1  0.90537800  0.32526800  0.97458300  1
  H  1634  1  0.83045500  0.28847800  0.94831900  1
  H  1635  1  0.81815600  0.31047800  0.95122100  1
  H  1636  1  0.82032500  0.29453200  0.96971600  1
  H  1638  1  0.84046400  0.32460500  0.00695300  1
  H  1639  1  0.83058300  0.30325400  0.99904500  1
  H  1640  1  0.82315100  0.32435300  0.98815600  1
  H  1642  1  0.88772200  0.33911500  0.00349400  1
  H  1644  1  0.84512400  0.30630800  0.92524500  1
  H  1650  1  0.89676400  0.69604900  0.98922600  1
  H  1651  1  0.90537700  0.68974500  0.95795200  1
  H  1654  1  0.83065900  0.72704900  0.98310800  1
  H  1655  1  0.81865800  0.70473400  0.98252300  1
  H  1656  1  0.81930200  0.71909000  0.96277100  1
  H  1658  1  0.84059300  0.69026600  0.92540000  1
  H  1659  1  0.83060100  0.71157500  0.93332700  1
  H  1660  1  0.82321500  0.69041500  0.94414000  1
  H  1662  1  0.88787500  0.67585800  0.92900600  1
  H  1664  1  0.84506200  0.70928800  0.00706300  1
  H  1670  1  0.62531400  0.48508500  0.77687100  1
  H  1671  1  0.61668700  0.51643200  0.78277400  1
  H  1674  1  0.69518900  0.48710900  0.75199700  1
  H  1675  1  0.70644600  0.49875300  0.77120000  1
  H  1676  1  0.69926400  0.51069000  0.75060500  1
  H  1678  1  0.68174700  0.54887100  0.78357200  1
  H  1679  1  0.69321300  0.53980900  0.76334500  1
  H  1680  1  0.69870800  0.52989900  0.78533400  1
  H  1682  1  0.63389100  0.54514700  0.79738600  1
  H  1684  1  0.67739100  0.46649000  0.76814300  1
  H  1690  1  0.62536800  0.52979900  0.15560900  1
  H  1691  1  0.61671700  0.49845900  0.14970500  1
  H  1694  1  0.69522300  0.52773400  0.18051000  1
  H  1695  1  0.70648800  0.51608100  0.16131500  1
  H  1696  1  0.69927700  0.50414900  0.18190600  1
  H  1698  1  0.68175300  0.46598400  0.14891300  1
  H  1699  1  0.69322400  0.47503600  0.16914300  1
  H  1700  1  0.69872700  0.48494800  0.14715700  1
  H  1702  1  0.63389400  0.46973400  0.13510600  1
  H  1704  1  0.67746200  0.54834200  0.16431100  1
  H  1710  1  0.62531100  0.19678100  0.44390100  1
  H  1711  1  0.61669500  0.19088000  0.47524900  1
  H  1714  1  0.69517100  0.22168800  0.44591000  1
  H  1715  1  0.70644100  0.20248500  0.45754700  1
  H  1716  1  0.69925600  0.22307700  0.46949000  1
  H  1718  1  0.68176100  0.19011200  0.50767700  1
  H  1719  1  0.69321600  0.21034100  0.49861100  1
  H  1720  1  0.69871900  0.18835400  0.48870200  1
  H  1722  1  0.63391100  0.17628100  0.50396500  1
  H  1724  1  0.67737400  0.20554500  0.42529200  1
  H  1730  1  0.62530500  0.81803200  0.48860100  1
  H  1731  1  0.61668200  0.82395800  0.45726000  1
  H  1734  1  0.69518200  0.79316400  0.48655100  1
  H  1735  1  0.70643600  0.81241600  0.47498200  1
  H  1736  1  0.69930000  0.79185200  0.46297200  1
  H  1738  1  0.68174500  0.82483400  0.42483900  1
  H  1739  1  0.69322100  0.80459800  0.43386900  1
  H  1740  1  0.69870500  0.82657100  0.44381400  1
  H  1742  1  0.63388000  0.83858900  0.42855400  1
  H  1744  1  0.67737800  0.80926000  0.50719800  1
  H  1750  1  0.39796500  0.52979800  0.77691100  1
  H  1751  1  0.40656200  0.49844300  0.78279700  1
  H  1754  1  0.32810000  0.52784600  0.75201100  1
  H  1755  1  0.31682100  0.51616300  0.77118000  1
  H  1756  1  0.32403000  0.50426700  0.75056900  1
  H  1758  1  0.34147600  0.46604100  0.78352900  1
  H  1759  1  0.33002200  0.47513500  0.76331300  1
  H  1760  1  0.32453300  0.48502400  0.78531200  1
  H  1762  1  0.38932500  0.46973700  0.79738800  1
  H  1764  1  0.34591400  0.54842800  0.76819200  1
  H  1770  1  0.39791600  0.48509700  0.15565500  1
  H  1771  1  0.40655000  0.51643700  0.14974100  1
  H  1774  1  0.32804300  0.48716100  0.18052800  1
  H  1775  1  0.31679300  0.49871400  0.16126400  1
  H  1776  1  0.32391400  0.51073800  0.18182300  1
  H  1778  1  0.34149300  0.54886900  0.14885500  1
  H  1779  1  0.33001400  0.53984300  0.16909200  1
  H  1780  1  0.32452800  0.52989600  0.14711800  1
  H  1782  1  0.38936300  0.54515300  0.13511800  1
  H  1784  1  0.34583100  0.46651200  0.16441600  1
  H  1790  1  0.39795700  0.81811900  0.44390400  1
  H  1791  1  0.40656100  0.82399800  0.47525800  1
  H  1794  1  0.32807700  0.79325400  0.44585400  1
  H  1795  1  0.31680800  0.81241600  0.45755400  1
  H  1796  1  0.32401900  0.79179500  0.46943500  1
  H  1798  1  0.34147700  0.82475100  0.50766800  1
  H  1799  1  0.33000800  0.80454300  0.49856700  1
  H  1800  1  0.32453600  0.82654800  0.48868400  1
  H  1802  1  0.38932700  0.83859600  0.50396900  1
  H  1804  1  0.34589800  0.80943100  0.42527700  1
  H  1810  1  0.39791800  0.19690400  0.48859300  1
  H  1811  1  0.40656700  0.19098600  0.45725500  1
  H  1814  1  0.32801000  0.22169800  0.48651600  1
  H  1815  1  0.31678300  0.20244800  0.47492400  1
  H  1816  1  0.32391700  0.22302400  0.46293400  1
  H  1818  1  0.34151800  0.19004100  0.42480800  1
  H  1819  1  0.33000800  0.21026400  0.43383500  1
  H  1820  1  0.32455500  0.18828200  0.44377800  1
  H  1822  1  0.38939500  0.17632900  0.42854400  1
  H  1824  1  0.34581200  0.20558100  0.50715500  1
  H  1830  1  0.28636900  0.19101000  0.29138900  1
  H  1831  1  0.25982400  0.17891200  0.27195100  1
  H  1834  1  0.27391000  0.16642500  0.35099000  1
  H  1835  1  0.26824500  0.14349900  0.34411100  1
  H  1836  1  0.24758000  0.15954200  0.34886200  1
  H  1838  1  0.22372700  0.13293500  0.30700900  1
  H  1839  1  0.22357500  0.14410600  0.32852300  1
  H  1840  1  0.24398000  0.12816500  0.32275900  1
  H  1842  1  0.24641300  0.14528600  0.26778800  1
  H  1844  1  0.30395900  0.16684300  0.32950700  1
  H  1850  1  0.28640500  0.82391900  0.64108000  1
  H  1851  1  0.25988800  0.83602300  0.66051500  1
  H  1854  1  0.27389400  0.84843900  0.58145400  1
  H  1855  1  0.26820700  0.87136100  0.58833100  1
  H  1856  1  0.24755500  0.85531000  0.58356400  1
  H  1858  1  0.22368100  0.88191200  0.62542900  1
  H  1859  1  0.22353000  0.87073500  0.60391800  1
  H  1860  1  0.24392800  0.88668600  0.60967400  1
  H  1862  1  0.24644700  0.86962000  0.66463500  1
  H  1864  1  0.30394100  0.84802300  0.60301700  1
  H  1870  1  0.28638600  0.68227300  0.14978100  1
  H  1871  1  0.25986500  0.70173400  0.13767800  1
  H  1874  1  0.27381800  0.62266600  0.12524500  1
  H  1875  1  0.26816400  0.62953600  0.10231400  1
  H  1876  1  0.24749300  0.62482700  0.11835900  1
  H  1878  1  0.22371100  0.66666667  0.09171600  1
  H  1879  1  0.22352200  0.64519300  0.10290400  1
  H  1880  1  0.24393700  0.65091500  0.08696600  1
  H  1882  1  0.24643200  0.70589900  0.10406300  1
  H  1884  1  0.30389500  0.64410600  0.12565100  1
  H  1890  1  0.28641300  0.33260400  0.78275800  1
  H  1891  1  0.25989300  0.31317100  0.79485800  1
  H  1894  1  0.27387800  0.39223700  0.80724800  1
  H  1895  1  0.26819100  0.38537000  0.83017300  1
  H  1896  1  0.24754100  0.39012500  0.81411800  1
  H  1898  1  0.22367000  0.34826700  0.84073000  1
  H  1899  1  0.22351400  0.36977200  0.82954600  1
  H  1900  1  0.24391000  0.36402800  0.84550200  1
  H  1902  1  0.24644200  0.30906000  0.82845200  1
  H  1904  1  0.30393500  0.37071500  0.80685000  1
  H  1910  1  0.73685400  0.82389000  0.29141800  1
  H  1911  1  0.76339100  0.83598000  0.27195800  1
  H  1914  1  0.74941700  0.84846400  0.35101800  1
  H  1915  1  0.75506500  0.87139300  0.34414300  1
  H  1916  1  0.77573900  0.85535000  0.34885500  1
  H  1918  1  0.79952100  0.88196700  0.30698000  1
  H  1919  1  0.79971300  0.87079000  0.32848900  1
  H  1920  1  0.77929600  0.88672900  0.32275900  1
  H  1922  1  0.77682300  0.86959200  0.26777100  1
  H  1924  1  0.71934600  0.84805100  0.32959400  1
  H  1930  1  0.73683300  0.19093900  0.64108400  1
  H  1931  1  0.76334800  0.17884300  0.66052200  1
  H  1934  1  0.74937000  0.16643600  0.58145700  1
  H  1935  1  0.75505300  0.14351100  0.58833000  1
  H  1936  1  0.77570600  0.15956100  0.58357400  1
  H  1938  1  0.79957200  0.13295500  0.62544600  1
  H  1939  1  0.79972700  0.14413500  0.60393500  1
  H  1940  1  0.77933100  0.12818400  0.60968100  1
  H  1942  1  0.77678900  0.14524400  0.66464100  1
  H  1944  1  0.71931100  0.16683900  0.60297700  1
  H  1950  1  0.73685900  0.33259300  0.14977400  1
  H  1951  1  0.76339100  0.31313800  0.13768000  1
  H  1954  1  0.74941100  0.39219900  0.12523500  1
  H  1955  1  0.75507100  0.38532900  0.10230500  1
  H  1956  1  0.77573700  0.39004500  0.11835300  1
  H  1958  1  0.79954200  0.34818000  0.09172200  1
  H  1959  1  0.79972100  0.36968800  0.10290700  1
  H  1960  1  0.77931100  0.36395800  0.08696400  1
  H  1962  1  0.77683100  0.30897100  0.10407000  1
  H  1964  1  0.71933700  0.37076600  0.12563700  1
  H  1970  1  0.73682800  0.68228600  0.78275300  1
  H  1971  1  0.76335300  0.70172000  0.79484200  1
  H  1974  1  0.74936500  0.62265800  0.80725400  1
  H  1975  1  0.75505700  0.62953100  0.83017700  1
  H  1976  1  0.77570400  0.62477100  0.81412000  1
  H  1978  1  0.79958400  0.66666667  0.84071800  1
  H  1979  1  0.79973500  0.64512500  0.82953800  1
  H  1980  1  0.77934200  0.65087500  0.84549600  1
  H  1982  1  0.77681500  0.70584200  0.82843000  1
  H  1984  1  0.71930800  0.64418000  0.80685300  1
  H  1990  1  0.74059000  0.81622000  0.64067600  1
  H  1991  1  0.76425500  0.82825100  0.66290900  1
  H  1994  1  0.75949300  0.84569700  0.58450000  1
  H  1995  1  0.75645600  0.86872400  0.59263400  1
  H  1996  1  0.78177900  0.85807500  0.59110400  1
  H  1998  1  0.79036500  0.88418800  0.63697100  1
  H  1999  1  0.79693600  0.87630500  0.61467600  1
  H  2000  1  0.77180000  0.88628100  0.61923100  1
  H  2002  1  0.77554600  0.86045700  0.67298600  1
  H  2004  1  0.72779300  0.83989900  0.59770900  1
  H  2010  1  0.74059300  0.19857900  0.29179000  1
  H  2011  1  0.76423000  0.18653400  0.26956200  1
  H  2014  1  0.75950400  0.16919900  0.34801100  1
  H  2015  1  0.75660200  0.14615600  0.33988700  1
  H  2016  1  0.78186900  0.15690400  0.34143600  1
  H  2018  1  0.79046800  0.13068400  0.29558700  1
  H  2019  1  0.79701300  0.13859900  0.31787800  1
  H  2020  1  0.77189100  0.12859700  0.31332000  1
  H  2022  1  0.77553100  0.15432700  0.25954700  1
  H  2024  1  0.72781300  0.17489100  0.33467200  1
  H  2030  1  0.74060500  0.33298500  0.77506700  1
  H  2031  1  0.76425500  0.31075200  0.78712000  1
  H  2034  1  0.75952000  0.38918100  0.80449400  1
  H  2035  1  0.75654200  0.38107000  0.82753300  1
  H  2036  1  0.78183900  0.38258500  0.81683400  1
  H  2038  1  0.79040100  0.33673800  0.84302500  1
  H  2039  1  0.79696600  0.35902900  0.83512200  1
  H  2040  1  0.77183300  0.35447800  0.84510500  1
  H  2042  1  0.77554100  0.30070500  0.81934000  1
  H  2044  1  0.72783200  0.37590100  0.79876700  1
  H  2050  1  0.74065200  0.68188300  0.15743100  1
  H  2051  1  0.76429300  0.70411000  0.14539200  1
  H  2054  1  0.75955900  0.62567000  0.12802500  1
  H  2055  1  0.75661000  0.63380500  0.10499200  1
  H  2056  1  0.78189900  0.63224800  0.11570000  1
  H  2058  1  0.79051500  0.67810500  0.08952700  1
  H  2059  1  0.79706900  0.65581600  0.09743800  1
  H  2060  1  0.77194500  0.66036800  0.08743700  1
  H  2062  1  0.77558700  0.71413700  0.11318500  1
  H  2064  1  0.72785900  0.63894900  0.13378200  1
  H  2070  1  0.28271800  0.19860900  0.64071100  1
  H  2071  1  0.25908100  0.18657100  0.66295200  1
  H  2074  1  0.26374200  0.16922300  0.58451400  1
  H  2075  1  0.26666800  0.14617800  0.59262000  1
  H  2076  1  0.24139600  0.15692600  0.59112200  1
  H  2078  1  0.23285400  0.13070200  0.63696000  1
  H  2079  1  0.22628400  0.13861700  0.61467400  1
  H  2080  1  0.25141000  0.12861400  0.61921000  1
  H  2082  1  0.24775300  0.15437000  0.67299900  1
  H  2084  1  0.29546300  0.17491300  0.59777200  1
  H  2090  1  0.28264500  0.81628200  0.29183000  1
  H  2091  1  0.25901400  0.82831100  0.26958900  1
  H  2094  1  0.26367100  0.84569300  0.34802600  1
  H  2095  1  0.26667100  0.86872300  0.33989000  1
  H  2096  1  0.24136300  0.85804600  0.34142300  1
  H  2098  1  0.23280000  0.88419400  0.29555500  1
  H  2099  1  0.22621900  0.87629500  0.31784400  1
  H  2100  1  0.25135300  0.88628100  0.31330600  1
  H  2102  1  0.24769700  0.86050000  0.25953800  1
  H  2104  1  0.29537900  0.83990600  0.33480000  1
  H  2110  1  0.28268400  0.68186800  0.77508300  1
  H  2111  1  0.25905100  0.70411400  0.78712200  1
  H  2114  1  0.26367700  0.62568100  0.80448100  1
  H  2115  1  0.26668700  0.63378800  0.82751800  1
  H  2116  1  0.24138000  0.63230500  0.81683300  1
  H  2118  1  0.23288100  0.67815100  0.84302000  1
  H  2119  1  0.22628700  0.65586600  0.83512200  1
  H  2120  1  0.25142900  0.66039300  0.84509700  1
  H  2122  1  0.24772100  0.71417700  0.81931400  1
  H  2124  1  0.29540300  0.63886300  0.79871800  1
  H  2130  1  0.28264000  0.33300200  0.15738900  1
  H  2131  1  0.25900200  0.31076900  0.14535500  1
  H  2134  1  0.26367600  0.38921200  0.12799900  1
  H  2135  1  0.26666200  0.38108400  0.10496600  1
  H  2136  1  0.24135900  0.38261900  0.11565200  1
  H  2138  1  0.23277700  0.33676100  0.08948800  1
  H  2139  1  0.22620400  0.35905000  0.09739600  1
  H  2140  1  0.25133600  0.35450800  0.08740200  1
  H  2142  1  0.24768000  0.30073500  0.11316000  1
  H  2144  1  0.29538200  0.37597300  0.13377400  1
  H  2150  1  0.12156500  0.21163700  0.20297100  1
  H  2151  1  0.11180400  0.23922500  0.18739000  1
  H  2154  1  0.18916100  0.19564100  0.17845300  1
  H  2155  1  0.20117600  0.21738500  0.18234400  1
  H  2156  1  0.19080300  0.21122200  0.16029700  1
  H  2158  1  0.17477800  0.26248400  0.16021600  1
  H  2159  1  0.18418900  0.24180500  0.15034100  1
  H  2160  1  0.19310600  0.24926300  0.17245500  1
  H  2162  1  0.12881600  0.27012200  0.17733300  1
  H  2164  1  0.17354000  0.19241400  0.20602000  1
  H  2170  1  0.12161700  0.80325300  0.72958400  1
  H  2171  1  0.11183900  0.77565100  0.74513000  1
  H  2174  1  0.18918900  0.81921400  0.75418200  1
  H  2175  1  0.20121400  0.79748300  0.75022300  1
  H  2176  1  0.19083900  0.80358000  0.77228900  1
  H  2178  1  0.17479600  0.75233400  0.77227300  1
  H  2179  1  0.18420500  0.77299100  0.78219600  1
  H  2180  1  0.19313300  0.76558000  0.76007100  1
  H  2182  1  0.12882200  0.74474400  0.75518400  1
  H  2184  1  0.17360400  0.82250200  0.72662300  1
  H  2190  1  0.12155000  0.77073100  0.17044200  1
  H  2191  1  0.11180100  0.78631700  0.19802900  1
  H  2194  1  0.18915100  0.79523200  0.15442900  1
  H  2195  1  0.20117000  0.79133400  0.17617100  1
  H  2196  1  0.19080300  0.81338500  0.17001100  1
  H  2198  1  0.17478800  0.81347900  0.22127300  1
  H  2199  1  0.18419700  0.82334900  0.20059200  1
  H  2200  1  0.19310900  0.80123400  0.20805000  1
  H  2202  1  0.12882400  0.79637300  0.22892100  1
  H  2204  1  0.17351700  0.76767600  0.15119200  1
  H  2210  1  0.12161200  0.24410100  0.76208400  1
  H  2211  1  0.11183200  0.22855500  0.73448300  1
  H  2214  1  0.18917700  0.21948600  0.77805100  1
  H  2215  1  0.20120300  0.22345000  0.75632100  1
  H  2216  1  0.19082600  0.20138300  0.76241200  1
  H  2218  1  0.17478200  0.20139900  0.71117100  1
  H  2219  1  0.18418500  0.19147200  0.73182700  1
  H  2220  1  0.19312200  0.21359500  0.72441800  1
  H  2222  1  0.12881200  0.21849800  0.70357800  1
  H  2224  1  0.17359700  0.24704700  0.78134200  1
  H  2230  1  0.90172400  0.80322400  0.20300700  1
  H  2231  1  0.91147100  0.77564800  0.18739900  1
  H  2234  1  0.83413800  0.81927800  0.17851100  1
  H  2235  1  0.82211400  0.79753000  0.18235700  1
  H  2236  1  0.83250000  0.80373200  0.16032500  1
  H  2238  1  0.84849100  0.75245600  0.16017400  1
  H  2239  1  0.83909200  0.77315300  0.15033000  1
  H  2240  1  0.83017000  0.76566700  0.17243300  1
  H  2242  1  0.89443900  0.74477200  0.17731900  1
  H  2244  1  0.84976400  0.82244800  0.20608700  1
  H  2250  1  0.90162000  0.21161300  0.72959700  1
  H  2251  1  0.91139300  0.23921600  0.74513700  1
  H  2254  1  0.83405400  0.19563900  0.75420300  1
  H  2255  1  0.82202600  0.21736800  0.75024800  1
  H  2256  1  0.83240700  0.21127000  0.77231200  1
  H  2258  1  0.84843900  0.26251900  0.77229900  1
  H  2259  1  0.83903800  0.24185900  0.78222100  1
  H  2260  1  0.83010200  0.24927200  0.76009900  1
  H  2262  1  0.89439800  0.27012100  0.75519000  1
  H  2264  1  0.84964400  0.19233900  0.72665000  1
  H  2270  1  0.90165800  0.24411100  0.17042500  1
  H  2271  1  0.91139900  0.22857300  0.19804000  1
  H  2274  1  0.83413000  0.21946800  0.15438500  1
  H  2275  1  0.82206400  0.22343500  0.17609700  1
  H  2276  1  0.83246400  0.20137100  0.17002800  1
  H  2278  1  0.84842500  0.20140300  0.22128700  1
  H  2279  1  0.83905800  0.19147200  0.20061900  1
  H  2280  1  0.83009700  0.21359100  0.20801700  1
  H  2282  1  0.89437300  0.21851500  0.22893500  1
  H  2284  1  0.84970600  0.24701800  0.15109700  1
  H  2290  1  0.90165800  0.77074800  0.76203400  1
  H  2291  1  0.91140600  0.78627900  0.73441800  1
  H  2294  1  0.83413800  0.79540400  0.77807600  1
  H  2295  1  0.82207200  0.79145000  0.75636300  1
  H  2296  1  0.83248300  0.81350800  0.76244000  1
  H  2298  1  0.84843900  0.81346700  0.71117300  1
  H  2299  1  0.83907300  0.82340100  0.73184000  1
  H  2300  1  0.83011000  0.80128200  0.72444300  1
  H  2302  1  0.89438400  0.79634200  0.70352900  1
  H  2304  1  0.84970600  0.76783900  0.78134400  1
  H  2310  1  0.62104300  0.71195900  0.70227200  1
  H  2311  1  0.61104000  0.73926900  0.68631400  1
  H  2314  1  0.68983100  0.69738800  0.67956000  1
  H  2315  1  0.70116400  0.71937000  0.68369800  1
  H  2316  1  0.69161200  0.71298500  0.66142900  1
  H  2318  1  0.67429900  0.76396600  0.66103600  1
  H  2319  1  0.68488900  0.74353400  0.65158200  1
  H  2320  1  0.69245400  0.75123500  0.67399100  1
  H  2322  1  0.62738700  0.77052200  0.67673200  1
  H  2324  1  0.67355800  0.69404700  0.70682000  1
  H  2330  1  0.62109500  0.30293900  0.23027300  1
  H  2331  1  0.61107800  0.27562000  0.24620400  1
  H  2334  1  0.68986700  0.31748300  0.25304600  1
  H  2335  1  0.70120500  0.29550900  0.24887000  1
  H  2336  1  0.69164400  0.30185400  0.27114800  1
  H  2338  1  0.67431800  0.25088100  0.27147000  1
  H  2339  1  0.68490800  0.27129800  0.28095700  1
  H  2340  1  0.69248300  0.26362800  0.25854000  1
  H  2342  1  0.62740300  0.24436000  0.25578300  1
  H  2344  1  0.67362100  0.32086400  0.22578700  1
  H  2350  1  0.62104700  0.27142700  0.67076400  1
  H  2351  1  0.61106000  0.28738700  0.69807600  1
  H  2354  1  0.68983200  0.29413400  0.65616400  1
  H  2355  1  0.70117300  0.29000000  0.67814200  1
  H  2356  1  0.69161800  0.31226700  0.67175600  1
  H  2358  1  0.67433100  0.31267100  0.72274300  1
  H  2359  1  0.68491000  0.32212100  0.70230400  1
  H  2360  1  0.69248000  0.29971500  0.71000600  1
  H  2362  1  0.62742600  0.29696900  0.72932100  1
  H  2364  1  0.67355000  0.26688000  0.65282200  1
  H  2370  1  0.62110400  0.74342900  0.26175800  1
  H  2371  1  0.61108500  0.72750300  0.23443500  1
  H  2374  1  0.68985900  0.72062600  0.27631600  1
  H  2375  1  0.70120500  0.72480600  0.25434700  1
  H  2376  1  0.69163600  0.70252900  0.26068200  1
  H  2378  1  0.67432100  0.70221700  0.20970900  1
  H  2379  1  0.68489700  0.69272100  0.23012700  1
  H  2380  1  0.69249100  0.71513400  0.22246300  1
  H  2382  1  0.62741400  0.71791900  0.20318000  1
  H  2384  1  0.67362600  0.74788700  0.27970100  1
  H  2390  1  0.40222300  0.30291000  0.70231000  1
  H  2391  1  0.41221000  0.27560800  0.68633300  1
  H  2394  1  0.33345200  0.31754400  0.67959800  1
  H  2395  1  0.32210400  0.29556000  0.68369200  1
  H  2396  1  0.33167500  0.30197900  0.66143800  1
  H  2398  1  0.34894600  0.25098100  0.66099200  1
  H  2399  1  0.33837600  0.27143100  0.65156100  1
  H  2400  1  0.33079500  0.26370700  0.67395800  1
  H  2402  1  0.39583900  0.24437500  0.67672900  1
  H  2404  1  0.34972500  0.32082800  0.70687300  1
  H  2410  1  0.40212800  0.71193600  0.23028000  1
  H  2411  1  0.41213900  0.73926300  0.24620100  1
  H  2414  1  0.33333333  0.69737400  0.25307100  1
  H  2415  1  0.32202100  0.71934400  0.24889200  1
  H  2416  1  0.33159000  0.71300600  0.27116900  1
  H  2418  1  0.34889500  0.76398300  0.27148100  1
  H  2419  1  0.33831900  0.74356300  0.28097400  1
  H  2420  1  0.33073000  0.75122800  0.25855800  1
  H  2422  1  0.39579600  0.77051900  0.25577700  1
  H  2424  1  0.34961200  0.69397800  0.22581800  1
  H  2430  1  0.40219900  0.74347700  0.67079400  1
  H  2431  1  0.41216400  0.72752700  0.69811800  1
  H  2434  1  0.33346000  0.72071600  0.65612100  1
  H  2435  1  0.32207900  0.72484900  0.67808500  1
  H  2436  1  0.33166700  0.70258500  0.67171600  1
  H  2438  1  0.34888100  0.70220400  0.72272200  1
  H  2439  1  0.33833600  0.69274400  0.70227400  1
  H  2440  1  0.33073800  0.71514800  0.70996600  1
  H  2442  1  0.39576100  0.71793700  0.72934900  1
  H  2444  1  0.34971800  0.74797900  0.65280500  1
  H  2450  1  0.40217700  0.27143200  0.26170500  1
  H  2451  1  0.41215600  0.28735100  0.23436700  1
  H  2454  1  0.33345500  0.29426300  0.27634500  1
  H  2455  1  0.32207000  0.29009000  0.25439000  1
  H  2456  1  0.33166700  0.31236200  0.26071400  1
  H  2458  1  0.34889300  0.31265700  0.20971600  1
  H  2459  1  0.33835000  0.32215700  0.23014700  1
  H  2460  1  0.33074000  0.29974400  0.22249200  1
  H  2462  1  0.39578000  0.29693800  0.20312900  1
  H  2464  1  0.34968500  0.26700100  0.27970600  1
  H  2470  1  0.98707800  0.12451000  0.21805200  1
  H  2471  1  0.02276300  0.12566600  0.20812900  1
  H  2474  1  0.98895100  0.09690500  0.27805200  1
  H  2475  1  0.01585900  0.09754800  0.28245300  1
  H  2476  1  0.00462100  0.07767900  0.27173000  1
  H  2478  1  0.06120600  0.08648700  0.24898700  1
  H  2479  1  0.04010400  0.07426400  0.25850400  1
  H  2480  1  0.05020100  0.09419500  0.26994500  1
  H  2482  1  0.05501800  0.10350200  0.20838700  1
  H  2484  1  0.96625500  0.09647600  0.25421800  1
  H  2490  1  0.98708000  0.89034000  0.71441200  1
  H  2491  1  0.02276300  0.88918600  0.72433300  1
  H  2494  1  0.98894000  0.91794600  0.65441300  1
  H  2495  1  0.01584800  0.91730500  0.65000500  1
  H  2496  1  0.00461300  0.93717000  0.66073600  1
  H  2498  1  0.06120300  0.92835600  0.68346800  1
  H  2499  1  0.04009800  0.94058300  0.67395900  1
  H  2500  1  0.05019200  0.92065500  0.66250900  1
  H  2502  1  0.05500700  0.91135800  0.72406800  1
  H  2504  1  0.96625300  0.91838400  0.67825900  1
  H  2510  1  0.98708900  0.75587600  0.08323500  1
  H  2511  1  0.02282700  0.76565200  0.08442100  1
  H  2514  1  0.98860900  0.69588600  0.05562900  1
  H  2515  1  0.01547900  0.69129900  0.05644400  1
  H  2516  1  0.00448600  0.70206100  0.03649100  1
  H  2518  1  0.06114300  0.72451100  0.04542700  1
  H  2519  1  0.04001000  0.71513200  0.03313600  1
  H  2520  1  0.04992800  0.70362700  0.05309900  1
  H  2522  1  0.05504700  0.76524700  0.06223100  1
  H  2524  1  0.96613900  0.71994700  0.05507000  1
  H  2530  1  0.98708900  0.25926400  0.84918100  1
  H  2531  1  0.02277400  0.24934800  0.84803000  1
  H  2534  1  0.98893500  0.31926700  0.87678000  1
  H  2535  1  0.01584100  0.32368100  0.87613400  1
  H  2536  1  0.00461100  0.31295100  0.89600300  1
  H  2538  1  0.06120500  0.29022700  0.88719400  1
  H  2539  1  0.04009800  0.29973300  0.89942000  1
  H  2540  1  0.05018800  0.31118200  0.87949200  1
  H  2542  1  0.05501600  0.24962200  0.87020600  1
  H  2544  1  0.96625500  0.29541600  0.87721900  1
  H  2550  1  0.03616200  0.89043300  0.21790600  1
  H  2551  1  0.00044700  0.88927900  0.20806400  1
  H  2554  1  0.03448400  0.91794200  0.27794400  1
  H  2555  1  0.00759500  0.91721700  0.28243900  1
  H  2556  1  0.01872000  0.93714100  0.27172800  1
  H  2558  1  0.96209100  0.92832400  0.24911900  1
  H  2559  1  0.98321600  0.94056000  0.25858000  1
  H  2560  1  0.97319900  0.92060400  0.27002900  1
  H  2562  1  0.96821200  0.91145000  0.20843000  1
  H  2564  1  0.05703700  0.91849500  0.25397700  1
  H  2570  1  0.03618600  0.12449100  0.71430200  1
  H  2571  1  0.00053300  0.12566300  0.72430300  1
  H  2574  1  0.03408600  0.09700100  0.65425800  1
  H  2575  1  0.00715700  0.09756400  0.64995200  1
  H  2576  1  0.01851900  0.07772300  0.66062600  1
  H  2578  1  0.96197800  0.08646600  0.68355100  1
  H  2579  1  0.98305200  0.07428200  0.67393800  1
  H  2580  1  0.97286700  0.09421300  0.66255900  1
  H  2582  1  0.96824500  0.10355400  0.72410000  1
  H  2584  1  0.05685100  0.09648000  0.67802800  1
  H  2590  1  0.03615700  0.25906600  0.08328900  1
  H  2591  1  0.00042800  0.24926300  0.08444000  1
  H  2594  1  0.03461200  0.31903400  0.05561600  1
  H  2595  1  0.00773600  0.32359200  0.05638600  1
  H  2596  1  0.01878200  0.31281400  0.03646400  1
  H  2598  1  0.96212600  0.29033700  0.04536900  1
  H  2599  1  0.98326400  0.29972200  0.03309000  1
  H  2600  1  0.97330800  0.31123600  0.05303400  1
  H  2602  1  0.96822300  0.24963500  0.06221600  1
  H  2604  1  0.05715100  0.29504200  0.05517700  1
  H  2610  1  0.03617500  0.75561800  0.84917400  1
  H  2611  1  0.00049000  0.76553700  0.84802200  1
  H  2614  1  0.03432200  0.69561100  0.87676200  1
  H  2615  1  0.00741500  0.69119900  0.87611600  1
  H  2616  1  0.01864500  0.70192400  0.89598700  1
  H  2618  1  0.96205300  0.72465200  0.88717600  1
  H  2619  1  0.98315800  0.71514400  0.89940200  1
  H  2620  1  0.97306900  0.70369700  0.87947100  1
  H  2622  1  0.96824700  0.76526200  0.87019100  1
  H  2624  1  0.05700400  0.71945900  0.87720700  1
  H  2630  1  0.48844900  0.62414400  0.71102900  1
  H  2631  1  0.52452400  0.62538200  0.70211600  1
  H  2634  1  0.48790700  0.59498800  0.77032800  1
  H  2635  1  0.51456000  0.59642700  0.77574000  1
  H  2636  1  0.50459200  0.57633900  0.76447500  1
  H  2638  1  0.56147900  0.58563900  0.74349300  1
  H  2639  1  0.54002500  0.57303800  0.75185000  1
  H  2640  1  0.54938700  0.59268300  0.76421700  1
  H  2642  1  0.55684100  0.60314900  0.70293200  1
  H  2644  1  0.46644500  0.59495600  0.74546200  1
  H  2650  1  0.48844900  0.39070200  0.22130900  1
  H  2651  1  0.52449000  0.38946500  0.23032400  1
  H  2654  1  0.48815400  0.41983300  0.16199300  1
  H  2655  1  0.51483900  0.41847000  0.15669700  1
  H  2656  1  0.50474100  0.43852900  0.16792500  1
  H  2658  1  0.56156400  0.42929500  0.18912000  1
  H  2659  1  0.54013000  0.44186300  0.18067400  1
  H  2660  1  0.54960100  0.42223700  0.16834200  1
  H  2662  1  0.55684600  0.41165500  0.22959600  1
  H  2664  1  0.46656800  0.41985400  0.18675400  1
  H  2670  1  0.48844700  0.26271400  0.58287500  1
  H  2671  1  0.52453000  0.27159600  0.58414500  1
  H  2674  1  0.48786500  0.20341000  0.55374400  1
  H  2675  1  0.51450500  0.19795900  0.55523600  1
  H  2676  1  0.50460300  0.20922300  0.53512100  1
  H  2678  1  0.56149300  0.23015200  0.54447300  1
  H  2679  1  0.54004600  0.22181500  0.53185100  1
  H  2680  1  0.54936000  0.20944400  0.55151200  1
  H  2682  1  0.55685500  0.27074900  0.56193100  1
  H  2684  1  0.46649700  0.22834900  0.55362100  1
  H  2690  1  0.48845800  0.75237400  0.34953300  1
  H  2691  1  0.52450300  0.74336600  0.34829900  1
  H  2694  1  0.48814600  0.81169200  0.37866200  1
  H  2695  1  0.51482900  0.81699300  0.37730000  1
  H  2696  1  0.50473300  0.80576500  0.39735900  1
  H  2698  1  0.56156200  0.78458000  0.38813000  1
  H  2699  1  0.54012500  0.79302200  0.40069700  1
  H  2700  1  0.54959300  0.80535600  0.38107000  1
  H  2702  1  0.55685500  0.74410300  0.37049300  1
  H  2704  1  0.46656500  0.78693000  0.37867900  1
  H  2710  1  0.53478600  0.39077800  0.71104300  1
  H  2711  1  0.49871800  0.38954600  0.70210700  1
  H  2714  1  0.53526600  0.41984100  0.77038500  1
  H  2715  1  0.50860500  0.41841300  0.77576500  1
  H  2716  1  0.51860700  0.43851400  0.76454400  1
  H  2718  1  0.46174100  0.42927200  0.74348300  1
  H  2719  1  0.48319100  0.44184900  0.75188200  1
  H  2720  1  0.47379600  0.42219600  0.76421400  1
  H  2722  1  0.46638800  0.41176200  0.70292500  1
  H  2724  1  0.55669500  0.41995200  0.74551100  1
  H  2730  1  0.53480000  0.62412900  0.22122900  1
  H  2731  1  0.49877800  0.62538900  0.23030500  1
  H  2734  1  0.53491000  0.59504400  0.16189000  1
  H  2735  1  0.50820600  0.59637300  0.15667000  1
  H  2736  1  0.51837900  0.57632200  0.16786200  1
  H  2738  1  0.46160300  0.58552700  0.18920400  1
  H  2739  1  0.48301500  0.57297700  0.18069100  1
  H  2740  1  0.47348400  0.59260400  0.16839300  1
  H  2742  1  0.46638100  0.60325000  0.22963400  1
  H  2744  1  0.55654500  0.59496600  0.18660700  1
  H  2750  1  0.53480000  0.75222600  0.58295000  1
  H  2751  1  0.49872400  0.74331700  0.58418900  1
  H  2754  1  0.53535500  0.81150700  0.55375700  1
  H  2755  1  0.50870500  0.81692700  0.55520500  1
  H  2756  1  0.51865900  0.80565200  0.53511700  1
  H  2758  1  0.46177200  0.78468400  0.54443300  1
  H  2759  1  0.48322700  0.79303200  0.53182500  1
  H  2760  1  0.47387200  0.80541000  0.55146700  1
  H  2762  1  0.46641100  0.74412600  0.56194200  1
  H  2764  1  0.55681100  0.78663700  0.55374100  1
  H  2770  1  0.53479400  0.26252000  0.34954100  1
  H  2771  1  0.49875100  0.27153200  0.34830300  1
  H  2774  1  0.53509500  0.20320600  0.37867800  1
  H  2775  1  0.50841100  0.19790700  0.37731100  1
  H  2776  1  0.51850400  0.20913500  0.39737000  1
  H  2778  1  0.46168000  0.23032700  0.38813300  1
  H  2779  1  0.48311500  0.22188500  0.40070500  1
  H  2780  1  0.47364800  0.20955000  0.38107900  1
  H  2782  1  0.46639700  0.27080300  0.37049300  1
  H  2784  1  0.55668000  0.22796600  0.37869300  1
  C  1  1  0.12329000  0.12587300  0.25132700  1
  C  2  1  0.11445100  0.13459600  0.26718400  1
  C  3  1  0.15111600  0.14266600  0.27909600  1
  C  4  1  0.16072200  0.13370700  0.26368900  1
  C  5  1  0.18332000  0.13468200  0.26248500  1
  C  6  1  0.19597800  0.14448600  0.27554100  1
  C  7  1  0.18581800  0.15309300  0.29056100  1
  C  8  1  0.16372600  0.15198000  0.29241300  1
  C  9  1  0.09218800  0.13572400  0.26930300  1
  C  10  1  0.07840400  0.12852300  0.25582600  1
  C  11  1  0.08657700  0.11973400  0.23997100  1
  C  12  1  0.10887000  0.11851200  0.23798200  1
  C  13  1  0.15231800  0.13447100  0.23063600  1
  C  14  1  0.16270100  0.12483500  0.21604300  1
  C  15  1  0.16086600  0.09452200  0.23343800  1
  C  16  1  0.15198500  0.10342700  0.24919000  1
  C  17  1  0.16331100  0.07503600  0.23286400  1
  C  18  1  0.15682000  0.06388600  0.24767700  1
  C  19  1  0.14881100  0.07194900  0.26394700  1
  C  20  1  0.14654200  0.09162900  0.26446500  1
  C  21  1  0.14702800  0.15356400  0.22733300  1
  C  22  1  0.15220200  0.16279100  0.21047400  1
  C  23  1  0.16284500  0.15258000  0.19668500  1
  C  24  1  0.16817600  0.13400800  0.19944800  1
  C  37  1  0.14721000  0.12433100  0.24878600  1
  C  38  1  0.16757500  0.10482400  0.21678000  1
  C  41  1  0.12783700  0.14301200  0.28181300  1
  C  48  1  0.12330100  0.88898100  0.68115000  1
  C  49  1  0.11446600  0.88024800  0.66529800  1
  C  50  1  0.15113300  0.87218200  0.65339000  1
  C  51  1  0.16073600  0.88115600  0.66878800  1
  C  52  1  0.18333600  0.88018900  0.66998900  1
  C  53  1  0.19599700  0.87038400  0.65693600  1
  C  54  1  0.18583700  0.86176000  0.64192600  1
  C  55  1  0.16374300  0.86285900  0.64007800  1
  C  56  1  0.09220300  0.87911700  0.66317700  1
  C  57  1  0.07841600  0.88632300  0.67664700  1
  C  58  1  0.08658500  0.89511900  0.69250000  1
  C  59  1  0.10887700  0.89634400  0.69449200  1
  C  60  1  0.15233600  0.88039400  0.70184200  1
  C  61  1  0.16272200  0.89003400  0.71643000  1
  C  62  1  0.16085700  0.92034700  0.69903800  1
  C  63  1  0.15198800  0.91143500  0.68328300  1
  C  64  1  0.16329200  0.93983300  0.69961100  1
  C  65  1  0.15680100  0.95098000  0.68479400  1
  C  66  1  0.14880500  0.94291200  0.66852200  1
  C  67  1  0.14654900  0.92322900  0.66800400  1
  C  68  1  0.14705100  0.86130100  0.70515300  1
  C  69  1  0.15224700  0.85207600  0.72200700  1
  C  70  1  0.16289400  0.86229200  0.73579100  1
  C  71  1  0.16820300  0.88086800  0.73302800  1
  C  84  1  0.14722100  0.89053000  0.68369100  1
  C  85  1  0.16757100  0.91005000  0.71569500  1
  C  88  1  0.12785400  0.87182600  0.65067600  1
  C  95  1  0.12328900  0.72234400  0.08468900  1
  C  96  1  0.11445700  0.70649300  0.09342800  1
  C  97  1  0.15113000  0.69459600  0.10149500  1
  C  98  1  0.16072700  0.71000100  0.09252500  1
  C  99  1  0.18332500  0.71121100  0.09349000  1
  C  100  1  0.19599300  0.69816200  0.10329200  1
  C  101  1  0.18584200  0.68314500  0.11191400  1
  C  102  1  0.16374800  0.68129400  0.11082300  1
  C  103  1  0.09219500  0.70436800  0.09456000  1
  C  104  1  0.07840400  0.71782900  0.08733800  1
  C  105  1  0.08657100  0.73367900  0.07853900  1
  C  106  1  0.10886200  0.73567700  0.07731600  1
  C  107  1  0.15230300  0.74305000  0.09327900  1
  C  108  1  0.16267900  0.75764500  0.08363900  1
  C  109  1  0.16084900  0.74024200  0.05333000  1
  C  110  1  0.15198100  0.72448700  0.06224000  1
  C  111  1  0.16329000  0.74081300  0.03384400  1
  C  112  1  0.15680400  0.72599500  0.02269700  1
  C  113  1  0.14880400  0.70972500  0.03076500  1
  C  114  1  0.14654800  0.70920600  0.05044700  1
  C  115  1  0.14700900  0.74635800  0.11237100  1
  C  116  1  0.15214400  0.76323400  0.12157900  1
  C  117  1  0.16279100  0.77702200  0.11137000  1
  C  118  1  0.16813700  0.77425000  0.09280300  1
  C  131  1  0.14720700  0.72489500  0.08314400  1
  C  132  1  0.16754900  0.75690600  0.06362700  1
  C  135  1  0.12785200  0.69187700  0.10185300  1
  C  142  1  0.12329900  0.29254100  0.84780700  1
  C  143  1  0.11446100  0.30839100  0.83907700  1
  C  144  1  0.15112600  0.32029900  0.83100300  1
  C  145  1  0.16073200  0.30489900  0.83997300  1
  C  146  1  0.18333000  0.30370000  0.83900900  1
  C  147  1  0.19599100  0.31675300  0.82920200  1
  C  148  1  0.18583100  0.33176200  0.82057600  1
  C  149  1  0.16373500  0.33360500  0.82167100  1
  C  150  1  0.09219800  0.31051400  0.83795200  1
  C  151  1  0.07841300  0.29704400  0.84516400  1
  C  152  1  0.08658500  0.28119000  0.85395400  1
  C  153  1  0.10887700  0.27919800  0.85517500  1
  C  154  1  0.15233000  0.27184500  0.83922200  1
  C  155  1  0.16271900  0.25726100  0.84886500  1
  C  156  1  0.16087100  0.27466500  0.87917100  1
  C  157  1  0.15198900  0.29041200  0.87025900  1
  C  158  1  0.16331400  0.27409700  0.89865800  1
  C  159  1  0.15679000  0.28890100  0.90980500  1
  C  160  1  0.14877400  0.30516600  0.90173500  1
  C  161  1  0.14653100  0.30568500  0.88205300  1
  C  162  1  0.14704000  0.26853000  0.82013100  1
  C  163  1  0.15222900  0.25167300  0.81090800  1
  C  164  1  0.16286600  0.23788800  0.82113100  1
  C  165  1  0.16817600  0.24065300  0.83970600  1
  C  178  1  0.14721900  0.29000000  0.84935400  1
  C  179  1  0.16758700  0.25800500  0.86887700  1
  C  182  1  0.12784800  0.32301400  0.83065100  1
  C  189  1  0.89995600  0.88901400  0.25134100  1
  C  190  1  0.90878900  0.88027900  0.26719200  1
  C  191  1  0.87212000  0.87220700  0.27909100  1
  C  192  1  0.86251900  0.88117200  0.26368600  1
  C  193  1  0.83992100  0.88019400  0.26247600  1
  C  194  1  0.82725800  0.87039100  0.27552600  1
  C  195  1  0.83741200  0.86177800  0.29054800  1
  C  196  1  0.85950600  0.86288000  0.29239800  1
  C  197  1  0.93105100  0.87914500  0.26931300  1
  C  198  1  0.94484000  0.88636600  0.25585100  1
  C  199  1  0.93667200  0.89516200  0.23999800  1
  C  200  1  0.91437900  0.89638600  0.23800400  1
  C  201  1  0.87094500  0.88041200  0.23063600  1
  C  202  1  0.86056200  0.89004700  0.21604000  1
  C  203  1  0.86237800  0.92036000  0.23343900  1
  C  204  1  0.87125400  0.91145500  0.24919400  1
  C  205  1  0.85992600  0.93984400  0.23286700  1
  C  206  1  0.86639700  0.95099500  0.24768600  1
  C  207  1  0.87440300  0.94293200  0.26395800  1
  C  208  1  0.87667400  0.92325200  0.26447600  1
  C  209  1  0.87625100  0.86132300  0.22733100  1
  C  210  1  0.87111200  0.85210700  0.21046100  1
  C  211  1  0.86045500  0.86230600  0.19667300  1
  C  212  1  0.85512200  0.88087800  0.19943400  1
  C  225  1  0.87603600  0.89055300  0.24879100  1
  C  226  1  0.85568100  0.91005600  0.21677800  1
  C  229  1  0.89539700  0.87185300  0.28181100  1
  C  236  1  0.89993300  0.12589200  0.68117300  1
  C  237  1  0.90877000  0.13462600  0.66532300  1
  C  238  1  0.87210400  0.14269600  0.65341300  1
  C  239  1  0.86250000  0.13371900  0.66881100  1
  C  240  1  0.83990100  0.13468200  0.67000800  1
  C  241  1  0.82724100  0.14448800  0.65695500  1
  C  242  1  0.83739900  0.15311400  0.64194600  1
  C  243  1  0.85949500  0.15202100  0.64010400  1
  C  244  1  0.93103300  0.13576100  0.66320500  1
  C  245  1  0.94481900  0.12855800  0.67667800  1
  C  246  1  0.93664900  0.11975300  0.69252500  1
  C  247  1  0.91435700  0.11852700  0.69451600  1
  C  248  1  0.87090100  0.13447300  0.70186700  1
  C  249  1  0.86050700  0.12483000  0.71644900  1
  C  250  1  0.86235800  0.09452300  0.69904600  1
  C  251  1  0.87124600  0.10343600  0.68330100  1
  C  252  1  0.85992900  0.07503700  0.69961600  1
  C  253  1  0.86643900  0.06389100  0.68480700  1
  C  254  1  0.87445900  0.07196100  0.66854400  1
  C  255  1  0.87670400  0.09164400  0.66802600  1
  C  256  1  0.87619700  0.15356300  0.70518500  1
  C  257  1  0.87103200  0.16277300  0.72205400  1
  C  258  1  0.86037100  0.15255900  0.73583100  1
  C  259  1  0.85504800  0.13398800  0.73305700  1
  C  272  1  0.87601300  0.12434200  0.68371200  1
  C  273  1  0.85563400  0.10481900  0.71570200  1
  C  276  1  0.89538300  0.14305000  0.65069900  1
  C  283  1  0.89997000  0.29253800  0.08466700  1
  C  284  1  0.90880100  0.30838900  0.09340500  1
  C  285  1  0.87213100  0.32028300  0.10148100  1
  C  286  1  0.86253200  0.30488100  0.09250700  1
  C  287  1  0.83993400  0.30367100  0.09347700  1
  C  288  1  0.82726900  0.31671900  0.10328600  1
  C  289  1  0.83742100  0.33173300  0.11190800  1
  C  290  1  0.85951600  0.33358800  0.11080800  1
  C  291  1  0.93106400  0.31051500  0.09453200  1
  C  292  1  0.94485400  0.29705300  0.08731100  1
  C  293  1  0.93668700  0.28120300  0.07851300  1
  C  294  1  0.91439700  0.27920400  0.07729300  1
  C  295  1  0.87095600  0.27182700  0.09325300  1
  C  296  1  0.86057800  0.25723800  0.08360700  1
  C  297  1  0.86238300  0.27465800  0.05330700  1
  C  298  1  0.87127600  0.29040100  0.06221800  1
  C  299  1  0.85992400  0.27409800  0.03382300  1
  C  300  1  0.86640300  0.28892100  0.02267900  1
  C  301  1  0.87442100  0.30518400  0.03074900  1
  C  302  1  0.87670500  0.30568700  0.05042900  1
  C  303  1  0.87625700  0.26850900  0.11234200  1
  C  304  1  0.87114300  0.25162000  0.12154000  1
  C  305  1  0.86046100  0.23785200  0.11133200  1
  C  306  1  0.85512400  0.24063000  0.09276500  1
  C  319  1  0.87605100  0.28998700  0.08312300  1
  C  320  1  0.85567600  0.25799500  0.06360200  1
  C  323  1  0.89540800  0.32300500  0.10183100  1
  C  330  1  0.89995900  0.72235100  0.84779100  1
  C  331  1  0.90879500  0.70649900  0.83905700  1
  C  332  1  0.87213000  0.69459400  0.83098400  1
  C  333  1  0.86252600  0.70999200  0.83995700  1
  C  334  1  0.83992400  0.71119000  0.83899800  1
  C  335  1  0.82726500  0.69814100  0.82918600  1
  C  336  1  0.83742300  0.68313100  0.82056000  1
  C  337  1  0.85951900  0.68128600  0.82165700  1
  C  338  1  0.93105700  0.70437900  0.83792600  1
  C  339  1  0.94484400  0.71784500  0.84514100  1
  C  340  1  0.93667500  0.73369700  0.85393900  1
  C  341  1  0.91438200  0.73569100  0.85515900  1
  C  342  1  0.87093100  0.74304800  0.83920300  1
  C  343  1  0.86053200  0.75763000  0.84884300  1
  C  344  1  0.86235600  0.74022200  0.87914800  1
  C  345  1  0.87127000  0.72448400  0.87024100  1
  C  346  1  0.85991200  0.74079200  0.89863200  1
  C  347  1  0.86642500  0.72598700  0.90978100  1
  C  348  1  0.87446300  0.70972900  0.90171700  1
  C  349  1  0.87672700  0.70921200  0.88203700  1
  C  350  1  0.87624000  0.74636600  0.82011700  1
  C  351  1  0.87112100  0.76325400  0.81091700  1
  C  352  1  0.86041500  0.77701500  0.82111600  1
  C  353  1  0.85506500  0.77423300  0.83968000  1
  C  366  1  0.87603900  0.72489300  0.84933600  1
  C  367  1  0.85563000  0.75687600  0.86884600  1
  C  370  1  0.89540700  0.69187800  0.83063100  1
  C  377  1  0.90055700  0.88725900  0.67267300  1
  C  378  1  0.90411000  0.88389200  0.65348300  1
  C  379  1  0.86610500  0.87476700  0.64844900  1
  C  380  1  0.86084400  0.87968300  0.66696100  1
  C  381  1  0.83932600  0.87643800  0.67238000  1
  C  382  1  0.82416000  0.86775500  0.66058200  1
  C  383  1  0.83066200  0.86222400  0.64282000  1
  C  384  1  0.85111700  0.86626500  0.63661300  1
  C  385  1  0.92457400  0.88524700  0.64577900  1
  C  386  1  0.94202900  0.88900400  0.65698400  1
  C  387  1  0.93964500  0.89191800  0.67617200  1
  C  388  1  0.91886800  0.89115400  0.68381000  1
  C  389  1  0.87818600  0.87238000  0.69626000  1
  C  390  1  0.87171600  0.87742000  0.71442800  1
  C  391  1  0.86426900  0.91013300  0.70413900  1
  C  392  1  0.87219100  0.90662100  0.68600700  1
  C  393  1  0.85772000  0.92803700  0.70949500  1
  C  394  1  0.86028200  0.94309600  0.69760900  1
  C  395  1  0.86900600  0.94093100  0.67974500  1
  C  396  1  0.87460900  0.92255600  0.67413200  1
  C  397  1  0.88397400  0.85338100  0.69360700  1
  C  398  1  0.88404500  0.84015600  0.70826200  1
  C  399  1  0.87895800  0.84625600  0.72621800  1
  C  400  1  0.87241900  0.86453100  0.72917900  1
  C  413  1  0.87796200  0.88663600  0.68044300  1
  C  414  1  0.86338200  0.89595100  0.71886700  1
  C  417  1  0.88732300  0.87789700  0.64059300  1
  C  424  1  0.90057300  0.12759800  0.25979600  1
  C  425  1  0.90413700  0.13099400  0.27898100  1
  C  426  1  0.86613400  0.14011800  0.28401500  1
  C  427  1  0.86086200  0.13516200  0.26551400  1
  C  428  1  0.83934000  0.13839700  0.26010400  1
  C  429  1  0.82417700  0.14709300  0.27189700  1
  C  430  1  0.83069400  0.15266600  0.28964200  1
  C  431  1  0.85115300  0.14863800  0.29584400  1
  C  432  1  0.92460400  0.12965800  0.28667800  1
  C  433  1  0.94205600  0.12589100  0.27547300  1
  C  434  1  0.93966100  0.12295200  0.25629000  1
  C  435  1  0.91888200  0.12369800  0.24865800  1
  C  436  1  0.87819200  0.14246700  0.23621400  1
  C  437  1  0.87169300  0.13743300  0.21805300  1
  C  438  1  0.86423200  0.10471700  0.22834700  1
  C  439  1  0.87220400  0.10821600  0.24646700  1
  C  440  1  0.85760500  0.08682800  0.22301000  1
  C  441  1  0.86016600  0.07175400  0.23488200  1
  C  442  1  0.86903400  0.07389900  0.25268500  1
  C  443  1  0.87466800  0.09226400  0.25831600  1
  C  444  1  0.88398000  0.16146900  0.23886200  1
  C  445  1  0.88403400  0.17469600  0.22420800  1
  C  446  1  0.87893600  0.16859400  0.20625500  1
  C  447  1  0.87237700  0.15032300  0.20330300  1
  C  460  1  0.87797700  0.12820700  0.25203200  1
  C  461  1  0.86331900  0.11891100  0.21363000  1
  C  464  1  0.88735600  0.13700800  0.29186600  1
  C  471  1  0.90056800  0.30100500  0.84609700  1
  C  472  1  0.90412700  0.32018900  0.84269600  1
  C  473  1  0.86611800  0.32522300  0.83359300  1
  C  474  1  0.86085500  0.30671500  0.83852600  1
  C  475  1  0.83933500  0.30129800  0.83528900  1
  C  476  1  0.82416900  0.31309100  0.82660200  1
  C  477  1  0.83067300  0.33084700  0.82105000  1
  C  478  1  0.85113600  0.33704800  0.82506800  1
  C  479  1  0.92459300  0.32789100  0.84403800  1
  C  480  1  0.94204400  0.31669200  0.84782900  1
  C  481  1  0.93965600  0.29750700  0.85074500  1
  C  482  1  0.91887900  0.28987000  0.84999500  1
  C  483  1  0.87819000  0.27741700  0.83123000  1
  C  484  1  0.87169700  0.25925500  0.83627100  1
  C  485  1  0.86422000  0.26956000  0.86898000  1
  C  486  1  0.87219800  0.28767800  0.86547900  1
  C  487  1  0.85759200  0.26422700  0.88687100  1
  C  488  1  0.86013200  0.27610800  0.90194100  1
  C  489  1  0.86902500  0.29389900  0.89979500  1
  C  490  1  0.87466400  0.29952800  0.88143100  1
  C  491  1  0.88398800  0.28006200  0.81223200  1
  C  492  1  0.88403900  0.26540600  0.79900500  1
  C  493  1  0.87892300  0.24745700  0.80510600  1
  C  494  1  0.87238300  0.24450300  0.82338100  1
  C  507  1  0.87797200  0.29323700  0.84548800  1
  C  508  1  0.86332700  0.25483300  0.85479400  1
  C  511  1  0.88733700  0.33307800  0.83670900  1
  C  518  1  0.90059800  0.71394000  0.08640200  1
  C  519  1  0.90418900  0.69476100  0.08980400  1
  C  520  1  0.86619700  0.68969600  0.09895200  1
  C  521  1  0.86090600  0.70819600  0.09401100  1
  C  522  1  0.83938000  0.71359400  0.09724800  1
  C  523  1  0.82423100  0.70178800  0.10594200  1
  C  524  1  0.83075900  0.68404100  0.11149800  1
  C  525  1  0.85123200  0.67786000  0.10748500  1
  C  526  1  0.92466400  0.68708300  0.08842800  1
  C  527  1  0.94209300  0.69830200  0.08461600  1
  C  528  1  0.93966500  0.71747700  0.08165200  1
  C  529  1  0.91888500  0.72509600  0.08248300  1
  C  530  1  0.87821600  0.73750900  0.10129100  1
  C  531  1  0.87172900  0.75567200  0.09624900  1
  C  532  1  0.86423700  0.74536100  0.06354600  1
  C  533  1  0.87219100  0.72723700  0.06705400  1
  C  534  1  0.85760600  0.75068700  0.04565600  1
  C  535  1  0.86013600  0.73879200  0.03059700  1
  C  536  1  0.86890000  0.72094400  0.03275700  1
  C  537  1  0.87460700  0.71536500  0.05111800  1
  C  538  1  0.88402200  0.73486300  0.12028700  1
  C  539  1  0.88407700  0.74951900  0.13351100  1
  C  540  1  0.87896100  0.76746900  0.12741300  1
  C  541  1  0.87241800  0.77042300  0.10913800  1
  C  554  1  0.87799700  0.72168800  0.08703700  1
  C  555  1  0.86336900  0.76009600  0.07772300  1
  C  558  1  0.88742700  0.68186200  0.09582900  1
  C  565  1  0.12272600  0.12758100  0.67267100  1
  C  566  1  0.11917800  0.13097400  0.65348600  1
  C  567  1  0.15717100  0.14015200  0.64848000  1
  C  568  1  0.16243500  0.13519300  0.66698100  1
  C  569  1  0.18395200  0.13843400  0.67240200  1
  C  570  1  0.19911800  0.14713500  0.66061800  1
  C  571  1  0.19260900  0.15271300  0.64287100  1
  C  572  1  0.17215000  0.14869400  0.63666500  1
  C  573  1  0.09871900  0.12961400  0.64577500  1
  C  574  1  0.08127300  0.12575600  0.65695500  1
  C  575  1  0.08365000  0.12278500  0.67613700  1
  C  576  1  0.10441400  0.12365100  0.68379300  1
  C  577  1  0.14507600  0.14246900  0.69627400  1
  C  578  1  0.15156100  0.13742800  0.71443800  1
  C  579  1  0.15907600  0.10472800  0.70412700  1
  C  580  1  0.15111700  0.10823200  0.68600400  1
  C  581  1  0.16570000  0.08683800  0.70945900  1
  C  582  1  0.16322400  0.07178000  0.69755300  1
  C  583  1  0.15442700  0.07393200  0.67971900  1
  C  584  1  0.14869900  0.09228900  0.67413800  1
  C  585  1  0.13926700  0.16146500  0.69363000  1
  C  586  1  0.13919600  0.17468700  0.70828900  1
  C  587  1  0.14430700  0.16858600  0.72623900  1
  C  588  1  0.15085900  0.15031400  0.72919200  1
  C  601  1  0.14531700  0.12821700  0.68045000  1
  C  602  1  0.15993700  0.11890700  0.71886200  1
  C  605  1  0.13595600  0.13702900  0.64061700  1
  C  612  1  0.12267700  0.88728200  0.25976300  1
  C  613  1  0.11910100  0.88389000  0.27894500  1
  C  614  1  0.15710200  0.87476700  0.28399900  1
  C  615  1  0.16238500  0.87970800  0.26549600  1
  C  616  1  0.18390700  0.87646500  0.26009300  1
  C  617  1  0.19906100  0.86777100  0.27189400  1
  C  618  1  0.19253900  0.86222200  0.28964600  1
  C  619  1  0.17207400  0.86624400  0.29583600  1
  C  620  1  0.09863100  0.88525100  0.28663300  1
  C  621  1  0.08118900  0.88902300  0.27541800  1
  C  622  1  0.08359400  0.89196100  0.25623600  1
  C  623  1  0.10437800  0.89118300  0.24861500  1
  C  624  1  0.14506600  0.87240400  0.23619100  1
  C  625  1  0.15156100  0.87744000  0.21802800  1
  C  626  1  0.15901700  0.91015400  0.22832400  1
  C  627  1  0.15105700  0.90665100  0.24644600  1
  C  628  1  0.16561300  0.92804900  0.22298300  1
  C  629  1  0.16307200  0.94311500  0.23486700  1
  C  630  1  0.15426900  0.94096200  0.25269700  1
  C  631  1  0.14862100  0.92259600  0.25830700  1
  C  632  1  0.13926700  0.85340600  0.23884000  1
  C  633  1  0.13921000  0.84017900  0.22418700  1
  C  634  1  0.14433500  0.84627300  0.20623700  1
  C  635  1  0.15088200  0.86454600  0.20328000  1
  C  648  1  0.14527800  0.88666400  0.25200700  1
  C  649  1  0.15991800  0.89596600  0.21360000  1
  C  652  1  0.13587800  0.87789500  0.29184200  1
  C  659  1  0.12269700  0.71387700  0.84608800  1
  C  660  1  0.11914100  0.69468900  0.84270600  1
  C  661  1  0.15714900  0.68965700  0.83358800  1
  C  662  1  0.16241300  0.70816200  0.83852900  1
  C  663  1  0.18393400  0.71357800  0.83528800  1
  C  664  1  0.19909900  0.70178600  0.82659500  1
  C  665  1  0.19259300  0.68402800  0.82105000  1
  C  666  1  0.17213100  0.67782700  0.82507100  1
  C  667  1  0.09867300  0.68699100  0.84403500  1
  C  668  1  0.08122000  0.69819200  0.84781100  1
  C  669  1  0.08360800  0.71737700  0.85073600  1
  C  670  1  0.10438600  0.72501400  0.84998100  1
  C  671  1  0.14507900  0.73746100  0.83121600  1
  C  672  1  0.15157400  0.75562400  0.83625100  1
  C  673  1  0.15900600  0.74533800  0.86897100  1
  C  674  1  0.15105500  0.72721200  0.86546700  1
  C  675  1  0.16558100  0.75068700  0.88687100  1
  C  676  1  0.16301900  0.73881000  0.90193800  1
  C  677  1  0.15420700  0.72098400  0.89978400  1
  C  678  1  0.14860800  0.71535300  0.88141200  1
  C  679  1  0.13927800  0.73481000  0.81222100  1
  C  680  1  0.13921700  0.74946300  0.79899100  1
  C  681  1  0.14433400  0.76741500  0.80508700  1
  C  682  1  0.15088500  0.77037200  0.82335800  1
  C  695  1  0.14529400  0.72164400  0.84547700  1
  C  696  1  0.15991900  0.76005700  0.85478000  1
  C  699  1  0.13592900  0.68180300  0.83670900  1
  C  706  1  0.12264700  0.30096000  0.08643800  1
  C  707  1  0.11906900  0.32014100  0.08983300  1
  C  708  1  0.15707600  0.32520100  0.09893700  1
  C  709  1  0.16235600  0.30670000  0.09399700  1
  C  710  1  0.18388400  0.30129800  0.09721800  1
  C  711  1  0.19904000  0.31309800  0.10591200  1
  C  712  1  0.19252200  0.33084900  0.11146600  1
  C  713  1  0.17205400  0.33703900  0.10745100  1
  C  714  1  0.09859300  0.32782400  0.08849200  1
  C  715  1  0.08115000  0.31660500  0.08473200  1
  C  716  1  0.08356500  0.29742500  0.08180200  1
  C  717  1  0.10435100  0.28980700  0.08253800  1
  C  718  1  0.14504500  0.27738900  0.10130400  1
  C  719  1  0.15154200  0.25922800  0.09626700  1
  C  720  1  0.15895200  0.26951900  0.06354700  1
  C  721  1  0.15101000  0.28764600  0.06706100  1
  C  722  1  0.16548800  0.26416600  0.04564000  1
  C  723  1  0.16290700  0.27604700  0.03057900  1
  C  724  1  0.15414700  0.29389300  0.03275100  1
  C  725  1  0.14857500  0.29952100  0.05112800  1
  C  726  1  0.13925000  0.28003800  0.12030200  1
  C  727  1  0.13919800  0.26538400  0.13352800  1
  C  728  1  0.14431800  0.24743300  0.12743200  1
  C  729  1  0.15086600  0.24447900  0.10915900  1
  C  742  1  0.14525000  0.29320800  0.08704900  1
  C  743  1  0.15987300  0.25479600  0.07773300  1
  C  746  1  0.13584600  0.33304100  0.09582600  1
  C  753  1  0.62216200  0.62575300  0.74987800  1
  C  754  1  0.61151400  0.63346100  0.76539500  1
  C  755  1  0.64642600  0.64157100  0.78044900  1
  C  756  1  0.65817800  0.63434700  0.76526000  1
  C  757  1  0.68080500  0.63677800  0.76589700  1
  C  758  1  0.69147900  0.64580400  0.78086800  1
  C  759  1  0.67871100  0.65266300  0.79540100  1
  C  760  1  0.65677700  0.65029700  0.79541400  1
  C  761  1  0.58913200  0.63414900  0.76602900  1
  C  762  1  0.57684400  0.62732300  0.75137200  1
  C  763  1  0.58664100  0.61917600  0.73589400  1
  C  764  1  0.60913000  0.61852800  0.73536500  1
  C  765  1  0.65281200  0.63550400  0.73153600  1
  C  766  1  0.66467100  0.62625500  0.71756400  1
  C  767  1  0.66215700  0.59567200  0.73442900  1
  C  768  1  0.65180200  0.60423300  0.74966600  1
  C  769  1  0.66512100  0.57623800  0.73383200  1
  C  770  1  0.65783800  0.56481600  0.74815700  1
  C  771  1  0.64842700  0.57257600  0.76399400  1
  C  772  1  0.64554500  0.59218700  0.76450000  1
  C  773  1  0.64705700  0.65445200  0.72797800  1
  C  774  1  0.65319600  0.66395500  0.71150700  1
  C  775  1  0.66535800  0.65412900  0.69840600  1
  C  776  1  0.67117800  0.63571000  0.70142200  1
  C  789  1  0.64639900  0.62500100  0.74914600  1
  C  790  1  0.66996100  0.60631800  0.71836700  1
  C  793  1  0.62303300  0.64108500  0.78146500  1
  C  800  1  0.62218400  0.38912000  0.18262300  1
  C  801  1  0.61153300  0.38142100  0.16710200  1
  C  802  1  0.64643800  0.37333200  0.15203100  1
  C  803  1  0.65819600  0.38053700  0.16722600  1
  C  804  1  0.68082000  0.37809500  0.16658700  1
  C  805  1  0.69149000  0.36908200  0.15160600  1
  C  806  1  0.67872100  0.36225600  0.13705800  1
  C  807  1  0.65678600  0.36461800  0.13705600  1
  C  808  1  0.58914900  0.38072800  0.16647600  1
  C  809  1  0.57686600  0.38754000  0.18114300  1
  C  810  1  0.58666700  0.39568100  0.19662300  1
  C  811  1  0.60915500  0.39633200  0.19714400  1
  C  812  1  0.65284700  0.37937300  0.20095400  1
  C  813  1  0.66471200  0.38862700  0.21491900  1
  C  814  1  0.66216500  0.41921200  0.19806300  1
  C  815  1  0.65181700  0.41064500  0.18282700  1
  C  816  1  0.66512100  0.43864600  0.19866100  1
  C  817  1  0.65783300  0.45006400  0.18433500  1
  C  818  1  0.64842800  0.44230100  0.16849700  1
  C  819  1  0.64555900  0.42269000  0.16799100  1
  C  820  1  0.64709000  0.36042700  0.20452000  1
  C  821  1  0.65325300  0.35092500  0.22098400  1
  C  822  1  0.66542600  0.36075000  0.23407700  1
  C  823  1  0.67122600  0.37917500  0.23106200  1
  C  836  1  0.64642100  0.38987600  0.18334700  1
  C  837  1  0.66998000  0.40856800  0.21412400  1
  C  840  1  0.62304500  0.37381200  0.15102300  1
  C  847  1  0.62216500  0.22381200  0.58455900  1
  C  848  1  0.61151800  0.20829800  0.59227700  1
  C  849  1  0.64642900  0.19324600  0.60038300  1
  C  850  1  0.65818100  0.20843200  0.59315700  1
  C  851  1  0.68080800  0.20779600  0.59558700  1
  C  852  1  0.69148400  0.19282500  0.60461200  1
  C  853  1  0.67871800  0.17829100  0.61147200  1
  C  854  1  0.65678000  0.17829400  0.60913400  1
  C  855  1  0.58913500  0.20766700  0.59296800  1
  C  856  1  0.57684700  0.22232000  0.58613400  1
  C  857  1  0.58664500  0.23779300  0.57797900  1
  C  858  1  0.60913300  0.23832200  0.57732900  1
  C  859  1  0.65281200  0.24215600  0.59430600  1
  C  860  1  0.66467300  0.25612700  0.58505400  1
  C  861  1  0.66215700  0.23925600  0.55447500  1
  C  862  1  0.65180500  0.22402000  0.56304000  1
  C  863  1  0.66512100  0.23984900  0.53504100  1
  C  864  1  0.65783800  0.22552100  0.52362200  1
  C  865  1  0.64843200  0.20968600  0.53138500  1
  C  866  1  0.64555600  0.20918100  0.55099700  1
  C  867  1  0.64704900  0.24572100  0.61325200  1
  C  868  1  0.65315600  0.26221200  0.62273400  1
  C  869  1  0.66533100  0.27530800  0.61291400  1
  C  870  1  0.67116700  0.27227800  0.59450200  1
  C  883  1  0.64640200  0.22454400  0.58380800  1
  C  884  1  0.66995900  0.25532300  0.56511600  1
  C  887  1  0.62303600  0.19223300  0.59990800  1
  C  894  1  0.62218900  0.79107300  0.34794700  1
  C  895  1  0.61153800  0.80659600  0.34025000  1
  C  896  1  0.64644500  0.82165800  0.33214600  1
  C  897  1  0.65820000  0.80646200  0.33934900  1
  C  898  1  0.68082500  0.80709800  0.33690700  1
  C  899  1  0.69149500  0.82207700  0.32789100  1
  C  900  1  0.67872600  0.83661700  0.32104900  1
  C  901  1  0.65679100  0.83661900  0.32340700  1
  C  902  1  0.58915600  0.80722600  0.33956600  1
  C  903  1  0.57687300  0.79255900  0.34637800  1
  C  904  1  0.58667100  0.77707700  0.35451600  1
  C  905  1  0.60916000  0.77655500  0.35516400  1
  C  906  1  0.65284400  0.77273600  0.33820000  1
  C  907  1  0.66471100  0.75877200  0.34745300  1
  C  908  1  0.66219200  0.77564400  0.37803200  1
  C  909  1  0.65182900  0.79087400  0.36946600  1
  C  910  1  0.66516500  0.77505600  0.39746400  1
  C  911  1  0.65786100  0.78937500  0.40888400  1
  C  912  1  0.64844300  0.80520600  0.40112100  1
  C  913  1  0.64556900  0.80570900  0.38151000  1
  C  914  1  0.64708400  0.76916600  0.31925400  1
  C  915  1  0.65324000  0.75270000  0.30975300  1
  C  916  1  0.66539800  0.73960000  0.31958700  1
  C  917  1  0.67119700  0.74261600  0.33801000  1
  C  930  1  0.64642600  0.79034700  0.34869800  1
  C  931  1  0.67000000  0.75957900  0.36739100  1
  C  934  1  0.62305200  0.82267300  0.33263700  1
  C  941  1  0.40107500  0.38914400  0.74987100  1
  C  942  1  0.41172400  0.38142900  0.76538400  1
  C  943  1  0.37681600  0.37332000  0.78044100  1
  C  944  1  0.36506000  0.38054300  0.76525300  1
  C  945  1  0.34243500  0.37810800  0.76589000  1
  C  946  1  0.33176100  0.36908300  0.78086300  1
  C  947  1  0.34452800  0.36223100  0.79540000  1
  C  948  1  0.36646600  0.36457200  0.79539600  1
  C  949  1  0.43410600  0.38073800  0.76601100  1
  C  950  1  0.44639100  0.38757000  0.75135700  1
  C  951  1  0.43659200  0.39572700  0.73588300  1
  C  952  1  0.41410300  0.39637600  0.73535900  1
  C  953  1  0.37043200  0.37938900  0.73152900  1
  C  954  1  0.35856400  0.38863400  0.71756000  1
  C  955  1  0.36106900  0.41921600  0.73442400  1
  C  956  1  0.37142800  0.41065700  0.74966000  1
  C  957  1  0.35810200  0.43865000  0.73382500  1
  C  958  1  0.36538600  0.45007400  0.74815000  1
  C  959  1  0.37479900  0.44231500  0.76398600  1
  C  960  1  0.37767400  0.42270500  0.76449600  1
  C  961  1  0.37620600  0.36044600  0.72796500  1
  C  962  1  0.37009300  0.35095400  0.71148400  1
  C  963  1  0.35790700  0.36076300  0.69838800  1
  C  964  1  0.35208700  0.37918200  0.70140400  1
  C  977  1  0.37683800  0.38989100  0.74914000  1
  C  978  1  0.35326300  0.40856800  0.71836200  1
  C  981  1  0.40020900  0.37379700  0.78145100  1
  C  988  1  0.40104100  0.62575300  0.18264200  1
  C  989  1  0.41169400  0.63345100  0.16712200  1
  C  990  1  0.37679000  0.64156400  0.15206200  1
  C  991  1  0.36503200  0.63434800  0.16725100  1
  C  992  1  0.34240700  0.63678500  0.16661000  1
  C  993  1  0.33173900  0.64580600  0.15163300  1
  C  994  1  0.34450900  0.65265200  0.13709600  1
  C  995  1  0.36644400  0.65029400  0.13709500  1
  C  996  1  0.43407600  0.63414000  0.16649800  1
  C  997  1  0.44635800  0.62733100  0.18116600  1
  C  998  1  0.43655600  0.61918800  0.19664500  1
  C  999  1  0.41406700  0.61853800  0.19716500  1
  C  1000  1  0.37038500  0.63549600  0.20097900  1
  C  1001  1  0.35851300  0.62624100  0.21494000  1
  C  1002  1  0.36103400  0.59566500  0.19806500  1
  C  1003  1  0.37140300  0.60423300  0.18283900  1
  C  1004  1  0.35807200  0.57623100  0.19865500  1
  C  1005  1  0.36536600  0.56481500  0.18433000  1
  C  1006  1  0.37479100  0.57257900  0.16850300  1
  C  1007  1  0.37766300  0.59219100  0.16800100  1
  C  1008  1  0.37614900  0.65444100  0.20455200  1
  C  1009  1  0.37002200  0.66392500  0.22103500  1
  C  1010  1  0.35783700  0.65410200  0.23412300  1
  C  1011  1  0.35202500  0.63568300  0.23109600  1
  C  1024  1  0.37680500  0.62499900  0.18336600  1
  C  1025  1  0.35321700  0.60630600  0.21412700  1
  C  1028  1  0.40018200  0.64106700  0.15104500  1
  C  1035  1  0.40108700  0.79106200  0.58455100  1
  C  1036  1  0.41173200  0.80658100  0.59226100  1
  C  1037  1  0.37681900  0.82161800  0.60038900  1
  C  1038  1  0.36506800  0.80643200  0.59316000  1
  C  1039  1  0.34244200  0.80706400  0.59559300  1
  C  1040  1  0.33176600  0.82202100  0.60464200  1
  C  1041  1  0.34453000  0.83656000  0.61149200  1
  C  1042  1  0.36646400  0.83657200  0.60913400  1
  C  1043  1  0.43411400  0.80721800  0.59294500  1
  C  1044  1  0.44640500  0.79256600  0.58611300  1
  C  1045  1  0.43660900  0.77708600  0.57796600  1
  C  1046  1  0.41412100  0.77655300  0.57732200  1
  C  1047  1  0.37045000  0.77270700  0.59429900  1
  C  1048  1  0.35858800  0.75873700  0.58504900  1
  C  1049  1  0.36106500  0.77562300  0.55447600  1
  C  1050  1  0.37144200  0.79084900  0.56303800  1
  C  1051  1  0.35808700  0.77503600  0.53504400  1
  C  1052  1  0.36537000  0.78936300  0.52362300  1
  C  1053  1  0.37479900  0.80518900  0.53138500  1
  C  1054  1  0.37769100  0.80568800  0.55099400  1
  C  1055  1  0.37622700  0.76913700  0.61324200  1
  C  1056  1  0.37015200  0.75263200  0.62271500  1
  C  1057  1  0.35793700  0.73955400  0.61291000  1
  C  1058  1  0.35210300  0.74258300  0.59449600  1
  C  1071  1  0.37684900  0.79032500  0.58380400  1
  C  1072  1  0.35325700  0.75956100  0.56512100  1
  C  1075  1  0.40021000  0.82264400  0.59989400  1
  C  1082  1  0.40107300  0.22382700  0.34793300  1
  C  1083  1  0.41172800  0.20830500  0.34024100  1
  C  1084  1  0.37683000  0.19324200  0.33212300  1
  C  1085  1  0.36506800  0.20843500  0.33932400  1
  C  1086  1  0.34244300  0.20779600  0.33687600  1
  C  1087  1  0.33179100  0.19283800  0.32780600  1
  C  1088  1  0.34455700  0.17827400  0.32101300  1
  C  1089  1  0.36648800  0.17827000  0.32339500  1
  C  1090  1  0.43411300  0.20768000  0.33955900  1
  C  1091  1  0.44639100  0.22234500  0.34637500  1
  C  1092  1  0.43658600  0.23782700  0.35451000  1
  C  1093  1  0.41409700  0.23834800  0.35515100  1
  C  1094  1  0.37042100  0.24216300  0.33817900  1
  C  1095  1  0.35854200  0.25612300  0.34742900  1
  C  1096  1  0.36103500  0.23924200  0.37800400  1
  C  1097  1  0.37142800  0.22402500  0.36944500  1
  C  1098  1  0.35805900  0.23983300  0.39743600  1
  C  1099  1  0.36536100  0.22551500  0.40885800  1
  C  1100  1  0.37480800  0.20969500  0.40110000  1
  C  1101  1  0.37769600  0.20919500  0.38149200  1
  C  1102  1  0.37620000  0.24573900  0.31923900  1
  C  1103  1  0.37011700  0.26224300  0.30976700  1
  C  1104  1  0.35788500  0.27531000  0.31957200  1
  C  1105  1  0.35204400  0.27227200  0.33798100  1
  C  1118  1  0.37683500  0.22455000  0.34867800  1
  C  1119  1  0.35321400  0.25529900  0.36735700  1
  C  1122  1  0.40022100  0.19222400  0.33263000  1
  C  1129  1  0.40249300  0.38878900  0.17409500  1
  C  1130  1  0.40813900  0.38806800  0.15500700  1
  C  1131  1  0.37104600  0.38033600  0.14553800  1
  C  1132  1  0.36364100  0.38110600  0.16414700  1
  C  1133  1  0.34191000  0.37558900  0.16695800  1
  C  1134  1  0.32839600  0.36946200  0.15222000  1
  C  1135  1  0.33737200  0.36857500  0.13432100  1
  C  1136  1  0.35792400  0.37448600  0.13088300  1
  C  1137  1  0.42926500  0.39012000  0.14908500  1
  C  1138  1  0.44547600  0.39224900  0.16192500  1
  C  1139  1  0.44117400  0.39316700  0.18105200  1
  C  1140  1  0.41966200  0.39148200  0.18694100  1
  C  1141  1  0.37764900  0.37267200  0.19503000  1
  C  1142  1  0.36947300  0.37731100  0.21278700  1
  C  1143  1  0.36200000  0.41001500  0.20259500  1
  C  1144  1  0.37205500  0.40708600  0.18519000  1
  C  1145  1  0.35429100  0.42763800  0.20772700  1
  C  1146  1  0.35766900  0.44303100  0.19643400  1
  C  1147  1  0.36853500  0.44146300  0.17945100  1
  C  1148  1  0.37534800  0.42337800  0.17397300  1
  C  1149  1  0.38422400  0.35383300  0.19259000  1
  C  1150  1  0.38362700  0.34047600  0.20716300  1
  C  1151  1  0.37701400  0.34632200  0.22481500  1
  C  1152  1  0.36947300  0.36432800  0.22746000  1
  C  1165  1  0.37895800  0.38736800  0.17963700  1
  C  1166  1  0.36011700  0.39553200  0.21691900  1
  C  1169  1  0.39281500  0.38490900  0.14004100  1
  C  1176  1  0.40252500  0.62609900  0.75835600  1
  C  1177  1  0.40819100  0.62683600  0.77743700  1
  C  1178  1  0.37109400  0.63452700  0.78693200  1
  C  1179  1  0.36367600  0.63376000  0.76832700  1
  C  1180  1  0.34194100  0.63927600  0.76552700  1
  C  1181  1  0.32843400  0.64539500  0.78027400  1
  C  1182  1  0.33741600  0.64626400  0.79817100  1
  C  1183  1  0.35797700  0.64036500  0.80159600  1
  C  1184  1  0.42932800  0.62480900  0.78334100  1
  C  1185  1  0.44552800  0.62268000  0.77048900  1
  C  1186  1  0.44120100  0.62174400  0.75136900  1
  C  1187  1  0.41968000  0.62340200  0.74549700  1
  C  1188  1  0.37765700  0.64220300  0.73743500  1
  C  1189  1  0.36946600  0.63756300  0.71968500  1
  C  1190  1  0.36204200  0.60484700  0.72987100  1
  C  1191  1  0.37209300  0.60778600  0.74727600  1
  C  1192  1  0.35432900  0.58722400  0.72474900  1
  C  1193  1  0.35773100  0.57182900  0.73603500  1
  C  1194  1  0.36863500  0.57340800  0.75299500  1
  C  1195  1  0.37540400  0.59149800  0.75849600  1
  C  1196  1  0.38422600  0.66104300  0.73987300  1
  C  1197  1  0.38361400  0.67439900  0.72530100  1
  C  1198  1  0.37699600  0.66855100  0.70764900  1
  C  1199  1  0.36944300  0.65054800  0.70501400  1
  C  1212  1  0.37898500  0.62750700  0.75282800  1
  C  1213  1  0.36011100  0.61934100  0.71555900  1
  C  1216  1  0.39287800  0.62998400  0.79241400  1
  C  1223  1  0.40250100  0.79958900  0.34760600  1
  C  1224  1  0.40814700  0.81867500  0.34687500  1
  C  1225  1  0.37105100  0.82814600  0.33916200  1
  C  1226  1  0.36364800  0.80953700  0.33992900  1
  C  1227  1  0.34191400  0.80672500  0.33441200  1
  C  1228  1  0.32839800  0.82146300  0.32828800  1
  C  1229  1  0.33737200  0.83936400  0.32740500  1
  C  1230  1  0.35793700  0.84279600  0.33328600  1
  C  1231  1  0.42927600  0.82459400  0.34891500  1
  C  1232  1  0.44548400  0.81175600  0.35106500  1
  C  1233  1  0.44118200  0.79263000  0.35198500  1
  C  1234  1  0.41966700  0.78674200  0.35030500  1
  C  1235  1  0.37764700  0.77864800  0.33150300  1
  C  1236  1  0.36945700  0.76089800  0.33614600  1
  C  1237  1  0.36200400  0.77110000  0.36885200  1
  C  1238  1  0.37206600  0.78850000  0.36591400  1
  C  1239  1  0.35428800  0.76598000  0.38647500  1
  C  1240  1  0.35766600  0.77727600  0.40186700  1
  C  1241  1  0.36860000  0.79422300  0.40029100  1
  C  1242  1  0.37537800  0.79971900  0.38220300  1
  C  1243  1  0.38422600  0.78108000  0.31266400  1
  C  1244  1  0.38361600  0.76650600  0.29931000  1
  C  1245  1  0.37697700  0.74886000  0.30515700  1
  C  1246  1  0.36943800  0.74622500  0.32316600  1
  C  1259  1  0.37896400  0.79404700  0.34619300  1
  C  1260  1  0.36009500  0.75677800  0.35436800  1
  C  1263  1  0.39282400  0.83364100  0.34372300  1
  C  1270  1  0.40252300  0.21535500  0.58488000  1
  C  1271  1  0.40819800  0.19627600  0.58561700  1
  C  1272  1  0.37113200  0.18678500  0.59343000  1
  C  1273  1  0.36369500  0.20538100  0.59261300  1
  C  1274  1  0.34195700  0.20818000  0.59811700  1
  C  1275  1  0.32846400  0.19344300  0.60427600  1
  C  1276  1  0.33747300  0.17555900  0.60522700  1
  C  1277  1  0.35804500  0.17213600  0.59936000  1
  C  1278  1  0.42932800  0.19037500  0.58352500  1
  C  1279  1  0.44551200  0.20323000  0.58132700  1
  C  1280  1  0.44117400  0.22234800  0.58036000  1
  C  1281  1  0.41966500  0.22821600  0.58214000  1
  C  1282  1  0.37767700  0.23627700  0.60101000  1
  C  1283  1  0.36949000  0.25402900  0.59636700  1
  C  1284  1  0.36198400  0.24381100  0.56367500  1
  C  1285  1  0.37204400  0.22641100  0.56661000  1
  C  1286  1  0.35422400  0.24891500  0.54606300  1
  C  1287  1  0.35757800  0.23760600  0.53067500  1
  C  1288  1  0.36843400  0.22061600  0.53224900  1
  C  1289  1  0.37532300  0.21518100  0.55032400  1
  C  1290  1  0.38426700  0.23384700  0.61984500  1
  C  1291  1  0.38366300  0.24842000  0.63319900  1
  C  1292  1  0.37702600  0.26606600  0.62735500  1
  C  1293  1  0.36948400  0.26870400  0.60934700  1
  C  1306  1  0.37898500  0.22087800  0.58632300  1
  C  1307  1  0.36012000  0.25814800  0.57815100  1
  C  1310  1  0.39290500  0.18130200  0.58885400  1
  C  1317  1  0.62078000  0.62607600  0.17409100  1
  C  1318  1  0.61514200  0.62680300  0.15500300  1
  C  1319  1  0.65221600  0.63462500  0.14555400  1
  C  1320  1  0.65962500  0.63380800  0.16415900  1
  C  1321  1  0.68136000  0.63931400  0.16697900  1
  C  1322  1  0.69487000  0.64547300  0.15225400  1
  C  1323  1  0.68588500  0.64642500  0.13436200  1
  C  1324  1  0.66532000  0.64055300  0.13091800  1
  C  1325  1  0.59402400  0.62471600  0.14907300  1
  C  1326  1  0.57782100  0.62249200  0.16190300  1
  C  1327  1  0.58211500  0.62152700  0.18103200  1
  C  1328  1  0.60361200  0.62333700  0.18692700  1
  C  1329  1  0.64560400  0.64220300  0.19504400  1
  C  1330  1  0.65378800  0.63755900  0.21279600  1
  C  1331  1  0.66129400  0.60486700  0.20257800  1
  C  1332  1  0.65124200  0.60780300  0.18517500  1
  C  1333  1  0.66902700  0.58724700  0.20769200  1
  C  1334  1  0.66571600  0.57186500  0.19636500  1
  C  1335  1  0.65485300  0.57344300  0.17938100  1
  C  1336  1  0.64796800  0.59151800  0.17394200  1
  C  1337  1  0.63901300  0.66103800  0.19261500  1
  C  1338  1  0.63960800  0.67438900  0.20719200  1
  C  1339  1  0.64624000  0.66854000  0.22483900  1
  C  1340  1  0.65378800  0.65053400  0.22747400  1
  C  1353  1  0.64431200  0.62751800  0.17964000  1
  C  1354  1  0.66316100  0.61934200  0.21691500  1
  C  1357  1  0.63045400  0.63004400  0.14004700  1
  C  1364  1  0.62074000  0.38880600  0.75834800  1
  C  1365  1  0.61508000  0.38808600  0.77743100  1
  C  1366  1  0.65216300  0.38033400  0.78691400  1
  C  1367  1  0.65958200  0.38111900  0.76831100  1
  C  1368  1  0.68131800  0.37560600  0.76550600  1
  C  1369  1  0.69482300  0.36946900  0.78024600  1
  C  1370  1  0.68583500  0.36856800  0.79814000  1
  C  1371  1  0.66527100  0.37445500  0.80156900  1
  C  1372  1  0.59395000  0.39014500  0.78334100  1
  C  1373  1  0.57775000  0.39228500  0.77049100  1
  C  1374  1  0.58206700  0.39321500  0.75136800  1
  C  1375  1  0.60358200  0.39150900  0.74549300  1
  C  1376  1  0.64559600  0.37269000  0.73742100  1
  C  1377  1  0.65378900  0.37732900  0.71967000  1
  C  1378  1  0.66123700  0.41003800  0.72986300  1
  C  1379  1  0.65118200  0.40710300  0.74726600  1
  C  1380  1  0.66894100  0.42766100  0.72473600  1
  C  1381  1  0.66556700  0.44305300  0.73603500  1
  C  1382  1  0.65469500  0.44147800  0.75301300  1
  C  1383  1  0.64789200  0.42339000  0.75849200  1
  C  1384  1  0.63901400  0.35385200  0.73985600  1
  C  1385  1  0.63962400  0.34049600  0.72528500  1
  C  1386  1  0.64626900  0.34633600  0.70764000  1
  C  1387  1  0.65381000  0.36434400  0.70500000  1
  C  1400  1  0.64427700  0.38738500  0.75281500  1
  C  1401  1  0.66314300  0.39555100  0.71554300  1
  C  1404  1  0.63039300  0.38491400  0.79240300  1
  C  1411  1  0.62074200  0.21530100  0.34761400  1
  C  1412  1  0.61509600  0.19621400  0.34689300  1
  C  1413  1  0.65217900  0.18674700  0.33913600  1
  C  1414  1  0.65959200  0.20535200  0.33992600  1
  C  1415  1  0.68132500  0.20816400  0.33440900  1
  C  1416  1  0.69481800  0.19343400  0.32822300  1
  C  1417  1  0.68584100  0.17553500  0.32733900  1
  C  1418  1  0.66528700  0.17209900  0.33324600  1
  C  1419  1  0.59396700  0.19029500  0.34893800  1
  C  1420  1  0.57775900  0.20313400  0.35108400  1
  C  1421  1  0.58206400  0.22226000  0.35200000  1
  C  1422  1  0.60357600  0.22814800  0.35031100  1
  C  1423  1  0.64559400  0.23623800  0.33150300  1
  C  1424  1  0.65379700  0.25398500  0.33613700  1
  C  1425  1  0.66123700  0.24379500  0.36884800  1
  C  1426  1  0.65117700  0.22639300  0.36591600  1
  C  1427  1  0.66894300  0.24892400  0.38647300  1
  C  1428  1  0.66555000  0.23763700  0.40186800  1
  C  1429  1  0.65464100  0.22067600  0.40029600  1
  C  1430  1  0.64786900  0.21517500  0.38220600  1
  C  1431  1  0.63900500  0.23380500  0.31266700  1
  C  1432  1  0.63961100  0.24837600  0.29931000  1
  C  1433  1  0.64626100  0.26602000  0.30515200  1
  C  1434  1  0.65381100  0.26865700  0.32315500  1
  C  1447  1  0.64427900  0.22084200  0.34619600  1
  C  1448  1  0.66315600  0.25811000  0.35435800  1
  C  1451  1  0.63041600  0.18124800  0.34372600  1
  C  1458  1  0.62072400  0.79955200  0.58489600  1
  C  1459  1  0.61506100  0.81863500  0.58560900  1
  C  1460  1  0.65214400  0.82812900  0.59334800  1
  C  1461  1  0.65956300  0.80952400  0.59259000  1
  C  1462  1  0.68129400  0.80672500  0.59812200  1
  C  1463  1  0.69476100  0.82146600  0.60432000  1
  C  1464  1  0.68580000  0.83937200  0.60513300  1
  C  1465  1  0.66524900  0.84279300  0.59920900  1
  C  1466  1  0.59392800  0.82453900  0.58355600  1
  C  1467  1  0.57772800  0.81168700  0.58143500  1
  C  1468  1  0.58205100  0.79256500  0.58052800  1
  C  1469  1  0.60357000  0.78669100  0.58220400  1
  C  1470  1  0.64558500  0.77863000  0.60101600  1
  C  1471  1  0.65379200  0.76088500  0.59638300  1
  C  1472  1  0.66125300  0.77108100  0.56367700  1
  C  1473  1  0.65117400  0.78847400  0.56660300  1
  C  1474  1  0.66896000  0.76594900  0.54605500  1
  C  1475  1  0.66556600  0.77723100  0.53065500  1
  C  1476  1  0.65465400  0.79418900  0.53222400  1
  C  1477  1  0.64786500  0.79968700  0.55031000  1
  C  1478  1  0.63899100  0.78106300  0.61985100  1
  C  1479  1  0.63959800  0.76649200  0.63320700  1
  C  1480  1  0.64625000  0.74884800  0.62736700  1
  C  1481  1  0.65381000  0.74621400  0.60936600  1
  C  1494  1  0.64426400  0.79402500  0.58632000  1
  C  1495  1  0.66316200  0.75676300  0.57816600  1
  C  1498  1  0.63037400  0.83361200  0.58875400  1
  C  1505  1  0.14819300  0.02728200  0.27852300  1
  C  1506  1  0.13299500  0.01286800  0.27967500  1
  C  1507  1  0.13809000  0.99419900  0.27606500  1
  C  1508  1  0.15853700  0.98882900  0.27021800  1
  C  1509  1  0.17387300  0.00341600  0.26774200  1
  C  1512  1  0.16927800  0.02216200  0.27344700  1
  C  1513  1  0.19484800  0.99887800  0.25904600  1
  C  1517  1  0.18699300  0.03583400  0.27559800  1
  C  1521  1  0.14196200  0.04485300  0.28531200  1
  C  1523  1  0.16303400  0.96989200  0.26622100  1
  C  1525  1  0.14821400  0.98757300  0.65395400  1
  C  1526  1  0.13302000  0.00199100  0.65281900  1
  C  1527  1  0.13813300  0.02065800  0.65641700  1
  C  1528  1  0.15858300  0.02601800  0.66226600  1
  C  1529  1  0.17390100  0.01141800  0.66475700  1
  C  1532  1  0.16929900  0.99268000  0.65903900  1
  C  1533  1  0.19487300  0.01593400  0.67347100  1
  C  1537  1  0.18700800  0.97900100  0.65688300  1
  C  1541  1  0.14197500  0.97000700  0.64715700  1
  C  1543  1  0.16308900  0.04495400  0.66625000  1
  C  1545  1  0.14820800  0.69513600  0.98610000  1
  C  1546  1  0.13301500  0.69397400  0.97168300  1
  C  1547  1  0.13810900  0.69758800  0.95301700  1
  C  1548  1  0.15855500  0.70344100  0.94764600  1
  C  1549  1  0.17389200  0.70591100  0.96223500  1
  C  1552  1  0.16929200  0.70021800  0.98098200  1
  C  1553  1  0.19485600  0.71462100  0.95767800  1
  C  1557  1  0.18699800  0.69808400  0.99466500  1
  C  1561  1  0.14197400  0.68835000  0.00367100  1
  C  1563  1  0.16303100  0.70749400  0.92871600  1
  C  1565  1  0.14818900  0.31976000  0.94639900  1
  C  1566  1  0.13300500  0.32087100  0.96082800  1
  C  1567  1  0.13812500  0.31723700  0.97948500  1
  C  1568  1  0.15858500  0.31140500  0.98483500  1
  C  1569  1  0.17394900  0.30906100  0.97024200  1
  C  1572  1  0.16930000  0.31473900  0.95149500  1
  C  1573  1  0.19492900  0.30038700  0.97482700  1
  C  1577  1  0.18695500  0.31687400  0.93776700  1
  C  1581  1  0.14189700  0.32652200  0.92883300  1
  C  1583  1  0.16301600  0.30717700  0.00373900  1
  C  1585  1  0.87503800  0.98760300  0.27853800  1
  C  1586  1  0.89026100  0.00199500  0.27970600  1
  C  1587  1  0.88520000  0.02067400  0.27610400  1
  C  1588  1  0.86476900  0.02607400  0.27024000  1
  C  1589  1  0.84943500  0.01150000  0.26769100  1
  C  1592  1  0.85397400  0.99275500  0.27342900  1
  C  1593  1  0.82846500  0.01599700  0.25896900  1
  C  1597  1  0.83621500  0.97911900  0.27555700  1
  C  1601  1  0.88121900  0.97002500  0.28533900  1
  C  1603  1  0.86027600  0.04503200  0.26636300  1
  C  1605  1  0.87503200  0.02730100  0.65393900  1
  C  1606  1  0.89020600  0.01286600  0.65282800  1
  C  1607  1  0.88507400  0.99421000  0.65645500  1
  C  1608  1  0.86460900  0.98886700  0.66228100  1
  C  1609  1  0.84925300  0.00346800  0.66462100  1
  C  1612  1  0.85391400  0.02221300  0.65895000  1
  C  1613  1  0.82826800  0.99888700  0.67329000  1
  C  1617  1  0.83627000  0.03595200  0.65681800  1
  C  1621  1  0.88133600  0.04486600  0.64718500  1
  C  1623  1  0.86016800  0.96996400  0.66650900  1
  C  1625  1  0.87505600  0.31977000  0.98608400  1
  C  1626  1  0.89028200  0.32092300  0.97169300  1
  C  1627  1  0.88521700  0.31732000  0.95301600  1
  C  1628  1  0.86478200  0.31146800  0.94761700  1
  C  1629  1  0.84944600  0.30892900  0.96219200  1
  C  1632  1  0.85398900  0.31467400  0.98093400  1
  C  1633  1  0.82846600  0.30021900  0.95770300  1
  C  1637  1  0.83622900  0.31681600  0.99456800  1
  C  1641  1  0.88124300  0.32656900  0.00366200  1
  C  1643  1  0.86028400  0.30759700  0.92865900  1
  C  1645  1  0.87507000  0.69516300  0.94638300  1
  C  1646  1  0.89026100  0.69406300  0.96080500  1
  C  1647  1  0.88513900  0.69767400  0.97946900  1
  C  1648  1  0.86467400  0.70349100  0.98482200  1
  C  1649  1  0.84933200  0.70589600  0.97022400  1
  C  1652  1  0.85396500  0.70019700  0.95148400  1
  C  1653  1  0.82834900  0.71457200  0.97477500  1
  C  1657  1  0.83628100  0.69801600  0.93778700  1
  C  1661  1  0.88133800  0.68838000  0.92882000  1
  C  1663  1  0.86019300  0.70758400  0.00374200  1
  C  1665  1  0.64734100  0.52776800  0.77843700  1
  C  1666  1  0.63195100  0.51347600  0.77895000  1
  C  1667  1  0.63704500  0.49478700  0.77549300  1
  C  1668  1  0.65768900  0.48931400  0.77033100  1
  C  1669  1  0.67327100  0.50376400  0.76844900  1
  C  1672  1  0.66861000  0.52249500  0.77416800  1
  C  1673  1  0.69463100  0.49975500  0.76021800  1
  C  1677  1  0.68638400  0.53606000  0.77670700  1
  C  1681  1  0.64090800  0.54533100  0.78506400  1
  C  1683  1  0.66230600  0.47027900  0.76730400  1
  C  1685  1  0.64736000  0.48710400  0.15405200  1
  C  1686  1  0.63197500  0.50140200  0.15355600  1
  C  1687  1  0.63708900  0.52009000  0.15699500  1
  C  1688  1  0.65773600  0.52555200  0.16215600  1
  C  1689  1  0.67330600  0.51109200  0.16404300  1
  C  1692  1  0.66863200  0.49236500  0.15832300  1
  C  1693  1  0.69466100  0.51508700  0.17228800  1
  C  1697  1  0.68639800  0.47879200  0.15578100  1
  C  1701  1  0.64091600  0.46954600  0.14742600  1
  C  1703  1  0.66236600  0.54458400  0.16517400  1
  C  1705  1  0.64734900  0.19523000  0.48658000  1
  C  1706  1  0.63195600  0.19470800  0.47229000  1
  C  1707  1  0.63704300  0.19816400  0.45360100  1
  C  1708  1  0.65768300  0.20333500  0.44812200  1
  C  1709  1  0.67326800  0.20522500  0.46257000  1
  C  1712  1  0.66861300  0.19950800  0.48130200  1
  C  1713  1  0.69462200  0.21346300  0.45855500  1
  C  1717  1  0.68639400  0.19697600  0.49486400  1
  C  1721  1  0.64092200  0.18860500  0.50414500  1
  C  1723  1  0.66229000  0.20636700  0.42908600  1
  C  1725  1  0.64733900  0.81964000  0.44592500  1
  C  1726  1  0.63194000  0.82011700  0.46021000  1
  C  1727  1  0.63704000  0.81666500  0.47890000  1
  C  1728  1  0.65768600  0.81151200  0.48437400  1
  C  1729  1  0.67327300  0.80965000  0.46992500  1
  C  1732  1  0.66861200  0.81538300  0.45120000  1
  C  1733  1  0.69463600  0.80142600  0.47393000  1
  C  1737  1  0.68638600  0.81795100  0.43763900  1
  C  1741  1  0.64090500  0.82627000  0.42836500  1
  C  1743  1  0.66229100  0.80845300  0.50340600  1
  C  1745  1  0.37590200  0.48712700  0.77843700  1
  C  1746  1  0.39130400  0.50141000  0.77896700  1
  C  1747  1  0.38622800  0.52010400  0.77551900  1
  C  1748  1  0.36559200  0.52559500  0.77034900  1
  C  1749  1  0.35000000  0.51115500  0.76845100  1
  C  1752  1  0.35464100  0.49241700  0.77415800  1
  C  1753  1  0.32865000  0.51518400  0.76020800  1
  C  1757  1  0.33685300  0.47886400  0.77668000  1
  C  1761  1  0.38231600  0.46955900  0.78506200  1
  C  1763  1  0.36099600  0.54463600  0.76733800  1
  C  1765  1  0.37589400  0.52777800  0.15405800  1
  C  1766  1  0.39128800  0.51348900  0.15357800  1
  C  1767  1  0.38618400  0.49479900  0.15702300  1
  C  1768  1  0.36553700  0.48932700  0.16217000  1
  C  1769  1  0.34995300  0.50377900  0.16403600  1
  C  1772  1  0.35462000  0.52250600  0.15830900  1
  C  1773  1  0.32858600  0.49977600  0.17225700  1
  C  1777  1  0.33684900  0.53606900  0.15573900  1
  C  1781  1  0.38233500  0.54533900  0.14743400  1
  C  1783  1  0.36092100  0.47029700  0.16522100  1
  C  1785  1  0.37589900  0.81965000  0.48657600  1
  C  1786  1  0.39130000  0.82017400  0.47229300  1
  C  1787  1  0.38622000  0.81673000  0.45359800  1
  C  1788  1  0.36558100  0.81156900  0.44810800  1
  C  1789  1  0.34998900  0.80967500  0.46254900  1
  C  1792  1  0.35463400  0.81538000  0.48128700  1
  C  1793  1  0.32863500  0.80144100  0.45852200  1
  C  1797  1  0.33684800  0.81790700  0.49484200  1
  C  1801  1  0.38231800  0.82627000  0.50414400  1
  C  1803  1  0.36098000  0.80856500  0.42906700  1
  C  1805  1  0.37590900  0.19527000  0.44590700  1
  C  1806  1  0.39130100  0.19481100  0.46019900  1
  C  1807  1  0.38618700  0.19825900  0.47888600  1
  C  1808  1  0.36553000  0.20338900  0.48435200  1
  C  1809  1  0.34994900  0.20523600  0.46989600  1
  C  1812  1  0.35462800  0.19950600  0.45117200  1
  C  1813  1  0.32857500  0.21344500  0.47389100  1
  C  1817  1  0.33686200  0.19691800  0.43760700  1
  C  1821  1  0.38235900  0.18864200  0.42835100  1
  C  1823  1  0.36090600  0.20643100  0.50338100  1
  C  1825  1  0.24576600  0.16062300  0.29147800  1
  C  1826  1  0.25958100  0.17496100  0.28560700  1
  C  1827  1  0.27538200  0.18234400  0.29722800  1
  C  1828  1  0.27790900  0.17629100  0.31571100  1
  C  1829  1  0.26263400  0.16327600  0.32262700  1
  C  1832  1  0.24724800  0.15487800  0.31042400  1
  C  1833  1  0.26323400  0.15789800  0.34269900  1
  C  1837  1  0.23388800  0.13921700  0.31744000  1
  C  1841  1  0.23628500  0.15017800  0.27712300  1
  C  1843  1  0.29801500  0.17845700  0.32415500  1
  C  1845  1  0.24576100  0.85424900  0.64096800  1
  C  1846  1  0.25957200  0.83990400  0.64684100  1
  C  1847  1  0.27537400  0.83252400  0.63521500  1
  C  1848  1  0.27786300  0.83857300  0.61672300  1
  C  1849  1  0.26258600  0.85157600  0.60980600  1
  C  1852  1  0.24721400  0.85997900  0.62201600  1
  C  1853  1  0.26320400  0.85695900  0.58973700  1
  C  1857  1  0.23384400  0.87563200  0.61499900  1
  C  1861  1  0.23630300  0.86471300  0.65532100  1
  C  1863  1  0.29798300  0.83638400  0.60830900  1
  C  1865  1  0.24577200  0.68221200  0.11940500  1
  C  1866  1  0.25960300  0.68807500  0.13373500  1
  C  1867  1  0.27539000  0.67644200  0.14112100  1
  C  1868  1  0.27788500  0.65795100  0.13508000  1
  C  1869  1  0.26259300  0.65104400  0.12207400  1
  C  1872  1  0.24722500  0.66326100  0.11366900  1
  C  1873  1  0.26315500  0.63096700  0.11670900  1
  C  1877  1  0.23385800  0.65625000  0.09801000  1
  C  1881  1  0.23629800  0.69657000  0.10896100  1
  C  1883  1  0.29796800  0.64946800  0.13726600  1
  C  1885  1  0.24575800  0.33272300  0.81307400  1
  C  1886  1  0.25957200  0.32684700  0.79873400  1
  C  1887  1  0.27537800  0.33847200  0.79135600  1
  C  1888  1  0.27786200  0.35696500  0.79740100  1
  C  1889  1  0.26258000  0.36388500  0.81039600  1
  C  1892  1  0.24720500  0.35167700  0.81880000  1
  C  1893  1  0.26319000  0.38395600  0.81577200  1
  C  1897  1  0.23383100  0.35869700  0.83444900  1
  C  1901  1  0.23629800  0.31837100  0.82354100  1
  C  1903  1  0.29798800  0.36536900  0.79523200  1
  C  1905  1  0.77746900  0.85427100  0.29147400  1
  C  1906  1  0.76364300  0.83993500  0.28561200  1
  C  1907  1  0.74784800  0.83255400  0.29724300  1
  C  1908  1  0.74534500  0.83862900  0.31571900  1
  C  1909  1  0.76063600  0.85162600  0.32263900  1
  C  1912  1  0.77600800  0.86002000  0.31042000  1
  C  1913  1  0.76007400  0.85699500  0.34271500  1
  C  1917  1  0.78937900  0.87568100  0.31742200  1
  C  1921  1  0.78695000  0.86470600  0.27710900  1
  C  1923  1  0.72527100  0.83643900  0.32422300  1
  C  1925  1  0.77748400  0.16061800  0.64097600  1
  C  1926  1  0.76367100  0.17496300  0.64684800  1
  C  1927  1  0.74786900  0.18233900  0.63521900  1
  C  1928  1  0.74538400  0.17628900  0.61672700  1
  C  1929  1  0.76066600  0.16329000  0.60981100  1
  C  1932  1  0.77603600  0.15489000  0.62202300  1
  C  1933  1  0.76005800  0.15791000  0.58974100  1
  C  1937  1  0.78940900  0.13923700  0.61500700  1
  C  1941  1  0.78693600  0.15015300  0.65533200  1
  C  1943  1  0.72525800  0.17845700  0.60832100  1
  C  1945  1  0.77748000  0.33266200  0.11940600  1
  C  1946  1  0.76364900  0.32679500  0.13373500  1
  C  1947  1  0.74785600  0.33842600  0.14111700  1
  C  1948  1  0.74535400  0.35691600  0.13507200  1
  C  1949  1  0.76064700  0.36382400  0.12206900  1
  C  1952  1  0.77602100  0.35161100  0.11366800  1
  C  1953  1  0.76007700  0.38390100  0.11670200  1
  C  1957  1  0.78939100  0.35862400  0.09801200  1
  C  1961  1  0.78696100  0.31830300  0.10896400  1
  C  1963  1  0.72526300  0.36538200  0.13724400  1
  C  1965  1  0.77749100  0.68217300  0.81306200  1
  C  1966  1  0.76367400  0.68804600  0.79872300  1
  C  1967  1  0.74786700  0.67642000  0.79134900  1
  C  1968  1  0.74538100  0.65792800  0.79740000  1
  C  1969  1  0.76066600  0.65101100  0.81039300  1
  C  1972  1  0.77604300  0.66322000  0.81879100  1
  C  1973  1  0.76005700  0.63094100  0.81577500  1
  C  1977  1  0.78942000  0.65620300  0.83444000  1
  C  1981  1  0.78695600  0.69652600  0.82352100  1
  C  1983  1  0.72525300  0.64952400  0.79523500  1
  C  1985  1  0.77656500  0.85031200  0.64662400  1
  C  1986  1  0.76453600  0.83403900  0.64992800  1
  C  1987  1  0.75049500  0.82670800  0.63664900  1
  C  1988  1  0.74883100  0.83433700  0.61867700  1
  C  1989  1  0.76305400  0.84926600  0.61423100  1
  C  1992  1  0.77508700  0.85838600  0.62855800  1
  C  1993  1  0.76517200  0.85581400  0.59457800  1
  C  1997  1  0.78412100  0.87723100  0.62475800  1
  C  2001  1  0.78550400  0.85884700  0.66244800  1
  C  2003  1  0.73062400  0.83068100  0.60763500  1
  C  2005  1  0.77660500  0.16452800  0.28588400  1
  C  2006  1  0.76459100  0.18081100  0.28256800  1
  C  2007  1  0.75054400  0.18813600  0.29584700  1
  C  2008  1  0.74890700  0.18054200  0.31383900  1
  C  2009  1  0.76313900  0.16562600  0.31828700  1
  C  2012  1  0.77515500  0.15648400  0.30396500  1
  C  2013  1  0.76525600  0.15910000  0.33794500  1
  C  2017  1  0.78420800  0.13765100  0.30778800  1
  C  2021  1  0.78551400  0.15596400  0.27006400  1
  C  2023  1  0.73066200  0.18420100  0.32482600  1
  C  2025  1  0.77658000  0.32705300  0.80916400  1
  C  2026  1  0.76454700  0.32373900  0.79289300  1
  C  2027  1  0.75051600  0.33701800  0.78554900  1
  C  2028  1  0.74886800  0.35499800  0.79315900  1
  C  2029  1  0.76309200  0.35945300  0.80808300  1
  C  2032  1  0.77511500  0.34512900  0.81721800  1
  C  2033  1  0.76522600  0.37911100  0.81460800  1
  C  2037  1  0.78415400  0.34894500  0.83605700  1
  C  2041  1  0.78550800  0.31123500  0.81771400  1
  C  2043  1  0.73066000  0.36602900  0.78947900  1
  C  2045  1  0.77666000  0.68779500  0.12337900  1
  C  2046  1  0.76465100  0.69110700  0.13966400  1
  C  2047  1  0.75060100  0.67782800  0.14698600  1
  C  2048  1  0.74895900  0.65984000  0.13938300  1
  C  2049  1  0.76318700  0.65539600  0.12446400  1
  C  2052  1  0.77520700  0.66971900  0.11532700  1
  C  2053  1  0.76529100  0.63574000  0.11792300  1
  C  2057  1  0.78426000  0.66590100  0.09649200  1
  C  2061  1  0.78556600  0.70361700  0.11481800  1
  C  2063  1  0.73071700  0.64885000  0.14302700  1
  C  2065  1  0.24671400  0.16454800  0.64664800  1
  C  2066  1  0.25876700  0.18080400  0.64996300  1
  C  2067  1  0.27279400  0.18814000  0.63667400  1
  C  2068  1  0.27441800  0.18056200  0.61867500  1
  C  2069  1  0.26018100  0.16563600  0.61424600  1
  C  2072  1  0.24816000  0.15650000  0.62857000  1
  C  2073  1  0.25801900  0.15912000  0.59458600  1
  C  2077  1  0.23910200  0.13766800  0.62475300  1
  C  2081  1  0.23778400  0.15600000  0.66247000  1
  C  2083  1  0.29263700  0.18419200  0.60764100  1
  C  2085  1  0.24663500  0.85033000  0.28589100  1
  C  2086  1  0.25865000  0.83404600  0.28258900  1
  C  2087  1  0.27269500  0.82672900  0.29587500  1
  C  2088  1  0.27432500  0.83433600  0.31386400  1
  C  2089  1  0.26009300  0.84925700  0.31829500  1
  C  2092  1  0.24808400  0.85839000  0.30396400  1
  C  2093  1  0.25797100  0.85580200  0.33794800  1
  C  2097  1  0.23903800  0.87723100  0.30776800  1
  C  2101  1  0.23772300  0.85887900  0.27006300  1
  C  2103  1  0.29255000  0.83068100  0.32487400  1
  C  2105  1  0.24669300  0.68781900  0.80915600  1
  C  2106  1  0.25874200  0.69112700  0.79289500  1
  C  2107  1  0.27276500  0.67783700  0.78555900  1
  C  2108  1  0.27438800  0.65983700  0.79313900  1
  C  2109  1  0.26016100  0.65541500  0.80807300  1
  C  2112  1  0.24814700  0.66974500  0.81721000  1
  C  2113  1  0.25799600  0.63575800  0.81459800  1
  C  2117  1  0.23911100  0.66593700  0.83605300  1
  C  2121  1  0.23775900  0.70364200  0.81769800  1
  C  2123  1  0.29259200  0.64879400  0.78950000  1
  C  2125  1  0.24662100  0.32708200  0.12334500  1
  C  2126  1  0.25863900  0.32377200  0.13962500  1
  C  2127  1  0.27268800  0.33705200  0.14694400  1
  C  2128  1  0.27432000  0.35504500  0.13934400  1
  C  2129  1  0.26008600  0.35948300  0.12442700  1
  C  2132  1  0.24807100  0.34515800  0.11529100  1
  C  2133  1  0.25796800  0.37913900  0.11788900  1
  C  2137  1  0.23902100  0.34897000  0.09645400  1
  C  2141  1  0.23770500  0.31126000  0.11479100  1
  C  2143  1  0.29254800  0.36604900  0.14299800  1
  C  2145  1  0.14133700  0.24422000  0.17417500  1
  C  2146  1  0.12678500  0.23419300  0.18524200  1
  C  2147  1  0.13252500  0.21779500  0.19450900  1
  C  2148  1  0.15288100  0.20998600  0.19247000  1
  C  2149  1  0.16749900  0.21921600  0.18030500  1
  C  2152  1  0.16234700  0.23703500  0.17248300  1
  C  2153  1  0.18822700  0.21036300  0.17522300  1
  C  2157  1  0.17937500  0.24828200  0.16333200  1
  C  2161  1  0.13455100  0.26166600  0.16769900  1
  C  2163  1  0.15836900  0.19398600  0.20267100  1
  C  2165  1  0.14136200  0.77063700  0.75835300  1
  C  2166  1  0.12681200  0.78068900  0.74730600  1
  C  2167  1  0.13257000  0.79708500  0.73804500  1
  C  2168  1  0.15292900  0.80488400  0.74009500  1
  C  2169  1  0.16753700  0.79563800  0.75225700  1
  C  2172  1  0.16237700  0.77781100  0.76005400  1
  C  2173  1  0.18826300  0.80448200  0.75736600  1
  C  2177  1  0.17939800  0.76654200  0.76919000  1
  C  2181  1  0.13456400  0.75319200  0.76482300  1
  C  2183  1  0.15842200  0.82090800  0.72993100  1
  C  2185  1  0.14133900  0.79952500  0.20301800  1
  C  2186  1  0.12678200  0.78846000  0.19299500  1
  C  2187  1  0.13251500  0.77919000  0.17659700  1
  C  2188  1  0.15287000  0.78122100  0.16878400  1
  C  2189  1  0.16749400  0.79338400  0.17801000  1
  C  2192  1  0.16234700  0.80121200  0.19582700  1
  C  2193  1  0.18822200  0.79846100  0.16915100  1
  C  2197  1  0.17938100  0.81036000  0.20707100  1
  C  2201  1  0.13455800  0.80600600  0.22046500  1
  C  2203  1  0.15834700  0.77102400  0.15277700  1
  C  2205  1  0.14135000  0.21532400  0.72947200  1
  C  2206  1  0.12680400  0.22637600  0.73952100  1
  C  2207  1  0.13256300  0.23563800  0.75591800  1
  C  2208  1  0.15292100  0.23358300  0.76371800  1
  C  2209  1  0.16752700  0.22141800  0.75447300  1
  C  2212  1  0.16236400  0.21361800  0.73664600  1
  C  2213  1  0.18825000  0.21630500  0.76331700  1
  C  2217  1  0.17938300  0.20448000  0.72537800  1
  C  2221  1  0.13455100  0.20885700  0.71202400  1
  C  2223  1  0.15841500  0.24374600  0.77974300  1
  C  2225  1  0.88194000  0.77068300  0.17417100  1
  C  2226  1  0.89649300  0.78069000  0.18525100  1
  C  2227  1  0.89076300  0.79708100  0.19453500  1
  C  2228  1  0.87041200  0.80490100  0.19250400  1
  C  2229  1  0.85579000  0.79569400  0.18032500  1
  C  2232  1  0.86093400  0.77788200  0.17248100  1
  C  2233  1  0.83506900  0.80456300  0.17525200  1
  C  2237  1  0.84390200  0.76665600  0.16331200  1
  C  2241  1  0.88871400  0.75323500  0.16768600  1
  C  2243  1  0.86493400  0.82089300  0.20272700  1
  C  2245  1  0.88187300  0.24422400  0.75836900  1
  C  2246  1  0.89642200  0.23417700  0.74731700  1
  C  2247  1  0.89066700  0.21777700  0.73805800  1
  C  2248  1  0.87031000  0.20997300  0.74011300  1
  C  2249  1  0.85570300  0.21921800  0.75227600  1
  C  2252  1  0.86086200  0.23704600  0.76007400  1
  C  2253  1  0.83498000  0.21037000  0.75738800  1
  C  2257  1  0.84384000  0.24831000  0.76921300  1
  C  2261  1  0.88866800  0.26167200  0.76483300  1
  C  2263  1  0.86482400  0.19394500  0.72995400  1
  C  2265  1  0.88187600  0.21534200  0.20302600  1
  C  2266  1  0.89642500  0.22641100  0.19300100  1
  C  2267  1  0.89069500  0.23565400  0.17658600  1
  C  2268  1  0.87035000  0.23359300  0.16876000  1
  C  2269  1  0.85573800  0.22142000  0.17799000  1
  C  2272  1  0.86087600  0.21362800  0.19582400  1
  C  2273  1  0.83503200  0.21629400  0.16912000  1
  C  2277  1  0.84384300  0.20448200  0.20707300  1
  C  2281  1  0.88865400  0.20887200  0.22047900  1
  C  2283  1  0.86489300  0.24373500  0.15271000  1
  C  2285  1  0.88188700  0.79952400  0.72943700  1
  C  2286  1  0.89644200  0.78846800  0.73947200  1
  C  2287  1  0.89070100  0.77921400  0.75587700  1
  C  2288  1  0.87035800  0.78128100  0.76370300  1
  C  2289  1  0.85574800  0.79345200  0.75447200  1
  C  2292  1  0.86088700  0.80124300  0.73663800  1
  C  2293  1  0.83504300  0.79858400  0.76334200  1
  C  2297  1  0.84385700  0.81038900  0.72538800  1
  C  2301  1  0.88866500  0.80598500  0.71198400  1
  C  2303  1  0.86489300  0.77113000  0.77974300  1
  C  2305  1  0.64087300  0.74495500  0.67392900  1
  C  2306  1  0.62623700  0.73458200  0.68460000  1
  C  2307  1  0.63211600  0.71833900  0.69409500  1
  C  2308  1  0.65275900  0.71098200  0.69267400  1
  C  2309  1  0.66751300  0.72052600  0.68087800  1
  C  2312  1  0.66214600  0.73823700  0.67290800  1
  C  2313  1  0.68861600  0.71208800  0.67629200  1
  C  2317  1  0.67922100  0.74989700  0.66436300  1
  C  2321  1  0.63380200  0.76227500  0.66724600  1
  C  2323  1  0.65843100  0.69518700  0.70315500  1
  C  2325  1  0.64090200  0.26992100  0.25859800  1
  C  2326  1  0.62626600  0.28031400  0.24794500  1
  C  2327  1  0.63216200  0.29655400  0.23845300  1
  C  2328  1  0.65280800  0.30390100  0.23988100  1
  C  2329  1  0.66755300  0.29434600  0.25167700  1
  C  2332  1  0.66217700  0.27662900  0.25962800  1
  C  2333  1  0.68865400  0.30277700  0.25628500  1
  C  2337  1  0.67924300  0.26495400  0.26816500  1
  C  2341  1  0.63382100  0.25260100  0.26527300  1
  C  2343  1  0.65848700  0.31971300  0.22942500  1
  C  2345  1  0.64089700  0.29977300  0.70374700  1
  C  2346  1  0.62625500  0.28910000  0.69338200  1
  C  2347  1  0.63212500  0.27960400  0.67713600  1
  C  2348  1  0.65276300  0.28102400  0.66977100  1
  C  2349  1  0.66752400  0.29282100  0.67930900  1
  C  2352  1  0.66216500  0.30079300  0.69702100  1
  C  2353  1  0.68862300  0.29740400  0.67086200  1
  C  2357  1  0.67924500  0.30934100  0.70867300  1
  C  2361  1  0.63383500  0.30645500  0.72107100  1
  C  2363  1  0.65842500  0.27054400  0.65397200  1
  C  2365  1  0.64090600  0.71509600  0.22874300  1
  C  2366  1  0.62627400  0.72575500  0.23913300  1
  C  2367  1  0.63216800  0.73524600  0.25537500  1
  C  2368  1  0.65281100  0.73380800  0.26272800  1
  C  2369  1  0.66755400  0.72200800  0.25317400  1
  C  2372  1  0.66217900  0.71405800  0.23545600  1
  C  2373  1  0.68865000  0.71739200  0.26160900  1
  C  2377  1  0.67924500  0.70551600  0.22378500  1
  C  2381  1  0.63382700  0.70842700  0.21142000  1
  C  2383  1  0.65848800  0.74425900  0.27854300  1
  C  2385  1  0.38237900  0.26995300  0.67392900  1
  C  2386  1  0.39701800  0.28030700  0.68461500  1
  C  2387  1  0.39114800  0.29654600  0.69412000  1
  C  2388  1  0.37051300  0.30391700  0.69269700  1
  C  2389  1  0.35575500  0.29439300  0.68088800  1
  C  2392  1  0.36111300  0.27668800  0.67290100  1
  C  2393  1  0.33466100  0.30284900  0.67630600  1
  C  2397  1  0.34403400  0.26504900  0.66433600  1
  C  2401  1  0.38943800  0.25263100  0.66724300  1
  C  2403  1  0.36485000  0.31970300  0.70320000  1
  C  2405  1  0.38231500  0.74495200  0.25860300  1
  C  2406  1  0.39695200  0.73456400  0.24794800  1
  C  2407  1  0.39106000  0.71831800  0.23846000  1
  C  2408  1  0.37041900  0.71096400  0.23989500  1
  C  2409  1  0.35567100  0.72051800  0.25169200  1
  C  2412  1  0.36104200  0.73823700  0.25963900  1
  C  2413  1  0.33457600  0.71208000  0.25630600  1
  C  2417  1  0.34397400  0.74990800  0.26817900  1
  C  2421  1  0.38939000  0.76227800  0.26527200  1
  C  2423  1  0.36474800  0.69514400  0.22945000  1
  C  2425  1  0.38232900  0.71512300  0.70376000  1
  C  2426  1  0.39697600  0.72580400  0.69341000  1
  C  2427  1  0.39111900  0.73529400  0.67715700  1
  C  2428  1  0.37049200  0.73386400  0.66977300  1
  C  2429  1  0.35573000  0.72205400  0.67929400  1
  C  2432  1  0.36107000  0.71408700  0.69701100  1
  C  2433  1  0.33464900  0.71745200  0.67082200  1
  C  2437  1  0.34398200  0.70553000  0.70864600  1
  C  2441  1  0.38937400  0.70844500  0.72109100  1
  C  2443  1  0.36485000  0.74433400  0.65395800  1
  C  2445  1  0.38233400  0.29976600  0.22870900  1
  C  2446  1  0.39697700  0.28910300  0.23908300  1
  C  2447  1  0.39110300  0.27961800  0.25533400  1
  C  2448  1  0.37047500  0.28106400  0.26271100  1
  C  2449  1  0.35572200  0.29286800  0.25317400  1
  C  2452  1  0.36107000  0.30081300  0.23544900  1
  C  2453  1  0.33464200  0.29749700  0.26163700  1
  C  2457  1  0.34399000  0.30935900  0.22379600  1
  C  2461  1  0.38938900  0.30643400  0.21137800  1
  C  2463  1  0.36482600  0.27062100  0.27854100  1
  C  2465  1  0.03587500  0.10987800  0.23021900  1
  C  2466  1  0.01954700  0.11905600  0.22039400  1
  C  2467  1  0.99833800  0.11836000  0.22621700  1
  C  2468  1  0.99245900  0.10903800  0.24261600  1
  C  2469  1  0.00893500  0.10076200  0.25357900  1
  C  2472  1  0.03033400  0.10002200  0.24670700  1
  C  2473  1  0.00421000  0.09278200  0.27236700  1
  C  2477  1  0.04638500  0.08820400  0.25647900  1
  C  2481  1  0.05548500  0.10864100  0.22115600  1
  C  2483  1  0.97089100  0.10775000  0.24738400  1
  C  2485  1  0.03587500  0.90496300  0.70223500  1
  C  2486  1  0.01955300  0.89576300  0.71204900  1
  C  2487  1  0.99834000  0.89647500  0.70623700  1
  C  2488  1  0.99245800  0.90580300  0.68984200  1
  C  2489  1  0.00893100  0.91408200  0.67887900  1
  C  2492  1  0.03033100  0.91482000  0.68574900  1
  C  2493  1  0.00420100  0.92206800  0.66009500  1
  C  2497  1  0.04638000  0.92664200  0.67597900  1
  C  2501  1  0.05548100  0.90621000  0.71130400  1
  C  2503  1  0.97088600  0.90710300  0.68508400  1
  C  2505  1  0.03584700  0.74348000  0.06868700  1
  C  2506  1  0.01955800  0.75338200  0.07783800  1
  C  2507  1  0.99831800  0.74764900  0.07712500  1
  C  2508  1  0.99236800  0.73126600  0.06781100  1
  C  2509  1  0.00879100  0.72022000  0.05957100  1
  C  2512  1  0.03023300  0.72699200  0.05886200  1
  C  2513  1  0.00395600  0.70145400  0.05159200  1
  C  2517  1  0.04625100  0.71711800  0.04709500  1
  C  2521  1  0.05548300  0.75249500  0.06741100  1
  C  2523  1  0.97076600  0.72664100  0.06642900  1
  C  2525  1  0.03588000  0.27145000  0.86380300  1
  C  2526  1  0.01956200  0.26163300  0.85460500  1
  C  2527  1  0.99834800  0.26744100  0.85531500  1
  C  2528  1  0.99246100  0.28383700  0.86464100  1
  C  2529  1  0.00893200  0.29480500  0.87291800  1
  C  2532  1  0.03033300  0.28793700  0.87366000  1
  C  2533  1  0.00419800  0.31358900  0.88090000  1
  C  2537  1  0.04637900  0.29771200  0.88547900  1
  C  2541  1  0.05548800  0.26238600  0.86505500  1
  C  2543  1  0.97089100  0.28859200  0.86593800  1
  C  2545  1  0.98739000  0.90501100  0.23021900  1
  C  2546  1  0.00369400  0.89585900  0.22033900  1
  C  2547  1  0.02492100  0.89655400  0.22611300  1
  C  2548  1  0.03084200  0.90584400  0.24251600  1
  C  2549  1  0.01439700  0.91409000  0.25353600  1
  C  2552  1  0.99297400  0.91482900  0.24671800  1
  C  2553  1  0.01918300  0.92203700  0.27232500  1
  C  2557  1  0.97694800  0.92661600  0.25655800  1
  C  2561  1  0.96776400  0.90628100  0.22118700  1
  C  2563  1  0.05243300  0.90717200  0.24720500  1
  C  2565  1  0.98734700  0.10989700  0.70223100  1
  C  2566  1  0.00370200  0.11908400  0.71201100  1
  C  2567  1  0.02489800  0.11836300  0.70615100  1
  C  2568  1  0.03072700  0.10904300  0.68973600  1
  C  2569  1  0.01421200  0.10078500  0.67880400  1
  C  2572  1  0.99283600  0.10003900  0.68573000  1
  C  2573  1  0.01887000  0.09282700  0.65999500  1
  C  2577  1  0.97675800  0.08821100  0.67600400  1
  C  2581  1  0.96775400  0.10867800  0.71132600  1
  C  2583  1  0.05228100  0.10774500  0.68491800  1
  C  2585  1  0.98741000  0.27141200  0.06867400  1
  C  2586  1  0.00369400  0.26152800  0.07784700  1
  C  2587  1  0.02493000  0.26727600  0.07715300  1
  C  2588  1  0.03088000  0.28365800  0.06783600  1
  C  2589  1  0.01445800  0.29468000  0.05956100  1
  C  2592  1  0.99302200  0.28789100  0.05883500  1
  C  2593  1  0.01928300  0.31344200  0.05156500  1
  C  2597  1  0.97700800  0.29774400  0.04704500  1
  C  2601  1  0.96777800  0.26239000  0.06739300  1
  C  2603  1  0.05247500  0.28831700  0.06650200  1
  C  2605  1  0.98738000  0.74343200  0.86379100  1
  C  2606  1  0.00370100  0.75325000  0.85459600  1
  C  2607  1  0.02491500  0.74744100  0.85530600  1
  C  2608  1  0.03079900  0.73104300  0.86462900  1
  C  2609  1  0.01432700  0.72007400  0.87290300  1
  C  2612  1  0.99292700  0.72694300  0.87364400  1
  C  2613  1  0.01905900  0.70128900  0.88088300  1
  C  2617  1  0.97687900  0.71716600  0.88546100  1
  C  2621  1  0.96777300  0.75249800  0.86504300  1
  C  2623  1  0.05237000  0.72628600  0.86592800  1
  C  2625  1  0.53681800  0.60918100  0.72425700  1
  C  2626  1  0.52084400  0.61856400  0.71416300  1
  C  2627  1  0.49941300  0.61784100  0.71938100  1
  C  2628  1  0.49291700  0.60824800  0.73543100  1
  C  2629  1  0.50897600  0.59971000  0.74667800  1
  C  2632  1  0.53062500  0.59906000  0.74041100  1
  C  2633  1  0.50359300  0.59141000  0.76519700  1
  C  2637  1  0.54628200  0.58706000  0.75045600  1
  C  2641  1  0.55683000  0.60812400  0.71577000  1
  C  2643  1  0.47117200  0.60669100  0.73950000  1
  C  2645  1  0.53685900  0.40568300  0.20822900  1
  C  2646  1  0.52085700  0.39627200  0.21826100  1
  C  2647  1  0.49944100  0.39700900  0.21299000  1
  C  2648  1  0.49300100  0.40662000  0.19693300  1
  C  2649  1  0.50910100  0.41516500  0.18573500  1
  C  2652  1  0.53072400  0.41582500  0.19207000  1
  C  2653  1  0.50379500  0.42345400  0.16719500  1
  C  2657  1  0.54640900  0.42785100  0.18209400  1
  C  2661  1  0.55685400  0.40670800  0.21674900  1
  C  2663  1  0.47128000  0.40813600  0.19276600  1
  C  2665  1  0.53682100  0.24943500  0.56797000  1
  C  2666  1  0.52084700  0.25954500  0.57733600  1
  C  2667  1  0.49941100  0.25434500  0.57659200  1
  C  2668  1  0.49290900  0.23829700  0.56700100  1
  C  2669  1  0.50896600  0.22702800  0.55848900  1
  C  2672  1  0.53062500  0.23327600  0.55785700  1
  C  2673  1  0.50356900  0.20851300  0.55019300  1
  C  2677  1  0.54628400  0.22320900  0.54588000  1
  C  2681  1  0.55683800  0.25791400  0.56691400  1
  C  2683  1  0.47115300  0.23427400  0.56539400  1
  C  2685  1  0.53686300  0.76546600  0.36451700  1
  C  2686  1  0.52086600  0.75543100  0.35510400  1
  C  2687  1  0.49944900  0.76069600  0.35584200  1
  C  2688  1  0.49300400  0.77675300  0.36545000  1
  C  2689  1  0.50909900  0.78795400  0.37399600  1
  C  2692  1  0.53072400  0.78162300  0.37465700  1
  C  2693  1  0.50378900  0.80649400  0.38228300  1
  C  2697  1  0.54640600  0.79160400  0.38668500  1
  C  2701  1  0.55686200  0.75695000  0.36554400  1
  C  2703  1  0.47128100  0.78091600  0.36696200  1
  C  2705  1  0.48640800  0.40573000  0.72425300  1
  C  2706  1  0.50238900  0.39635500  0.71416100  1
  C  2707  1  0.52381700  0.39707600  0.71939200  1
  C  2708  1  0.53030100  0.40665600  0.73545400  1
  C  2709  1  0.51422900  0.41517500  0.74670500  1
  C  2712  1  0.49258600  0.41583600  0.74042100  1
  C  2713  1  0.51959200  0.42344000  0.76524200  1
  C  2717  1  0.47692400  0.42783300  0.75046300  1
  C  2721  1  0.46639700  0.40678500  0.71576200  1
  C  2723  1  0.55204700  0.40819400  0.73954000  1
  C  2725  1  0.48635100  0.60916800  0.20823600  1
  C  2726  1  0.50238200  0.61857400  0.21823900  1
  C  2727  1  0.52378400  0.61782100  0.21293200  1
  C  2728  1  0.53018100  0.60820600  0.19686500  1
  C  2729  1  0.51404700  0.59967400  0.18569400  1
  C  2732  1  0.49244200  0.59901700  0.19207300  1
  C  2733  1  0.51929600  0.59139900  0.16713400  1
  C  2737  1  0.47672900  0.58698500  0.18213400  1
  C  2741  1  0.46636500  0.60817400  0.21677600  1
  C  2743  1  0.55188700  0.60669400  0.19264400  1
  C  2745  1  0.48643500  0.76545000  0.56797500  1
  C  2746  1  0.50240500  0.75536000  0.57736600  1
  C  2747  1  0.52383800  0.76057700  0.57664100  1
  C  2748  1  0.53033700  0.77661900  0.56703600  1
  C  2749  1  0.51428000  0.78786500  0.55849600  1
  C  2752  1  0.49262900  0.78160100  0.55785000  1
  C  2753  1  0.51966600  0.80637900  0.55018800  1
  C  2757  1  0.47697200  0.79164400  0.54584800  1
  C  2761  1  0.46642200  0.75696300  0.56691800  1
  C  2763  1  0.55208200  0.78068600  0.56548000  1
  C  2765  1  0.48638600  0.24943700  0.36452400  1
  C  2766  1  0.50238600  0.25946900  0.35511100  1
  C  2767  1  0.52380300  0.25420100  0.35585000  1
  C  2768  1  0.53024400  0.23814400  0.36546100  1
  C  2769  1  0.51414500  0.22694600  0.37400600  1
  C  2772  1  0.49252300  0.23328000  0.37466600  1
  C  2773  1  0.51945200  0.20840600  0.38229600  1
  C  2777  1  0.47683600  0.22330100  0.38669200  1
  C  2781  1  0.46638900  0.25795500  0.36554700  1
  C  2783  1  0.55196500  0.23397800  0.36697500  1
  N  44  1  0.14300600  0.06140800  0.27838400  1
  N  45  1  0.07434300  0.11291900  0.22654100  1
  N  46  1  0.21697100  0.14554500  0.27343000  1
  N  47  1  0.14605100  0.17987100  0.20518900  1
  N  91  1  0.14300700  0.95345000  0.65407900  1
  N  92  1  0.07434400  0.90193800  0.70592500  1
  N  93  1  0.21699500  0.86934600  0.65903700  1
  N  94  1  0.14609000  0.83499700  0.72730200  1
  N  138  1  0.14300900  0.69528100  0.02022600  1
  N  139  1  0.07433200  0.74709000  0.07169400  1
  N  140  1  0.21698700  0.70027500  0.10433300  1
  N  141  1  0.14601700  0.76851200  0.13866900  1
  N  185  1  0.14293500  0.31959400  0.91227800  1
  N  186  1  0.07434800  0.26776600  0.86077800  1
  N  187  1  0.21698800  0.31465600  0.82816900  1
  N  188  1  0.14607800  0.24638000  0.79382600  1
  N  232  1  0.88017600  0.95347300  0.27840700  1
  N  233  1  0.94891000  0.90199900  0.22658300  1
  N  234  1  0.80626400  0.86933400  0.27341300  1
  N  235  1  0.87724700  0.83502000  0.20518600  1
  N  279  1  0.88030200  0.06142100  0.65411600  1
  N  280  1  0.94888800  0.11295100  0.70596000  1
  N  281  1  0.80624400  0.14552100  0.65905400  1
  N  282  1  0.87716600  0.17986200  0.72733700  1
  N  326  1  0.88020000  0.31963500  0.02021400  1
  N  327  1  0.94892800  0.26779100  0.07167200  1
  N  328  1  0.80627500  0.31460600  0.10433500  1
  N  329  1  0.87725200  0.24635800  0.13864300  1
  N  373  1  0.88029600  0.69529900  0.91226100  1
  N  374  1  0.94891300  0.74711900  0.86076300  1
  N  375  1  0.80626700  0.70024000  0.82814900  1
  N  376  1  0.87724000  0.76852000  0.79382100  1
  N  420  1  0.87365100  0.95713300  0.67103700  1
  N  421  1  0.95804400  0.89315200  0.68543300  1
  N  422  1  0.80425200  0.86500900  0.66628100  1
  N  423  1  0.88884400  0.82243600  0.70483400  1
  N  467  1  0.87374000  0.05764600  0.26124800  1
  N  468  1  0.95805500  0.12170600  0.24702500  1
  N  469  1  0.80425800  0.14980900  0.26621200  1
  N  470  1  0.88883200  0.19242000  0.22762800  1
  N  514  1  0.87374000  0.30245700  0.91604900  1
  N  515  1  0.95805400  0.28824500  0.85198400  1
  N  516  1  0.80425500  0.30739600  0.82387200  1
  N  517  1  0.88884700  0.26882500  0.78128300  1
  N  561  1  0.87363200  0.71233200  0.01652600  1
  N  562  1  0.95805200  0.72674700  0.08046800  1
  N  563  1  0.80431200  0.70746800  0.10866200  1
  N  564  1  0.88888400  0.74609500  0.15123100  1
  N  608  1  0.14966400  0.05768600  0.67115600  1
  N  609  1  0.06524000  0.12161100  0.68539600  1
  N  610  1  0.21903400  0.14985200  0.66631100  1
  N  611  1  0.13437700  0.19240700  0.70487100  1
  N  655  1  0.14956700  0.95719800  0.26130300  1
  N  656  1  0.06520700  0.89317700  0.24696600  1
  N  657  1  0.21897800  0.86503700  0.26621200  1
  N  658  1  0.13439300  0.82246100  0.22760900  1
  N  702  1  0.14954600  0.71233600  0.91600700  1
  N  703  1  0.06521100  0.72664000  0.85197600  1
  N  704  1  0.21901000  0.70747900  0.82385700  1
  N  705  1  0.13439300  0.74604200  0.78127500  1
  N  749  1  0.14952300  0.30261600  0.01655000  1
  N  750  1  0.06517900  0.28815900  0.08054800  1
  N  751  1  0.21895800  0.30741300  0.10863500  1
  N  752  1  0.13438200  0.26881000  0.15124500  1
  N  796  1  0.64215400  0.56187500  0.77815300  1
  N  797  1  0.57551400  0.61240000  0.72169100  1
  N  798  1  0.71236900  0.65055600  0.78118800  1
  N  799  1  0.64654400  0.68079300  0.70579500  1
  N  843  1  0.64215500  0.45300100  0.15433500  1
  N  844  1  0.57554400  0.40243500  0.21083900  1
  N  845  1  0.71237000  0.36430800  0.15128100  1
  N  846  1  0.64659300  0.33408900  0.22670700  1
  N  890  1  0.64216700  0.19551900  0.52068700  1
  N  891  1  0.57551900  0.25199300  0.57119400  1
  N  892  1  0.71237300  0.19250300  0.60935900  1
  N  893  1  0.64652700  0.26791500  0.63958400  1
  N  937  1  0.64215900  0.81936400  0.41181900  1
  N  938  1  0.57554900  0.76286300  0.36127200  1
  N  939  1  0.71237600  0.82240400  0.32312200  1
  N  940  1  0.64658900  0.74698300  0.29291200  1
  N  984  1  0.38106400  0.45301700  0.77814800  1
  N  985  1  0.44771500  0.40250700  0.72168100  1
  N  986  1  0.31087300  0.36433400  0.78118500  1
  N  987  1  0.37673000  0.33410800  0.70578400  1
  N  1031  1  0.38108000  0.56188300  0.15434500  1
  N  1032  1  0.44767500  0.61244900  0.21087100  1
  N  1033  1  0.31085500  0.65056600  0.15130300  1
  N  1034  1  0.37665400  0.68077500  0.22674100  1
  N  1078  1  0.38106700  0.81935400  0.52068600  1
  N  1079  1  0.44773800  0.76288400  0.57119200  1
  N  1080  1  0.31086600  0.82234000  0.60935800  1
  N  1081  1  0.37676000  0.74695300  0.63957900  1
  N  1125  1  0.38110500  0.19554300  0.41180400  1
  N  1126  1  0.44770300  0.25204400  0.36126900  1
  N  1127  1  0.31089500  0.19250300  0.32308000  1
  N  1128  1  0.37673800  0.26792900  0.29290700  1
  N  1172  1  0.37387100  0.45797200  0.17179500  1
  N  1173  1  0.45893800  0.39387800  0.19135100  1
  N  1174  1  0.30862800  0.36198100  0.15357400  1
  N  1175  1  0.38920000  0.32284300  0.20408800  1
  N  1219  1  0.37394700  0.55690300  0.76066800  1
  N  1220  1  0.45895100  0.62100800  0.74106400  1
  N  1221  1  0.30866900  0.65288100  0.77893000  1
  N  1222  1  0.38918300  0.69203300  0.72837500  1
  N  1266  1  0.37392200  0.80188700  0.41679700  1
  N  1267  1  0.45894500  0.78233100  0.35270200  1
  N  1268  1  0.30863100  0.82010800  0.32080800  1
  N  1269  1  0.38920300  0.76957100  0.28168000  1
  N  1313  1  0.37382200  0.21300800  0.51573000  1
  N  1314  1  0.45892600  0.23265300  0.57969900  1
  N  1315  1  0.30868200  0.19479700  0.61172200  1
  N  1316  1  0.38924400  0.24534900  0.65083100  1
  N  1360  1  0.64945700  0.55692600  0.17177400  1
  N  1361  1  0.56433800  0.62088800  0.19132200  1
  N  1362  1  0.71465300  0.65292100  0.15361700  1
  N  1363  1  0.63401600  0.69201900  0.20412700  1
  N  1407  1  0.64936100  0.45798400  0.76067200  1
  N  1408  1  0.56431600  0.39390700  0.74106100  1
  N  1409  1  0.71459100  0.36199000  0.77888800  1
  N  1410  1  0.63403300  0.32286700  0.72835600  1
  N  1454  1  0.64933400  0.21299700  0.41680000  1
  N  1455  1  0.56430100  0.23256000  0.35271400  1
  N  1456  1  0.71460600  0.19481000  0.32078900  1
  N  1457  1  0.63401300  0.24531000  0.28168100  1
  N  1501  1  0.64933900  0.80186200  0.51571600  1
  N  1502  1  0.56430100  0.78225900  0.57979900  1
  N  1503  1  0.71455200  0.82011900  0.61175500  1
  N  1504  1  0.63400000  0.76956100  0.65083500  1
