# generated using pymatgen
data_H16(C4N)5
_symmetry_space_group_name_H-M   'P 1'
_cell_length_a   38.74980000
_cell_length_b   38.74980000
_cell_length_c   38.74980000
_cell_angle_alpha   90.00000000
_cell_angle_beta   90.00000000
_cell_angle_gamma   90.00000000
_symmetry_Int_Tables_number   1
_chemical_formula_structural   H16(C4N)5
_chemical_formula_sum   'H384 C480 N120'
_cell_volume   58184.64594215
_cell_formula_units_Z   24
loop_
 _symmetry_equiv_pos_site_id
 _symmetry_equiv_pos_as_xyz
  1  'x, y, z'
loop_
 _atom_site_type_symbol
 _atom_site_label
 _atom_site_symmetry_multiplicity
 _atom_site_fract_x
 _atom_site_fract_y
 _atom_site_fract_z
 _atom_site_occupancy
  H  7  1  0.01625700  0.52479500  0.54815800  1
  H  16  1  0.03721100  0.49134200  0.44678900  1
  H  17  1  0.00677700  0.62286800  0.41107800  1
  H  18  1  0.03066100  0.59739400  0.38693400  1
  H  19  1  0.98717400  0.39149900  0.57663300  1
  H  20  1  0.99981900  0.41889800  0.60629500  1
  H  21  1  0.98859800  0.45339300  0.47156900  1
  H  22  1  0.97489800  0.55545100  0.50763400  1
  H  27  1  0.06211400  0.53011600  0.38026000  1
  H  28  1  0.95909100  0.39511900  0.50226300  1
  H  29  1  0.03804300  0.49128500  0.60586600  1
  H  30  1  0.96418500  0.61600600  0.49033800  1
  H  37  1  0.55342700  0.01692700  0.51795400  1
  H  46  1  0.45124900  0.03868300  0.48567200  1
  H  47  1  0.41223700  0.00936800  0.61620400  1
  H  48  1  0.38874500  0.03297200  0.58995900  1
  H  49  1  0.57553300  0.98579800  0.38384500  1
  H  50  1  0.60667100  0.99738800  0.41011600  1
  H  51  1  0.47364400  0.98838400  0.45072200  1
  H  52  1  0.51274600  0.98076400  0.55336300  1
  H  57  1  0.38417200  0.06463900  0.52261900  1
  H  58  1  0.48623500  0.97638200  0.38917100  1
  H  59  1  0.60988700  0.03628900  0.48213700  1
  H  60  1  0.48117100  0.96176700  0.61027100  1
  H  67  1  0.51782500  0.55250900  0.01635300  1
  H  76  1  0.48532100  0.45058000  0.03858300  1
  H  77  1  0.61586100  0.41144200  0.00936200  1
  H  78  1  0.58965500  0.38809500  0.03315000  1
  H  79  1  0.38389600  0.57530600  0.98503500  1
  H  80  1  0.41047200  0.60635900  0.99621700  1
  H  81  1  0.45011600  0.47294700  0.98832000  1
  H  82  1  0.55290600  0.51170300  0.98014700  1
  H  87  1  0.52240500  0.38376200  0.06504700  1
  H  88  1  0.38863200  0.48586600  0.97623500  1
  H  89  1  0.48173400  0.60925000  0.03569400  1
  H  90  1  0.60987700  0.48020600  0.96138800  1
  H  97  1  0.53156400  0.01954300  0.05634300  1
  H  106  1  0.53626600  0.98325900  0.95130500  1
  H  107  1  0.50299300  0.11340100  0.91434300  1
  H  108  1  0.52096000  0.08576700  0.88770500  1
  H  109  1  0.49789700  0.88809500  0.08826000  1
  H  110  1  0.51331400  0.91543700  0.11677400  1
  H  111  1  0.49227600  0.94965900  0.98334900  1
  H  112  1  0.49097300  0.05382700  0.02001700  1
  H  117  1  0.56055200  0.02783200  0.88940600  1
  H  118  1  0.46025000  0.89387300  0.02308400  1
  H  119  1  0.55376500  0.97952000  0.11631500  1
  H  120  1  0.46130000  0.10735400  0.98031500  1
  H  127  1  0.05575200  0.53117400  0.01911200  1
  H  136  1  0.95063700  0.53627600  0.98294700  1
  H  137  1  0.91389400  0.50311200  0.11317900  1
  H  138  1  0.88725300  0.52118700  0.08562200  1
  H  139  1  0.08756900  0.49763900  0.88761700  1
  H  140  1  0.11613300  0.51285200  0.91501100  1
  H  141  1  0.98253700  0.49259900  0.94906000  1
  H  142  1  0.01937900  0.49076100  0.05333900  1
  H  147  1  0.88866300  0.56051600  0.02815900  1
  H  148  1  0.02092400  0.46103200  0.89300100  1
  H  149  1  0.11566900  0.55348900  0.97895500  1
  H  150  1  0.98036600  0.46129000  0.10688500  1
  H  157  1  0.02266900  0.05119400  0.52267100  1
  H  166  1  0.98268600  0.95106800  0.52784800  1
  H  167  1  0.11112400  0.90778000  0.49530100  1
  H  168  1  0.08283900  0.88303400  0.51489500  1
  H  169  1  0.89172800  0.08975800  0.49420900  1
  H  170  1  0.92042000  0.11627400  0.51072300  1
  H  171  1  0.94962000  0.98341100  0.48014700  1
  H  172  1  0.05470900  0.01435700  0.47742900  1
  H  177  1  0.03463000  0.88942100  0.55432300  1
  H  178  1  0.89405100  0.02667800  0.45232200  1
  H  179  1  0.97364900  0.11203100  0.54933200  1
  H  180  1  0.10820100  0.97177300  0.45086200  1
  H  187  1  0.95546800  0.45161800  0.16529000  1
  H  194  1  0.98046200  0.51494500  0.35181600  1
  H  195  1  0.03211700  0.42386300  0.32305500  1
  H  196  1  0.01327300  0.54259900  0.17752100  1
  H  198  1  0.94113500  0.53036400  0.27279900  1
  H  199  1  0.97991500  0.55485400  0.27291200  1
  H  200  1  0.95455700  0.55198500  0.31056900  1
  H  202  1  0.95406200  0.42937800  0.25824600  1
  H  203  1  0.96469100  0.40748100  0.21970800  1
  H  204  1  0.92623900  0.43218800  0.22258400  1
  H  213  1  0.04112900  0.45542400  0.83294600  1
  H  220  1  0.02750200  0.53275100  0.65466900  1
  H  221  1  0.96087200  0.44899300  0.67281100  1
  H  222  1  0.98571800  0.54867900  0.83030400  1
  H  224  1  0.04605600  0.54929000  0.74723500  1
  H  225  1  0.03324600  0.57374000  0.71104100  1
  H  226  1  0.06846600  0.54462000  0.70802200  1
  H  228  1  0.03875100  0.44097800  0.73841900  1
  H  229  1  0.02971800  0.41654100  0.77575600  1
  H  230  1  0.06848400  0.44073500  0.77270300  1
  H  239  1  0.16745500  0.94808700  0.44493600  1
  H  246  1  0.35061300  0.97892900  0.51615000  1
  H  247  1  0.32566400  0.02454700  0.42082000  1
  H  248  1  0.17492300  0.01011300  0.53363900  1
  H  250  1  0.27144900  0.93919700  0.52999700  1
  H  251  1  0.26991100  0.97932100  0.55216300  1
  H  252  1  0.30796800  0.95441300  0.55255000  1
  H  254  1  0.26139200  0.94641200  0.42732600  1
  H  255  1  0.22395300  0.95586500  0.40309600  1
  H  256  1  0.22574600  0.91853100  0.42955800  1
  H  265  1  0.83389600  0.04749900  0.45086900  1
  H  272  1  0.65675900  0.02027700  0.52744300  1
  H  273  1  0.67631800  0.96402300  0.43670200  1
  H  274  1  0.83410700  0.98148100  0.53699400  1
  H  276  1  0.74892000  0.03933400  0.54587400  1
  H  277  1  0.71313400  0.02297400  0.56874900  1
  H  278  1  0.70913900  0.06114700  0.54376000  1
  H  280  1  0.73915200  0.04477200  0.43784000  1
  H  281  1  0.77618700  0.03938900  0.41190400  1
  H  282  1  0.77283200  0.07507700  0.44041000  1
  H  291  1  0.45239500  0.16554200  0.95458300  1
  H  298  1  0.51587600  0.35206600  0.97906800  1
  H  299  1  0.42304500  0.32427500  0.02807100  1
  H  300  1  0.54209300  0.17800500  0.01430000  1
  H  302  1  0.53236400  0.27242700  0.94147100  1
  H  303  1  0.55560300  0.27308800  0.98100600  1
  H  304  1  0.55363100  0.31035800  0.95500300  1
  H  306  1  0.43061400  0.25853500  0.95160000  1
  H  307  1  0.40825800  0.22027500  0.96228400  1
  H  308  1  0.43384000  0.22247300  0.92436300  1
  H  317  1  0.45624500  0.83377400  0.04465000  1
  H  324  1  0.52859100  0.65471000  0.02028300  1
  H  325  1  0.43980600  0.67597500  0.96157900  1
  H  326  1  0.54420100  0.83124500  0.98115800  1
  H  328  1  0.54882100  0.74650400  0.03912500  1
  H  329  1  0.57120000  0.71006300  0.02354300  1
  H  330  1  0.54520000  0.70694000  0.06111600  1
  H  332  1  0.44021100  0.73952900  0.04145900  1
  H  333  1  0.41564600  0.77738700  0.03544500  1
  H  334  1  0.44310900  0.77310800  0.07184400  1
  H  343  1  0.46585000  0.97579300  0.84906000  1
  H  350  1  0.52915600  0.96969300  0.65825900  1
  H  351  1  0.44475800  0.03220800  0.68581000  1
  H  352  1  0.55841600  0.02804900  0.82676000  1
  H  354  1  0.55497800  0.95062400  0.74893300  1
  H  355  1  0.57536300  0.96555800  0.71101000  1
  H  356  1  0.54863500  0.92837400  0.70981500  1
  H  358  1  0.44707800  0.95302400  0.75780500  1
  H  359  1  0.42476300  0.97287500  0.79228500  1
  H  360  1  0.44713000  0.93342100  0.79874500  1
  H  369  1  0.45839200  0.02131600  0.16168300  1
  H  376  1  0.54171900  0.03114000  0.34493100  1
  H  377  1  0.44746300  0.97918700  0.33216400  1
  H  378  1  0.55097300  0.96733100  0.17904800  1
  H  380  1  0.55738300  0.04379100  0.25111200  1
  H  381  1  0.58118500  0.02721700  0.28629000  1
  H  382  1  0.55895500  0.06709000  0.29001200  1
  H  384  1  0.44636400  0.04702900  0.25325500  1
  H  385  1  0.42101900  0.02666700  0.22125200  1
  H  386  1  0.44414400  0.06503300  0.21169400  1
  H  395  1  0.95860600  0.16984400  0.54798700  1
  H  402  1  0.96832700  0.34376400  0.46452900  1
  H  403  1  0.03787700  0.32936900  0.54675100  1
  H  404  1  0.02568700  0.16703400  0.46254200  1
  H  406  1  0.95378500  0.24992800  0.44978000  1
  H  407  1  0.96315600  0.28679900  0.42482300  1
  H  408  1  0.92883800  0.28761400  0.45515600  1
  H  410  1  0.95345800  0.26528900  0.55178300  1
  H  411  1  0.96159200  0.23118300  0.58082900  1
  H  412  1  0.92555300  0.22944800  0.55261200  1
  H  421  1  0.02764300  0.83043300  0.56318200  1
  H  428  1  0.03559400  0.66284700  0.46599200  1
  H  429  1  0.95065000  0.67023300  0.53298300  1
  H  430  1  0.98412600  0.83824400  0.46389100  1
  H  432  1  0.05433700  0.75707500  0.46558400  1
  H  433  1  0.04951600  0.72392600  0.43477600  1
  H  434  1  0.07663300  0.71784400  0.47118700  1
  H  436  1  0.02875700  0.73471300  0.56443400  1
  H  437  1  0.01535100  0.76836800  0.59200300  1
  H  438  1  0.05702100  0.76924300  0.57301200  1
  H  447  1  0.16111400  0.45836100  0.02110600  1
  H  454  1  0.34433700  0.54182200  0.03044200  1
  H  455  1  0.33159400  0.44718700  0.97918400  1
  H  456  1  0.17838500  0.55065000  0.96660400  1
  H  458  1  0.25050900  0.55760300  0.04288300  1
  H  459  1  0.28571800  0.58128000  0.02619300  1
  H  460  1  0.28938200  0.55930900  0.06621400  1
  H  462  1  0.25269600  0.44653600  0.04685100  1
  H  463  1  0.22071900  0.42105500  0.02662100  1
  H  464  1  0.21113600  0.44437600  0.06485900  1
  H  473  1  0.84860300  0.46594000  0.97552200  1
  H  480  1  0.65763400  0.52850600  0.96936500  1
  H  481  1  0.68543800  0.44430700  0.03203300  1
  H  482  1  0.82611000  0.55841800  0.02785200  1
  H  484  1  0.74823100  0.55475100  0.95049300  1
  H  485  1  0.71016100  0.57495300  0.96528700  1
  H  486  1  0.70921100  0.54817600  0.92813400  1
  H  488  1  0.75737700  0.44691300  0.95286700  1
  H  489  1  0.79195800  0.42468600  0.97264000  1
  H  490  1  0.79828300  0.44711700  0.93320200  1
  H  499  1  0.24851600  0.78286100  0.75461100  1
  H  508  1  0.26947000  0.74940800  0.65324200  1
  H  509  1  0.23903600  0.88093400  0.61753100  1
  H  510  1  0.26292000  0.85546000  0.59338700  1
  H  511  1  0.21943300  0.64956500  0.78308600  1
  H  512  1  0.23207800  0.67696400  0.81274800  1
  H  513  1  0.22085700  0.71145900  0.67802200  1
  H  514  1  0.20715700  0.81351700  0.71408700  1
  H  519  1  0.29437300  0.78818200  0.58671300  1
  H  520  1  0.19135000  0.65318500  0.70871600  1
  H  521  1  0.27030200  0.74935100  0.81231900  1
  H  522  1  0.19644400  0.87407200  0.69679100  1
  H  529  1  0.78568600  0.27499300  0.72440700  1
  H  538  1  0.68350800  0.29674900  0.69212500  1
  H  539  1  0.64449600  0.26743400  0.82265700  1
  H  540  1  0.62100400  0.29103800  0.79641200  1
  H  541  1  0.80779200  0.24386400  0.59029800  1
  H  542  1  0.83893000  0.25545400  0.61656900  1
  H  543  1  0.70590300  0.24645000  0.65717500  1
  H  544  1  0.74500500  0.23883000  0.75981600  1
  H  549  1  0.61643100  0.32270500  0.72907200  1
  H  550  1  0.71849400  0.23444800  0.59562400  1
  H  551  1  0.84214600  0.29435500  0.68859000  1
  H  552  1  0.71343000  0.21983300  0.81672400  1
  H  559  1  0.75008400  0.81057500  0.22280600  1
  H  568  1  0.71758000  0.70864600  0.24503600  1
  H  569  1  0.84812000  0.66950800  0.21581500  1
  H  570  1  0.82191400  0.64616100  0.23960300  1
  H  571  1  0.61615500  0.83337200  0.19148800  1
  H  572  1  0.64273100  0.86442500  0.20267000  1
  H  573  1  0.68237500  0.73101300  0.19477300  1
  H  574  1  0.78516500  0.76976900  0.18660000  1
  H  579  1  0.75466400  0.64182800  0.27150000  1
  H  580  1  0.62089100  0.74393200  0.18268800  1
  H  581  1  0.71399300  0.86731600  0.24214700  1
  H  582  1  0.84213600  0.73827200  0.16784100  1
  H  589  1  0.76382300  0.27760900  0.26279600  1
  H  598  1  0.76852500  0.24132500  0.15775800  1
  H  599  1  0.73525200  0.37146700  0.12079600  1
  H  600  1  0.75321900  0.34383300  0.09415770  1
  H  601  1  0.73015600  0.14616100  0.29471300  1
  H  602  1  0.74557300  0.17350300  0.32322700  1
  H  603  1  0.72453500  0.20772500  0.18980200  1
  H  604  1  0.72323200  0.31189300  0.22647000  1
  H  609  1  0.79281100  0.28589800  0.09585870  1
  H  610  1  0.69250900  0.15193900  0.22953700  1
  H  611  1  0.78602400  0.23758600  0.32276800  1
  H  612  1  0.69355900  0.36542000  0.18676800  1
  H  619  1  0.28801100  0.78924000  0.22556500  1
  H  628  1  0.18289600  0.79434200  0.18940000  1
  H  629  1  0.14615300  0.76117800  0.31963200  1
  H  630  1  0.11951200  0.77925300  0.29207500  1
  H  631  1  0.31982800  0.75570500  0.09406970  1
  H  632  1  0.34839200  0.77091800  0.12146400  1
  H  633  1  0.21479600  0.75066500  0.15551300  1
  H  634  1  0.25163800  0.74882700  0.25979200  1
  H  639  1  0.12092200  0.81858200  0.23461200  1
  H  640  1  0.25318300  0.71909800  0.09945370  1
  H  641  1  0.34792800  0.81155500  0.18540800  1
  H  642  1  0.21262500  0.71935600  0.31333800  1
  H  649  1  0.25492800  0.30926000  0.72912400  1
  H  658  1  0.21494500  0.20913400  0.73430100  1
  H  659  1  0.34338300  0.16584600  0.70175400  1
  H  660  1  0.31509800  0.14110000  0.72134800  1
  H  661  1  0.12398700  0.34782400  0.70066200  1
  H  662  1  0.15267900  0.37434000  0.71717600  1
  H  663  1  0.18187900  0.24147700  0.68660000  1
  H  664  1  0.28696800  0.27242300  0.68388200  1
  H  669  1  0.26688900  0.14748700  0.76077600  1
  H  670  1  0.12631000  0.28474400  0.65877500  1
  H  671  1  0.20590800  0.37009700  0.75578500  1
  H  672  1  0.34046000  0.22983900  0.65731500  1
  H  679  1  0.18772700  0.70968400  0.37174300  1
  H  686  1  0.21272100  0.77301100  0.55826900  1
  H  687  1  0.26437600  0.68192900  0.52950800  1
  H  688  1  0.24553200  0.80066500  0.38397400  1
  H  690  1  0.17339400  0.78843000  0.47925200  1
  H  691  1  0.21217400  0.81292000  0.47936500  1
  H  692  1  0.18681600  0.81005100  0.51702200  1
  H  694  1  0.18632100  0.68744400  0.46469900  1
  H  695  1  0.19695000  0.66554700  0.42616100  1
  H  696  1  0.15849800  0.69025400  0.42903700  1
  H  705  1  0.27338800  0.71349000  0.03939870  1
  H  712  1  0.25976100  0.79081700  0.86112200  1
  H  713  1  0.19313100  0.70705900  0.87926400  1
  H  714  1  0.21797700  0.80674500  0.03675670  1
  H  716  1  0.27831500  0.80735600  0.95368800  1
  H  717  1  0.26550500  0.83180600  0.91749400  1
  H  718  1  0.30072500  0.80268600  0.91447500  1
  H  720  1  0.27101000  0.69904400  0.94487200  1
  H  721  1  0.26197700  0.67460700  0.98220900  1
  H  722  1  0.30074300  0.69880100  0.97915600  1
  H  731  1  0.39971400  0.20615300  0.65138900  1
  H  738  1  0.58287200  0.23699500  0.72260300  1
  H  739  1  0.55792300  0.28261300  0.62727300  1
  H  740  1  0.40718200  0.26817900  0.74009200  1
  H  742  1  0.50370800  0.19726300  0.73645000  1
  H  743  1  0.50217000  0.23738700  0.75861600  1
  H  744  1  0.54022700  0.21247900  0.75900300  1
  H  746  1  0.49365100  0.20447800  0.63377900  1
  H  747  1  0.45621200  0.21393100  0.60954900  1
  H  748  1  0.45800500  0.17659700  0.63601100  1
  H  757  1  0.06615530  0.30556500  0.65732200  1
  H  764  1  0.88901800  0.27834300  0.73389600  1
  H  765  1  0.90857700  0.22208900  0.64315500  1
  H  766  1  0.06636630  0.23954700  0.74344700  1
  H  768  1  0.98117900  0.29740000  0.75232700  1
  H  769  1  0.94539300  0.28104000  0.77520200  1
  H  770  1  0.94139800  0.31921300  0.75021300  1
  H  772  1  0.97141100  0.30283800  0.64429300  1
  H  773  1  0.00844626  0.29745500  0.61835700  1
  H  774  1  0.00509126  0.33314300  0.64686300  1
  H  783  1  0.68465400  0.42360800  0.16103600  1
  H  790  1  0.74813500  0.61013200  0.18552100  1
  H  791  1  0.65530400  0.58234100  0.23452400  1
  H  792  1  0.77435200  0.43607100  0.22075300  1
  H  794  1  0.76462300  0.53049300  0.14792400  1
  H  795  1  0.78786200  0.53115400  0.18745900  1
  H  796  1  0.78589000  0.56842400  0.16145600  1
  H  798  1  0.66287300  0.51660100  0.15805300  1
  H  799  1  0.64051700  0.47834100  0.16873700  1
  H  800  1  0.66609900  0.48053900  0.13081600  1
  H  809  1  0.68850400  0.09183980  0.25110300  1
  H  816  1  0.76085000  0.91277600  0.22673600  1
  H  817  1  0.67206500  0.93404100  0.16803200  1
  H  818  1  0.77646000  0.08931080  0.18761100  1
  H  820  1  0.78108000  0.00456985  0.24557800  1
  H  821  1  0.80345900  0.96812900  0.22999600  1
  H  822  1  0.77745900  0.96500600  0.26756900  1
  H  824  1  0.67247000  0.99759500  0.24791200  1
  H  825  1  0.64790500  0.03545280  0.24189800  1
  H  826  1  0.67536800  0.03117380  0.27829700  1
  H  835  1  0.69810900  0.23385900  0.05551270  1
  H  842  1  0.76141500  0.22775900  0.86471200  1
  H  843  1  0.67701700  0.29027400  0.89226300  1
  H  844  1  0.79067500  0.28611500  0.03321270  1
  H  846  1  0.78723700  0.20869000  0.95538600  1
  H  847  1  0.80762200  0.22362400  0.91746300  1
  H  848  1  0.78089400  0.18644000  0.91626800  1
  H  850  1  0.67933700  0.21109000  0.96425800  1
  H  851  1  0.65702200  0.23094100  0.99873800  1
  H  852  1  0.67938900  0.19148700  0.00519768  1
  H  861  1  0.69065100  0.27938200  0.36813600  1
  H  868  1  0.77397800  0.28920600  0.55138400  1
  H  869  1  0.67972200  0.23725300  0.53861700  1
  H  870  1  0.78323200  0.22539700  0.38550100  1
  H  872  1  0.78964200  0.30185700  0.45756500  1
  H  873  1  0.81344400  0.28528300  0.49274300  1
  H  874  1  0.79121400  0.32515600  0.49646500  1
  H  876  1  0.67862300  0.30509500  0.45970800  1
  H  877  1  0.65327800  0.28473300  0.42770500  1
  H  878  1  0.67640300  0.32309900  0.41814700  1
  H  887  1  0.19086500  0.42791000  0.75444000  1
  H  894  1  0.20058600  0.60183000  0.67098200  1
  H  895  1  0.27013600  0.58743500  0.75320400  1
  H  896  1  0.25794600  0.42510000  0.66899500  1
  H  898  1  0.18604400  0.50799400  0.65623300  1
  H  899  1  0.19541500  0.54486500  0.63127600  1
  H  900  1  0.16109700  0.54568000  0.66160900  1
  H  902  1  0.18571700  0.52335500  0.75823600  1
  H  903  1  0.19385100  0.48924900  0.78728200  1
  H  904  1  0.15781200  0.48751400  0.75906500  1
  H  913  1  0.25990200  0.08849880  0.76963500  1
  H  920  1  0.26785300  0.92091300  0.67244500  1
  H  921  1  0.18290900  0.92829900  0.73943600  1
  H  922  1  0.21638500  0.09630980  0.67034400  1
  H  924  1  0.28659600  0.01514080  0.67203700  1
  H  925  1  0.28177500  0.98199200  0.64122900  1
  H  926  1  0.30889200  0.97591000  0.67764000  1
  H  928  1  0.26101600  0.99277900  0.77088700  1
  H  929  1  0.24761000  0.02643380  0.79845600  1
  H  930  1  0.28928000  0.02730880  0.77946500  1
  H  939  1  0.39337300  0.71642700  0.22755900  1
  H  946  1  0.57659600  0.79988800  0.23689500  1
  H  947  1  0.56385300  0.70525300  0.18563700  1
  H  948  1  0.41064400  0.80871600  0.17305700  1
  H  950  1  0.48276800  0.81566900  0.24933600  1
  H  951  1  0.51797700  0.83934600  0.23264600  1
  H  952  1  0.52164100  0.81737500  0.27266700  1
  H  954  1  0.48495500  0.70460200  0.25330400  1
  H  955  1  0.45297800  0.67912100  0.23307400  1
  H  956  1  0.44339500  0.70244200  0.27131200  1
  H  965  1  0.08086230  0.72400600  0.18197500  1
  H  972  1  0.88989300  0.78657200  0.17581800  1
  H  973  1  0.91769700  0.70237300  0.23848600  1
  H  974  1  0.05836930  0.81648400  0.23430500  1
  H  976  1  0.98049000  0.81281700  0.15694600  1
  H  977  1  0.94242000  0.83301900  0.17174000  1
  H  978  1  0.94147000  0.80624200  0.13458700  1
  H  980  1  0.98963600  0.70497900  0.15932000  1
  H  981  1  0.02421730  0.68275200  0.17909300  1
  H  982  1  0.03054230  0.70518300  0.13965500  1
  C  1  1  0.00246900  0.49301400  0.50617000  1
  C  2  1  0.00896700  0.50027600  0.54128300  1
  C  3  1  0.00615000  0.47458600  0.56700400  1
  C  4  1  0.99708600  0.44009000  0.55768500  1
  C  5  1  0.99092400  0.43265800  0.52207500  1
  C  6  1  0.99346300  0.45898600  0.49699900  1
  C  9  1  0.00528000  0.51942200  0.48066800  1
  C  10  1  0.98943200  0.55174000  0.48582200  1
  C  11  1  0.99377300  0.57935500  0.46227600  1
  C  12  1  0.01347500  0.57431300  0.43153500  1
  C  13  1  0.02908300  0.54138600  0.42606400  1
  C  14  1  0.02497600  0.51457500  0.45043800  1
  C  23  1  0.04846500  0.53477700  0.39920700  1
  C  24  1  0.98297300  0.39999200  0.51030200  1
  C  25  1  0.01389500  0.48439500  0.60046800  1
  C  26  1  0.97998200  0.61141500  0.47023200  1
  C  31  1  0.50989900  0.00322000  0.48839500  1
  C  32  1  0.54540700  0.00894700  0.49400800  1
  C  33  1  0.56993300  0.00482300  0.46731600  1
  C  34  1  0.55899900  0.99533400  0.43338800  1
  C  35  1  0.52305800  0.98963100  0.42749600  1
  C  36  1  0.49932100  0.99309900  0.45507100  1
  C  39  1  0.48522000  0.00824700  0.51534700  1
  C  40  1  0.49068900  0.99465300  0.54869400  1
  C  41  1  0.46653100  0.99955600  0.57561300  1
  C  42  1  0.43523300  0.01803800  0.56920800  1
  C  43  1  0.43027300  0.03274800  0.53582700  1
  C  44  1  0.45497000  0.02769900  0.50951500  1
  C  53  1  0.40323800  0.05145800  0.52808000  1
  C  54  1  0.51085900  0.98080000  0.39496700  1
  C  55  1  0.60387900  0.01216800  0.47560500  1
  C  56  1  0.47550400  0.98669900  0.60775300  1
  C  61  1  0.48802800  0.50907600  0.00284500  1
  C  62  1  0.49383000  0.54457300  0.00842600  1
  C  63  1  0.46727200  0.56921300  0.00420700  1
  C  64  1  0.43328500  0.55844900  0.99477100  1
  C  65  1  0.42716100  0.52250600  0.98932400  1
  C  66  1  0.45460900  0.49862200  0.99290000  1
  C  69  1  0.51493200  0.48434000  0.00785500  1
  C  70  1  0.54825300  0.48971900  0.99416000  1
  C  71  1  0.57519300  0.46561000  0.99917700  1
  C  72  1  0.56882900  0.43444300  0.01788800  1
  C  73  1  0.53547400  0.42957100  0.03268600  1
  C  74  1  0.50913300  0.45421600  0.02750700  1
  C  83  1  0.52780700  0.40270700  0.05167000  1
  C  84  1  0.39455900  0.51047700  0.98053100  1
  C  85  1  0.47574900  0.60311000  0.01146400  1
  C  86  1  0.60734000  0.47457500  0.98632500  1
  C  91  1  0.51262200  0.98848200  0.01578000  1
  C  92  1  0.52255700  0.99542900  0.05015800  1
  C  93  1  0.52034800  0.96997600  0.07616800  1
  C  94  1  0.50839200  0.93608200  0.06811800  1
  C  95  1  0.49858100  0.92891600  0.03335000  1
  C  96  1  0.50048800  0.95498300  0.00794700  1
  C  99  1  0.51400000  0.01473400  0.98982700  1
  C  100  1  0.50132100  0.04832400  0.99627900  1
  C  101  1  0.50135200  0.07409900  0.97046400  1
  C  102  1  0.51374200  0.06640800  0.93661900  1
  C  103  1  0.52674100  0.03256700  0.93011000  1
  C  104  1  0.52690600  0.00746800  0.95652300  1
  C  113  1  0.53690800  0.02226300  0.89757400  1
  C  114  1  0.48569300  0.89719400  0.02350100  1
  C  115  1  0.52908900  0.97957900  0.10933200  1
  C  116  1  0.48685900  0.10565300  0.97865500  1
  C  121  1  0.01509900  0.51248000  0.98801500  1
  C  122  1  0.04952000  0.52226600  0.99497300  1
  C  123  1  0.07551000  0.52007500  0.96949900  1
  C  124  1  0.06739500  0.50830200  0.93555800  1
  C  125  1  0.03255900  0.49876100  0.92832200  1
  C  126  1  0.00719500  0.50059100  0.95444300  1
  C  129  1  0.98917400  0.51387400  0.01430900  1
  C  130  1  0.99564900  0.50115100  0.04788100  1
  C  131  1  0.96991500  0.50129800  0.07373900  1
  C  132  1  0.93609500  0.51381200  0.06613900  1
  C  133  1  0.92954300  0.52682800  0.03231200  1
  C  134  1  0.95588600  0.52688000  0.00713500  1
  C  143  1  0.89699800  0.53706300  0.02207400  1
  C  144  1  0.02254000  0.48641000  0.89642300  1
  C  145  1  0.10868400  0.52881300  0.97908400  1
  C  146  1  0.97817000  0.48681800  0.10528900  1
  C  151  1  0.98992500  0.01348400  0.50108100  1
  C  152  1  0.99829100  0.04671200  0.51331400  1
  C  153  1  0.97354800  0.07343500  0.51402100  1
  C  154  1  0.93916600  0.06737200  0.50223000  1
  C  155  1  0.93070100  0.03370400  0.48989400  1
  C  156  1  0.95595600  0.00741500  0.48936200  1
  C  159  1  0.01489500  0.98647200  0.50197400  1
  C  160  1  0.04850700  0.99123100  0.48873300  1
  C  161  1  0.07349200  0.96470900  0.49033500  1
  C  162  1  0.06500300  0.93207400  0.50521800  1
  C  163  1  0.03118800  0.92755300  0.51918200  1
  C  164  1  0.00676600  0.95451300  0.51734200  1
  C  173  1  0.02024400  0.89735700  0.53466600  1
  C  174  1  0.89826000  0.02560000  0.47761000  1
  C  175  1  0.98436900  0.10462000  0.52727200  1
  C  176  1  0.10559900  0.97149400  0.47638900  1
  C  181  1  0.98506800  0.49731600  0.16516300  1
  C  182  1  0.00239300  0.52053200  0.18704100  1
  C  184  1  0.99054400  0.48576500  0.23680200  1
  C  185  1  0.97202800  0.46156100  0.21629000  1
  C  186  1  0.96969000  0.46796600  0.18041000  1
  C  188  1  0.99572900  0.48228600  0.27277800  1
  C  189  1  0.98344200  0.50621200  0.29780800  1
  C  190  1  0.98939600  0.49858100  0.33306700  1
  C  191  1  0.00715100  0.46843300  0.34293800  1
  C  192  1  0.01916700  0.44605900  0.31704900  1
  C  197  1  0.96364900  0.53761600  0.28809700  1
  C  201  1  0.95334700  0.43103400  0.23019900  1
  C  207  1  0.01289500  0.50174400  0.83787300  1
  C  208  1  0.99558700  0.52719200  0.81859800  1
  C  210  1  0.00563200  0.49689500  0.76572800  1
  C  211  1  0.02372100  0.47034300  0.78349600  1
  C  212  1  0.02699200  0.47341100  0.81973100  1
  C  214  1  0.00150500  0.49770600  0.72956000  1
  C  215  1  0.01906800  0.52107600  0.70734000  1
  C  216  1  0.01466600  0.51676100  0.67133200  1
  C  217  1  0.99380900  0.49010300  0.65775600  1
  C  218  1  0.97615200  0.46878200  0.68125000  1
  C  223  1  0.04296100  0.54862200  0.71930700  1
  C  227  1  0.04101100  0.44060600  0.76643200  1
  C  233  1  0.16496500  0.97962600  0.48925100  1
  C  234  1  0.18557000  0.99825800  0.51261200  1
  C  236  1  0.23702400  0.98530800  0.48083900  1
  C  237  1  0.21782000  0.96550700  0.45657000  1
  C  238  1  0.18168800  0.96310900  0.46136500  1
  C  240  1  0.27307000  0.99081800  0.47880000  1
  C  241  1  0.29706200  0.98041500  0.50461900  1
  C  242  1  0.33256900  0.98652600  0.49837700  1
  C  243  1  0.34366900  0.00260500  0.46772100  1
  C  244  1  0.31875300  0.01283800  0.44343700  1
  C  249  1  0.28609900  0.96232200  0.53663200  1
  C  253  1  0.23330200  0.94561000  0.42761000  1
  C  259  1  0.84024200  0.01416200  0.49347600  1
  C  260  1  0.82178500  0.99366200  0.51709900  1
  C  262  1  0.76818400  0.00594300  0.48899600  1
  C  263  1  0.78507200  0.02748800  0.46453700  1
  C  264  1  0.82128400  0.03115400  0.46735500  1
  C  266  1  0.73218700  0.00054900  0.48955600  1
  C  267  1  0.70962700  0.01469700  0.51483100  1
  C  268  1  0.67373800  0.00977700  0.51012100  1
  C  269  1  0.66064100  0.99169500  0.48129500  1
  C  270  1  0.68446500  0.97715600  0.45808500  1
  C  275  1  0.72107200  0.03564800  0.54487500  1
  C  279  1  0.76710600  0.04766800  0.43725100  1
  C  285  1  0.49739900  0.16553600  0.98522600  1
  C  286  1  0.52029400  0.18749500  0.00286400  1
  C  288  1  0.48598700  0.23726900  0.98976500  1
  C  289  1  0.46213700  0.21666000  0.97089300  1
  C  290  1  0.46845700  0.18073800  0.96905500  1
  C  292  1  0.48253900  0.27332300  0.99445900  1
  C  293  1  0.50692900  0.29811800  0.98260400  1
  C  294  1  0.49919200  0.33348300  0.98776000  1
  C  295  1  0.46845900  0.34368400  0.00428200  1
  C  296  1  0.44566700  0.31803000  0.01600500  1
  C  301  1  0.53892700  0.28805000  0.96397100  1
  C  305  1  0.43212100  0.23047400  0.95132900  1
  C  311  1  0.49995900  0.83875300  0.01254100  1
  C  312  1  0.52352500  0.81957100  0.99265800  1
  C  314  1  0.49335700  0.76690200  0.00405900  1
  C  315  1  0.46882300  0.78455900  0.02489000  1
  C  316  1  0.47273300  0.82064900  0.02871000  1
  C  318  1  0.49311000  0.73085800  0.99896000  1
  C  319  1  0.51742700  0.70780700  0.01396800  1
  C  320  1  0.51194100  0.67201100  0.00923700  1
  C  321  1  0.48323100  0.65946100  0.99059100  1
  C  322  1  0.46099600  0.68371400  0.97526200  1
  C  327  1  0.54722600  0.71866900  0.03557700  1
  C  331  1  0.44046700  0.76748800  0.04435800  1
  C  337  1  0.51325900  0.00197300  0.84404300  1
  C  338  1  0.53762300  0.01355500  0.81958300  1
  C  340  1  0.50429900  0.99074000  0.77284800  1
  C  341  1  0.47911500  0.97773700  0.79615900  1
  C  342  1  0.48415700  0.98393000  0.83177200  1
  C  344  1  0.49970100  0.99183500  0.73676800  1
  C  345  1  0.52171400  0.97592200  0.71209100  1
  C  346  1  0.51383700  0.98077700  0.67671800  1
  C  347  1  0.48538000  0.00103900  0.66628500  1
  C  348  1  0.46534900  0.01691400  0.69201900  1
  C  353  1  0.55179400  0.95395600  0.72118800  1
  C  357  1  0.44784200  0.95824700  0.78543600  1
  C  363  1  0.50540400  0.99415700  0.16421800  1
  C  364  1  0.53079500  0.98210300  0.18735100  1
  C  366  1  0.50118400  0.00670400  0.23570700  1
  C  367  1  0.47474600  0.01970900  0.21378400  1
  C  368  1  0.47732600  0.01270100  0.17802600  1
  C  370  1  0.50046200  0.00831900  0.27212800  1
  C  371  1  0.52711700  0.02266900  0.29292000  1
  C  372  1  0.52345600  0.02033400  0.32918900  1
  C  373  1  0.49487500  0.00363400  0.34443300  1
  C  374  1  0.46905300  0.99073000  0.32237600  1
  C  379  1  0.55777300  0.04113800  0.27909800  1
  C  383  1  0.44499600  0.04070600  0.22589100  1
  C  389  1  0.99257000  0.16224100  0.50593800  1
  C  390  1  0.01154900  0.18007800  0.48060600  1
  C  392  1  0.99394600  0.23465900  0.50305500  1
  C  393  1  0.97369800  0.21850000  0.52901400  1
  C  394  1  0.97337800  0.18203800  0.52984000  1
  C  396  1  0.99769300  0.27061300  0.50034300  1
  C  397  1  0.97883800  0.29164300  0.47695700  1
  C  398  1  0.98220400  0.32784900  0.48040000  1
  C  399  1  0.00350800  0.34251300  0.50612600  1
  C  400  1  0.02246000  0.32007100  0.52745000  1
  C  405  1  0.95487700  0.27803000  0.45028400  1
  C  409  1  0.95250000  0.23735400  0.55488800  1
  C  415  1  0.00608700  0.84050000  0.51406200  1
  C  416  1  0.99265500  0.82417700  0.48452900  1
  C  418  1  0.00244200  0.76833400  0.50857300  1
  C  419  1  0.01616600  0.78292300  0.53929000  1
  C  420  1  0.01762300  0.81932300  0.54144800  1
  C  422  1  0.99983000  0.73266200  0.50265300  1
  C  423  1  0.02306400  0.71372200  0.48151500  1
  C  424  1  0.01858900  0.67754700  0.47988600  1
  C  425  1  0.99156600  0.66093500  0.49783500  1
  C  426  1  0.96967700  0.68129600  0.51846700  1
  C  431  1  0.05243600  0.72921100  0.46229400  1
  C  435  1  0.03001300  0.76248400  0.56868200  1
  C  441  1  0.16358900  0.50524900  0.99372900  1
  C  442  1  0.18671000  0.53056000  0.98148400  1
  C  444  1  0.23510900  0.50111700  0.00621500  1
  C  445  1  0.21320500  0.47473500  0.01936900  1
  C  446  1  0.17743800  0.47726200  0.01237900  1
  C  448  1  0.27153900  0.50043100  0.00782500  1
  C  449  1  0.29232700  0.52717900  0.02200400  1
  C  450  1  0.32860300  0.52348900  0.01974600  1
  C  451  1  0.34386000  0.49477200  0.00329100  1
  C  452  1  0.32180300  0.46888200  0.99052100  1
  C  457  1  0.27849900  0.55796200  0.04025800  1
  C  461  1  0.22533500  0.44510900  0.04053000  1
  C  467  1  0.84348000  0.51327200  0.00180900  1
  C  468  1  0.81897200  0.53759500  0.01338600  1
  C  470  1  0.77229800  0.50414700  0.99061400  1
  C  471  1  0.79566600  0.47904200  0.97755800  1
  C  472  1  0.83127600  0.48419300  0.98369000  1
  C  474  1  0.73623100  0.49944300  0.99171600  1
  C  475  1  0.71148700  0.52132400  0.97572400  1
  C  476  1  0.67614000  0.51328300  0.98050000  1
  C  477  1  0.66579200  0.48479700  0.00077000  1
  C  478  1  0.69158500  0.46491800  0.01674200  1
  C  483  1  0.72049100  0.55142500  0.95374700  1
  C  487  1  0.78501300  0.44776000  0.95805100  1
  C  493  1  0.23472800  0.75108000  0.71262300  1
  C  494  1  0.24122600  0.75834200  0.74773600  1
  C  495  1  0.23840900  0.73265200  0.77345700  1
  C  496  1  0.22934500  0.69815600  0.76413800  1
  C  497  1  0.22318300  0.69072400  0.72852800  1
  C  498  1  0.22572200  0.71705200  0.70345200  1
  C  501  1  0.23753900  0.77748800  0.68712100  1
  C  502  1  0.22169100  0.80980600  0.69227500  1
  C  503  1  0.22603200  0.83742100  0.66872900  1
  C  504  1  0.24573400  0.83237900  0.63798800  1
  C  505  1  0.26134200  0.79945200  0.63251700  1
  C  506  1  0.25723500  0.77264100  0.65689100  1
  C  515  1  0.28072400  0.79284300  0.60566000  1
  C  516  1  0.21523200  0.65805800  0.71675500  1
  C  517  1  0.24615400  0.74246100  0.80692100  1
  C  518  1  0.21224100  0.86948100  0.67668500  1
  C  523  1  0.74215800  0.26128600  0.69484800  1
  C  524  1  0.77766600  0.26701300  0.70046100  1
  C  525  1  0.80219200  0.26288900  0.67376900  1
  C  526  1  0.79125800  0.25340000  0.63984100  1
  C  527  1  0.75531700  0.24769700  0.63394900  1
  C  528  1  0.73158000  0.25116500  0.66152400  1
  C  531  1  0.71747900  0.26631300  0.72180000  1
  C  532  1  0.72294800  0.25271900  0.75514700  1
  C  533  1  0.69879000  0.25762200  0.78206600  1
  C  534  1  0.66749200  0.27610400  0.77566100  1
  C  535  1  0.66253200  0.29081400  0.74228000  1
  C  536  1  0.68722900  0.28576500  0.71596800  1
  C  545  1  0.63549700  0.30952400  0.73453300  1
  C  546  1  0.74311800  0.23886600  0.60142000  1
  C  547  1  0.83613800  0.27023400  0.68205800  1
  C  548  1  0.70776300  0.24476500  0.81420600  1
  C  553  1  0.72028700  0.76714200  0.20929800  1
  C  554  1  0.72608900  0.80263900  0.21487900  1
  C  555  1  0.69953100  0.82727900  0.21066000  1
  C  556  1  0.66554400  0.81651500  0.20122400  1
  C  557  1  0.65942000  0.78057200  0.19577700  1
  C  558  1  0.68686800  0.75668800  0.19935300  1
  C  561  1  0.74719100  0.74240600  0.21430800  1
  C  562  1  0.78051200  0.74778500  0.20061300  1
  C  563  1  0.80745200  0.72367600  0.20563000  1
  C  564  1  0.80108800  0.69250900  0.22434100  1
  C  565  1  0.76773300  0.68763700  0.23913900  1
  C  566  1  0.74139200  0.71228200  0.23396000  1
  C  575  1  0.76006600  0.66077300  0.25812300  1
  C  576  1  0.62681800  0.76854300  0.18698400  1
  C  577  1  0.70800800  0.86117600  0.21791700  1
  C  578  1  0.83959900  0.73264100  0.19277800  1
  C  583  1  0.74488100  0.24654800  0.22223300  1
  C  584  1  0.75481600  0.25349500  0.25661100  1
  C  585  1  0.75260700  0.22804200  0.28262100  1
  C  586  1  0.74065100  0.19414800  0.27457100  1
  C  587  1  0.73084000  0.18698200  0.23980300  1
  C  588  1  0.73274700  0.21304900  0.21440000  1
  C  591  1  0.74625900  0.27280000  0.19628000  1
  C  592  1  0.73358000  0.30639000  0.20273200  1
  C  593  1  0.73361100  0.33216500  0.17691700  1
  C  594  1  0.74600100  0.32447400  0.14307200  1
  C  595  1  0.75900000  0.29063300  0.13656300  1
  C  596  1  0.75916500  0.26553400  0.16297600  1
  C  605  1  0.76916700  0.28032900  0.10402700  1
  C  606  1  0.71795200  0.15526000  0.22995400  1
  C  607  1  0.76134800  0.23764500  0.31578500  1
  C  608  1  0.71911800  0.36371900  0.18510800  1
  C  613  1  0.24735800  0.77054600  0.19446800  1
  C  614  1  0.28177900  0.78033200  0.20142600  1
  C  615  1  0.30776900  0.77814100  0.17595200  1
  C  616  1  0.29965400  0.76636800  0.14201100  1
  C  617  1  0.26481800  0.75682700  0.13477500  1
  C  618  1  0.23945400  0.75865700  0.16089600  1
  C  621  1  0.22143300  0.77194000  0.22076200  1
  C  622  1  0.22790800  0.75921700  0.25433400  1
  C  623  1  0.20217400  0.75936400  0.28019200  1
  C  624  1  0.16835400  0.77187800  0.27259200  1
  C  625  1  0.16180200  0.78489400  0.23876500  1
  C  626  1  0.18814500  0.78494600  0.21358800  1
  C  635  1  0.12925700  0.79512900  0.22852700  1
  C  636  1  0.25479900  0.74447600  0.10287600  1
  C  637  1  0.34094300  0.78687900  0.18553700  1
  C  638  1  0.21042900  0.74488400  0.31174200  1
  C  643  1  0.22218400  0.27155000  0.70753400  1
  C  644  1  0.23055000  0.30477800  0.71976700  1
  C  645  1  0.20580700  0.33150100  0.72047400  1
  C  646  1  0.17142500  0.32543800  0.70868300  1
  C  647  1  0.16296000  0.29177000  0.69634700  1
  C  648  1  0.18821500  0.26548100  0.69581500  1
  C  651  1  0.24715400  0.24453800  0.70842700  1
  C  652  1  0.28076600  0.24929700  0.69518600  1
  C  653  1  0.30575100  0.22277500  0.69678800  1
  C  654  1  0.29726200  0.19014000  0.71167100  1
  C  655  1  0.26344700  0.18561900  0.72563500  1
  C  656  1  0.23902500  0.21257900  0.72379500  1
  C  665  1  0.25250300  0.15542300  0.74111900  1
  C  666  1  0.13051900  0.28366600  0.68406300  1
  C  667  1  0.21662800  0.36268600  0.73372500  1
  C  668  1  0.33785800  0.22956000  0.68284200  1
  C  673  1  0.21732700  0.75538200  0.37161600  1
  C  674  1  0.23465200  0.77859800  0.39349400  1
  C  676  1  0.22280300  0.74383100  0.44325500  1
  C  677  1  0.20428700  0.71962700  0.42274300  1
  C  678  1  0.20194900  0.72603200  0.38686300  1
  C  680  1  0.22798800  0.74035200  0.47923100  1
  C  681  1  0.21570100  0.76427800  0.50426100  1
  C  682  1  0.22165500  0.75664700  0.53952000  1
  C  683  1  0.23941000  0.72649900  0.54939100  1
  C  684  1  0.25142600  0.70412500  0.52350200  1
  C  689  1  0.19590800  0.79568200  0.49455000  1
  C  693  1  0.18560600  0.68910000  0.43665200  1
  C  699  1  0.24515400  0.75981000  0.04432570  1
  C  700  1  0.22784600  0.78525800  0.02505070  1
  C  702  1  0.23789100  0.75496100  0.97218100  1
  C  703  1  0.25598000  0.72840900  0.98994900  1
  C  704  1  0.25925100  0.73147700  0.02618370  1
  C  706  1  0.23376400  0.75577200  0.93601300  1
  C  707  1  0.25132700  0.77914200  0.91379300  1
  C  708  1  0.24692500  0.77482700  0.87778500  1
  C  709  1  0.22606800  0.74816900  0.86420900  1
  C  710  1  0.20841100  0.72684800  0.88770300  1
  C  715  1  0.27522000  0.80668800  0.92576000  1
  C  719  1  0.27327000  0.69867200  0.97288500  1
  C  725  1  0.39722400  0.23769200  0.69570400  1
  C  726  1  0.41782900  0.25632400  0.71906500  1
  C  728  1  0.46928300  0.24337400  0.68729200  1
  C  729  1  0.45007900  0.22357300  0.66302300  1
  C  730  1  0.41394700  0.22117500  0.66781800  1
  C  732  1  0.50532900  0.24888400  0.68525300  1
  C  733  1  0.52932100  0.23848100  0.71107200  1
  C  734  1  0.56482800  0.24459200  0.70483000  1
  C  735  1  0.57592800  0.26067100  0.67417400  1
  C  736  1  0.55101200  0.27090400  0.64989000  1
  C  741  1  0.51835800  0.22038800  0.74308500  1
  C  745  1  0.46556100  0.20367600  0.63406300  1
  C  751  1  0.07250130  0.27222800  0.69992900  1
  C  752  1  0.05404430  0.25172800  0.72355200  1
  C  754  1  0.00044326  0.26400900  0.69544900  1
  C  755  1  0.01733130  0.28555400  0.67099000  1
  C  756  1  0.05354330  0.28922000  0.67380800  1
  C  758  1  0.96444600  0.25861500  0.69600900  1
  C  759  1  0.94188600  0.27276300  0.72128400  1
  C  760  1  0.90599700  0.26784300  0.71657400  1
  C  761  1  0.89290000  0.24976100  0.68774800  1
  C  762  1  0.91672400  0.23522200  0.66453800  1
  C  767  1  0.95333100  0.29371400  0.75132800  1
  C  771  1  0.99936500  0.30573400  0.64370400  1
  C  777  1  0.72965800  0.42360200  0.19167900  1
  C  778  1  0.75255300  0.44556100  0.20931700  1
  C  780  1  0.71824600  0.49533500  0.19621800  1
  C  781  1  0.69439600  0.47472600  0.17734600  1
  C  782  1  0.70071600  0.43880400  0.17550800  1
  C  784  1  0.71479800  0.53138900  0.20091200  1
  C  785  1  0.73918800  0.55618400  0.18905700  1
  C  786  1  0.73145100  0.59154900  0.19421300  1
  C  787  1  0.70071800  0.60175000  0.21073500  1
  C  788  1  0.67792600  0.57609600  0.22245800  1
  C  793  1  0.77118600  0.54611600  0.17042400  1
  C  797  1  0.66438000  0.48854000  0.15778200  1
  C  803  1  0.73221800  0.09681880  0.21899400  1
  C  804  1  0.75578400  0.07763680  0.19911100  1
  C  806  1  0.72561600  0.02496780  0.21051200  1
  C  807  1  0.70108200  0.04262480  0.23134300  1
  C  808  1  0.70499200  0.07871480  0.23516300  1
  C  810  1  0.72536900  0.98892400  0.20541300  1
  C  811  1  0.74968600  0.96587300  0.22042100  1
  C  812  1  0.74420000  0.93007700  0.21569000  1
  C  813  1  0.71549000  0.91752700  0.19704400  1
  C  814  1  0.69325500  0.94178000  0.18171500  1
  C  819  1  0.77948500  0.97673500  0.24203000  1
  C  823  1  0.67272600  0.02555380  0.25081100  1
  C  829  1  0.74551800  0.26003900  0.05049570  1
  C  830  1  0.76988200  0.27162100  0.02603570  1
  C  832  1  0.73655800  0.24880600  0.97930100  1
  C  833  1  0.71137400  0.23580300  0.00261168  1
  C  834  1  0.71641600  0.24199600  0.03822470  1
  C  836  1  0.73196000  0.24990100  0.94322100  1
  C  837  1  0.75397300  0.23398800  0.91854400  1
  C  838  1  0.74609600  0.23884300  0.88317100  1
  C  839  1  0.71763900  0.25910500  0.87273800  1
  C  840  1  0.69760800  0.27498000  0.89847200  1
  C  845  1  0.78405300  0.21202200  0.92764100  1
  C  849  1  0.68010100  0.21631300  0.99188900  1
  C  855  1  0.73766300  0.25222300  0.37067100  1
  C  856  1  0.76305400  0.24016900  0.39380400  1
  C  858  1  0.73344300  0.26477000  0.44216000  1
  C  859  1  0.70700500  0.27777500  0.42023700  1
  C  860  1  0.70958500  0.27076700  0.38447900  1
  C  862  1  0.73272100  0.26638500  0.47858100  1
  C  863  1  0.75937600  0.28073500  0.49937300  1
  C  864  1  0.75571500  0.27840000  0.53564200  1
  C  865  1  0.72713400  0.26170000  0.55088600  1
  C  866  1  0.70131200  0.24879600  0.52882900  1
  C  871  1  0.79003200  0.29920400  0.48555100  1
  C  875  1  0.67725500  0.29877200  0.43234400  1
  C  881  1  0.22482900  0.42030700  0.71239100  1
  C  882  1  0.24380800  0.43814400  0.68705900  1
  C  884  1  0.22620500  0.49272500  0.70950800  1
  C  885  1  0.20595700  0.47656600  0.73546700  1
  C  886  1  0.20563700  0.44010400  0.73629300  1
  C  888  1  0.22995200  0.52867900  0.70679600  1
  C  889  1  0.21109700  0.54970900  0.68341000  1
  C  890  1  0.21446300  0.58591500  0.68685300  1
  C  891  1  0.23576700  0.60057900  0.71257900  1
  C  892  1  0.25471900  0.57813700  0.73390300  1
  C  897  1  0.18713600  0.53609600  0.65673700  1
  C  901  1  0.18475900  0.49542000  0.76134100  1
  C  907  1  0.23834600  0.09856580  0.72051500  1
  C  908  1  0.22491400  0.08224280  0.69098200  1
  C  910  1  0.23470100  0.02639980  0.71502600  1
  C  911  1  0.24842500  0.04098880  0.74574300  1
  C  912  1  0.24988200  0.07738880  0.74790100  1
  C  914  1  0.23208900  0.99072800  0.70910600  1
  C  915  1  0.25532300  0.97178800  0.68796800  1
  C  916  1  0.25084800  0.93561300  0.68633900  1
  C  917  1  0.22382500  0.91900100  0.70428800  1
  C  918  1  0.20193600  0.93936200  0.72492000  1
  C  923  1  0.28469500  0.98727700  0.66874700  1
  C  927  1  0.26227200  0.02054980  0.77513500  1
  C  933  1  0.39584800  0.76331500  0.20018200  1
  C  934  1  0.41896900  0.78862600  0.18793700  1
  C  936  1  0.46736800  0.75918300  0.21266800  1
  C  937  1  0.44546400  0.73280100  0.22582200  1
  C  938  1  0.40969700  0.73532800  0.21883200  1
  C  940  1  0.50379800  0.75849700  0.21427800  1
  C  941  1  0.52458600  0.78524500  0.22845700  1
  C  942  1  0.56086200  0.78155500  0.22619900  1
  C  943  1  0.57611900  0.75283800  0.20974400  1
  C  944  1  0.55406200  0.72694800  0.19697400  1
  C  949  1  0.51075800  0.81602800  0.24671100  1
  C  953  1  0.45759400  0.70317500  0.24698300  1
  C  959  1  0.07573930  0.77133800  0.20826200  1
  C  960  1  0.05123130  0.79566100  0.21983900  1
  C  962  1  0.00455726  0.76221300  0.19706700  1
  C  963  1  0.02792530  0.73710800  0.18401100  1
  C  964  1  0.06353530  0.74225900  0.19014300  1
  C  966  1  0.96849000  0.75750900  0.19816900  1
  C  967  1  0.94374600  0.77939000  0.18217700  1
  C  968  1  0.90839900  0.77134900  0.18695300  1
  C  969  1  0.89805100  0.74286300  0.20722300  1
  C  970  1  0.92384400  0.72298400  0.22319500  1
  C  975  1  0.95275000  0.80949100  0.16020000  1
  C  979  1  0.01727230  0.70582600  0.16450400  1
  N  8  1  0.99458600  0.41476300  0.58217300  1
  N  15  1  0.01754300  0.60043100  0.40808500  1
  N  38  1  0.58232500  0.99244900  0.40702400  1
  N  45  1  0.41045900  0.02116800  0.59418900  1
  N  68  1  0.40712200  0.58196700  0.99166200  1
  N  75  1  0.59383000  0.40970800  0.02113800  1
  N  98  1  0.50623700  0.91121500  0.09310900  1
  N  105  1  0.51256000  0.09052700  0.91083300  1
  N  128  1  0.09240200  0.50604600  0.91071400  1
  N  135  1  0.91036800  0.51272300  0.09032600  1
  N  158  1  0.91510100  0.09319800  0.50256000  1
  N  165  1  0.08839300  0.90562500  0.50560500  1
  N  183  1  0.00474100  0.51386600  0.22129000  1
  N  193  1  0.01298500  0.45364900  0.28349800  1
  N  205  1  0.01186400  0.46137500  0.37413300  1
  N  206  1  0.98044100  0.50594300  0.13229500  1
  N  209  1  0.99254900  0.52390200  0.78390800  1
  N  219  1  0.98094900  0.47293100  0.71561900  1
  N  231  1  0.99085900  0.48312500  0.62431800  1
  N  232  1  0.01888900  0.50754100  0.87113000  1
  N  235  1  0.22007100  0.00064600  0.50746600  1
  N  245  1  0.28495900  0.00655600  0.44975500  1
  N  257  1  0.37510900  0.00731100  0.46185300  1
  N  258  1  0.13171800  0.97540400  0.49644900  1
  N  261  1  0.78711100  0.99020900  0.51400300  1
  N  271  1  0.71870000  0.98252400  0.46264200  1
  N  283  1  0.62719000  0.98857500  0.47453900  1
  N  284  1  0.87364600  0.01959400  0.49900600  1
  N  287  1  0.51370300  0.22178900  0.00473700  1
  N  297  1  0.45338300  0.28437300  0.01060200  1
  N  309  1  0.46121300  0.37496200  0.00808400  1
  N  310  1  0.50603400  0.13262200  0.98097000  1
  N  313  1  0.51941400  0.78501800  0.98908400  1
  N  323  1  0.46632000  0.71788200  0.98037700  1
  N  335  1  0.47583200  0.62614000  0.98757400  1
  N  336  1  0.50651400  0.87185000  0.01861200  1
  N  339  1  0.53196100  0.00820200  0.78550300  1
  N  349  1  0.47301900  0.01170900  0.72565800  1
  N  361  1  0.47721300  0.00723200  0.63370600  1
  N  362  1  0.51363600  0.01045300  0.87718900  1
  N  365  1  0.52752800  0.98834000  0.22157100  1
  N  375  1  0.47298600  0.99303700  0.28774300  1
  N  387  1  0.49012900  0.00320500  0.38053600  1
  N  388  1  0.50485700  0.98646900  0.13085700  1
  N  391  1  0.01183900  0.21503200  0.48019900  1
  N  401  1  0.01841700  0.28555000  0.52432300  1
  N  413  1  0.00558200  0.37591900  0.51300100  1
  N  414  1  0.99300900  0.12797700  0.50497300  1
  N  417  1  0.99138300  0.78931500  0.48278400  1
  N  427  1  0.97455200  0.71583800  0.52019400  1
  N  439  1  0.98949900  0.62471300  0.49964400  1
  N  440  1  0.00788100  0.87469100  0.51356100  1
  N  443  1  0.22093900  0.52734700  0.98771100  1
  N  453  1  0.28716800  0.47284100  0.99276100  1
  N  465  1  0.37996100  0.48995600  0.00301700  1
  N  466  1  0.13022400  0.50460900  0.98604100  1
  N  469  1  0.78489900  0.53184300  0.00806500  1
  N  479  1  0.72520100  0.47273000  0.01159200  1
  N  491  1  0.63323700  0.47649800  0.00691100  1
  N  492  1  0.87667300  0.51381400  0.01011300  1
  N  500  1  0.22684500  0.67282900  0.78862600  1
  N  507  1  0.24980200  0.85849700  0.61453800  1
  N  530  1  0.81458400  0.25051500  0.61347700  1
  N  537  1  0.64271800  0.27923400  0.80064200  1
  N  560  1  0.63938100  0.84003300  0.19811500  1
  N  567  1  0.82608900  0.66777400  0.22759100  1
  N  590  1  0.73849600  0.16928100  0.29956200  1
  N  597  1  0.74481900  0.34859300  0.11728600  1
  N  620  1  0.32466100  0.76411200  0.11716700  1
  N  627  1  0.14262700  0.77078900  0.29677900  1
  N  650  1  0.14736000  0.35126400  0.70901300  1
  N  657  1  0.32065200  0.16369100  0.71205800  1
  N  675  1  0.23700000  0.77193200  0.42774300  1
  N  685  1  0.24524400  0.71171500  0.48995100  1
  N  697  1  0.24412300  0.71944100  0.58058600  1
  N  698  1  0.21270000  0.76400900  0.33874800  1
  N  701  1  0.22480800  0.78196800  0.99036100  1
  N  711  1  0.21320800  0.73099700  0.92207200  1
  N  723  1  0.22311800  0.74119100  0.83077100  1
  N  724  1  0.25114800  0.76560700  0.07758270  1
  N  727  1  0.45233000  0.25871200  0.71391900  1
  N  737  1  0.51721800  0.26462200  0.65620800  1
  N  749  1  0.60736800  0.26537700  0.66830600  1
  N  750  1  0.36397700  0.23347000  0.70290200  1
  N  753  1  0.01937030  0.24827500  0.72045600  1
  N  763  1  0.95095900  0.24059000  0.66909500  1
  N  775  1  0.85944900  0.24664100  0.68099200  1
  N  776  1  0.10590500  0.27766000  0.70545900  1
  N  779  1  0.74596200  0.47985500  0.21119000  1
  N  789  1  0.68564200  0.54243900  0.21705500  1
  N  801  1  0.69347200  0.63302800  0.21453700  1
  N  802  1  0.73829300  0.39068800  0.18742300  1
  N  805  1  0.75167300  0.04308380  0.19553700  1
  N  815  1  0.69857900  0.97594800  0.18683000  1
  N  827  1  0.70809100  0.88420600  0.19402700  1
  N  828  1  0.73877300  0.12991600  0.22506500  1
  N  831  1  0.76422000  0.26626800  0.99195600  1
  N  841  1  0.70527800  0.26977500  0.93211100  1
  N  853  1  0.70947200  0.26529800  0.84015900  1
  N  854  1  0.74589500  0.26851900  0.08364170  1
  N  857  1  0.75978700  0.24640600  0.42802400  1
  N  867  1  0.70524500  0.25110300  0.49419600  1
  N  879  1  0.72238800  0.26127100  0.58698900  1
  N  880  1  0.73711600  0.24453500  0.33731000  1
  N  883  1  0.24409800  0.47309800  0.68665200  1
  N  893  1  0.25067600  0.54361600  0.73077600  1
  N  905  1  0.23784100  0.63398500  0.71945400  1
  N  906  1  0.22526800  0.38604300  0.71142600  1
  N  909  1  0.22364200  0.04738080  0.68923700  1
  N  919  1  0.20681100  0.97390400  0.72664700  1
  N  931  1  0.22175800  0.88277900  0.70609700  1
  N  932  1  0.24014000  0.13275700  0.72001400  1
  N  935  1  0.45319800  0.78541300  0.19416400  1
  N  945  1  0.51942700  0.73090700  0.19921400  1
  N  957  1  0.61222000  0.74802200  0.20947000  1
  N  958  1  0.36248300  0.76267500  0.19249400  1
  N  961  1  0.01715830  0.78990900  0.21451800  1
  N  971  1  0.95746000  0.73079600  0.21804500  1
  N  983  1  0.86549600  0.73456400  0.21336400  1
  N  984  1  0.10893200  0.77188000  0.21656600  1
