# generated using pymatgen
data_H12C15N5O2
_symmetry_space_group_name_H-M   'P 1'
_cell_length_a   35.95190000
_cell_length_b   35.95190000
_cell_length_c   35.95190000
_cell_angle_alpha   90.00000000
_cell_angle_beta   90.00000000
_cell_angle_gamma   90.00000000
_symmetry_Int_Tables_number   1
_chemical_formula_structural   H12C15N5O2
_chemical_formula_sum   'H384 C480 N160 O64'
_cell_volume   46469.23695860
_cell_formula_units_Z   32
loop_
 _symmetry_equiv_pos_site_id
 _symmetry_equiv_pos_as_xyz
  1  'x, y, z'
loop_
 _atom_site_type_symbol
 _atom_site_label
 _atom_site_symmetry_multiplicity
 _atom_site_fract_x
 _atom_site_fract_y
 _atom_site_fract_z
 _atom_site_occupancy
  H  7  1  0.04692100  0.04723500  0.99743600  1
  H  8  1  0.99106400  0.08532600  0.90261500  1
  H  15  1  0.00743100  0.93975600  0.10987900  1
  H  16  1  0.94880400  0.00833400  0.03666300  1
  H  19  1  0.94625900  0.96438600  0.97890600  1
  H  20  1  0.92229400  0.98195200  0.94428500  1
  H  21  1  0.08391100  0.95169200  0.00399200  1
  H  22  1  0.06004400  0.97709500  0.97460000  1
  H  27  1  0.94771700  0.97328700  0.12583800  1
  H  28  1  0.92859100  0.01810400  0.89137200  1
  H  29  1  0.05299500  0.11656500  0.96051700  1
  H  30  1  0.09403000  0.94658800  0.06864000  1
  H  37  1  0.45841600  0.95852600  0.49735900  1
  H  38  1  0.51427100  0.92002200  0.40271900  1
  H  45  1  0.49777400  0.06599300  0.60967900  1
  H  46  1  0.55656600  0.99737200  0.53664200  1
  H  49  1  0.55933100  0.04101600  0.47877600  1
  H  50  1  0.58334900  0.02328700  0.44428800  1
  H  51  1  0.42152500  0.05397100  0.50364000  1
  H  52  1  0.44546500  0.02857400  0.47430300  1
  H  57  1  0.55773700  0.03267200  0.62593400  1
  H  58  1  0.57792300  0.98694200  0.39179900  1
  H  59  1  0.45226000  0.88902500  0.46055700  1
  H  60  1  0.41129400  0.05895200  0.56838500  1
  H  67  1  0.22038700  0.78888500  0.24546300  1
  H  68  1  0.16923900  0.73490700  0.15585500  1
  H  75  1  0.33232500  0.73665700  0.35083000  1
  H  76  1  0.24810800  0.68793400  0.28705300  1
  H  79  1  0.28750100  0.67707500  0.22715700  1
  H  80  1  0.26456600  0.65429400  0.19501000  1
  H  81  1  0.31781700  0.81487300  0.24670900  1
  H  82  1  0.28843800  0.79323300  0.21927200  1
  H  87  1  0.28800400  0.68298000  0.37224800  1
  H  88  1  0.22630300  0.66260000  0.14402400  1
  H  89  1  0.15897200  0.81102300  0.21438900  1
  H  90  1  0.36365800  0.80019500  0.29250200  1
  H  97  1  0.28486100  0.21650900  0.74551300  1
  H  98  1  0.33632200  0.27069000  0.65620500  1
  H  105  1  0.17344800  0.26900200  0.85129600  1
  H  106  1  0.25778200  0.31745200  0.78747800  1
  H  109  1  0.21826500  0.32875100  0.72768700  1
  H  110  1  0.24131500  0.35150300  0.69559100  1
  H  111  1  0.18732700  0.19099400  0.74692600  1
  H  112  1  0.21674800  0.21255300  0.71947000  1
  H  117  1  0.21789500  0.32207200  0.87279200  1
  H  118  1  0.27960700  0.34273000  0.64428100  1
  H  119  1  0.34626800  0.19430800  0.71439100  1
  H  120  1  0.14163700  0.20581100  0.79284600  1
  H  127  1  0.78088000  0.19671900  0.75579400  1
  H  128  1  0.83596200  0.24843300  0.84435600  1
  H  135  1  0.66707000  0.24442900  0.65450800  1
  H  136  1  0.75149900  0.29735300  0.71466600  1
  H  139  1  0.71749800  0.31022600  0.77664100  1
  H  140  1  0.74186900  0.33198500  0.80849700  1
  H  141  1  0.68481000  0.17107600  0.76161800  1
  H  142  1  0.71436600  0.19432900  0.78745800  1
  H  147  1  0.70876700  0.29694400  0.62975300  1
  H  148  1  0.78006200  0.31995300  0.85991900  1
  H  149  1  0.84021200  0.17048200  0.78574500  1
  H  150  1  0.63972700  0.17961300  0.71418200  1
  H  157  1  0.72449900  0.80857000  0.25568700  1
  H  158  1  0.66995400  0.75674200  0.34451900  1
  H  165  1  0.83804500  0.76128700  0.15400400  1
  H  166  1  0.75389900  0.70814100  0.21437400  1
  H  169  1  0.78832000  0.69529900  0.27626500  1
  H  170  1  0.76414600  0.67341400  0.30817900  1
  H  171  1  0.82064700  0.83437100  0.26137300  1
  H  172  1  0.79116600  0.81105400  0.28724500  1
  H  177  1  0.79673500  0.70846400  0.12911600  1
  H  178  1  0.72614800  0.68467100  0.35946100  1
  H  179  1  0.66529200  0.83469400  0.28582100  1
  H  180  1  0.86562400  0.82590400  0.21382700  1
  H  187  1  0.55655500  0.53453100  0.49426100  1
  H  188  1  0.50144300  0.58785200  0.40658800  1
  H  195  1  0.50757900  0.42013400  0.59738500  1
  H  196  1  0.45618200  0.50459700  0.53601900  1
  H  199  1  0.44567900  0.46656800  0.47434800  1
  H  200  1  0.42217800  0.49042500  0.44335100  1
  H  201  1  0.58358600  0.43797400  0.49209400  1
  H  202  1  0.56096700  0.46756100  0.46570600  1
  H  207  1  0.45389000  0.46356100  0.62066900  1
  H  208  1  0.43136600  0.52946600  0.39235800  1
  H  209  1  0.58067600  0.59418000  0.46361100  1
  H  210  1  0.57244300  0.39194300  0.53849500  1
  H  217  1  0.94903800  0.47117200  0.99459300  1
  H  218  1  0.00433200  0.41737500  0.90732400  1
  H  225  1  0.99806500  0.58555800  0.09770200  1
  H  226  1  0.04942700  0.50089200  0.03659400  1
  H  229  1  0.06027300  0.53868400  0.97490000  1
  H  230  1  0.08375500  0.51463200  0.94403400  1
  H  231  1  0.92225000  0.56768400  0.99228200  1
  H  232  1  0.94486900  0.53803600  0.96596400  1
  H  237  1  0.05143000  0.54242500  0.12115300  1
  H  238  1  0.07410000  0.47542400  0.89282700  1
  H  239  1  0.92490600  0.41139700  0.96400500  1
  H  240  1  0.93341200  0.61379600  0.03865200  1
  H  248  1  0.89853400  0.88182600  0.19234800  1
  H  253  1  0.86847800  0.86158200  0.99393100  1
  H  254  1  0.90308200  0.84833400  0.02691300  1
  H  255  1  0.91525400  0.89922200  0.95973300  1
  H  256  1  0.93001300  0.85229500  0.96376900  1
  H  257  1  0.94982200  0.88692200  0.99289100  1
  H  267  1  0.60679400  0.12371500  0.69261500  1
  H  272  1  0.63497700  0.14533500  0.49473400  1
  H  273  1  0.59981000  0.15654300  0.52787200  1
  H  274  1  0.58974400  0.10650200  0.45972300  1
  H  275  1  0.57324400  0.15276900  0.46454000  1
  H  276  1  0.55466600  0.11692700  0.49299200  1
  H  286  1  0.36981700  0.62436000  0.44209700  1
  H  291  1  0.40653200  0.62624800  0.24730600  1
  H  292  1  0.40339800  0.65809600  0.28519800  1
  H  293  1  0.35989800  0.66381500  0.21224800  1
  H  294  1  0.39904700  0.69109900  0.22489300  1
  H  295  1  0.35684900  0.69543000  0.25015900  1
  H  305  1  0.13602100  0.38044500  0.94267700  1
  H  310  1  0.09962200  0.37963800  0.74755500  1
  H  311  1  0.10169100  0.34786200  0.78558300  1
  H  312  1  0.14594800  0.34118900  0.71316400  1
  H  313  1  0.10629400  0.31451200  0.72552800  1
  H  314  1  0.14817900  0.30969700  0.75122900  1
  H  324  1  0.62320000  0.88442700  0.30966700  1
  H  329  1  0.60734500  0.94005100  0.49285600  1
  H  330  1  0.62909100  0.90757400  0.52327700  1
  H  331  1  0.54631600  0.90875100  0.50325300  1
  H  332  1  0.56601500  0.92441100  0.54573800  1
  H  333  1  0.56802600  0.87656300  0.53377700  1
  H  343  1  0.88250200  0.12089500  0.80960400  1
  H  348  1  0.89816500  0.06519900  0.99296600  1
  H  349  1  0.87622700  0.09771600  0.02321500  1
  H  350  1  0.95889300  0.09727700  0.00271300  1
  H  351  1  0.93962800  0.08173300  0.04543700  1
  H  352  1  0.93700800  0.12946300  0.03311500  1
  H  362  1  0.13734200  0.61089400  0.06100100  1
  H  367  1  0.18070500  0.62980000  0.24471300  1
  H  368  1  0.14434700  0.61584500  0.27532700  1
  H  369  1  0.16254000  0.69617200  0.25357800  1
  H  370  1  0.17382700  0.67457400  0.29651300  1
  H  371  1  0.12656900  0.68217600  0.28439700  1
  H  381  1  0.36722100  0.39550600  0.56115000  1
  H  386  1  0.32586300  0.37690400  0.74499300  1
  H  387  1  0.36273500  0.39002700  0.77536400  1
  H  388  1  0.34230800  0.31011200  0.75408900  1
  H  389  1  0.33182100  0.33220800  0.79697400  1
  H  390  1  0.37879500  0.32329300  0.78465700  1
  H  400  1  0.09028000  0.17523300  0.82366500  1
  H  405  1  0.16269700  0.12399200  0.00955000  1
  H  406  1  0.12511700  0.15328200  0.99576200  1
  H  407  1  0.11754700  0.08136700  0.04084700  1
  H  408  1  0.11524100  0.12718600  0.05912100  1
  H  409  1  0.08046500  0.11134400  0.02791000  1
  H  419  1  0.41500500  0.83078300  0.32333500  1
  H  424  1  0.34325300  0.88033800  0.50956500  1
  H  425  1  0.38161600  0.85221100  0.49551800  1
  H  426  1  0.38725100  0.92399100  0.54109600  1
  H  427  1  0.39082500  0.87812700  0.55905300  1
  H  428  1  0.42512400  0.89512400  0.52792800  1
  H  438  1  0.62283300  0.35310800  0.56216000  1
  H  443  1  0.60974800  0.38569900  0.75933700  1
  H  444  1  0.60013000  0.34883900  0.72756400  1
  H  445  1  0.65258600  0.34406000  0.79445900  1
  H  446  1  0.60722800  0.32477000  0.79170800  1
  H  447  1  0.64316800  0.30738900  0.76263600  1
  H  457  1  0.88301900  0.65270900  0.06209300  1
  H  462  1  0.89476300  0.61889100  0.25948600  1
  H  463  1  0.90623900  0.65522900  0.22772800  1
  H  464  1  0.85319100  0.66218500  0.29396800  1
  H  465  1  0.89919600  0.67993100  0.29158400  1
  H  466  1  0.86413600  0.69837000  0.26208100  1
  H  476  1  0.40325300  0.16293400  0.68876200  1
  H  481  1  0.37867300  0.16595900  0.48794400  1
  H  482  1  0.41299900  0.18143600  0.52026200  1
  H  483  1  0.42544400  0.12399800  0.45854900  1
  H  484  1  0.44071400  0.17095600  0.45791200  1
  H  485  1  0.45960000  0.13931700  0.49081200  1
  H  495  1  0.10221600  0.84280400  0.18904500  1
  H  500  1  0.12757200  0.84126900  0.98688000  1
  H  501  1  0.09417900  0.82294500  0.01868900  1
  H  502  1  0.07869000  0.88184500  0.95906800  1
  H  503  1  0.06574100  0.83424300  0.95680700  1
  H  504  1  0.04543700  0.86374400  0.99083000  1
  H  514  1  0.87805400  0.36626700  0.93975300  1
  H  519  1  0.81886100  0.35681300  0.75899200  1
  H  520  1  0.85206100  0.37416700  0.72659400  1
  H  521  1  0.83969700  0.29202600  0.74555800  1
  H  522  1  0.82418200  0.31492700  0.70465600  1
  H  523  1  0.87253000  0.30938000  0.71297800  1
  H  533  1  0.62768400  0.63917100  0.43954600  1
  H  538  1  0.68697100  0.64936500  0.25870600  1
  H  539  1  0.65377400  0.63193100  0.22634700  1
  H  540  1  0.66571200  0.71407100  0.24556300  1
  H  541  1  0.68121300  0.69141000  0.20452200  1
  H  542  1  0.63286500  0.69664200  0.21304000  1
  H  551  1  0.04692100  0.04723500  0.33121500  1
  H  552  1  0.99106400  0.08532600  0.23639400  1
  H  559  1  0.00743100  0.93975600  0.44365800  1
  H  560  1  0.94880400  0.00833400  0.37044200  1
  H  563  1  0.94625900  0.96438600  0.31268500  1
  H  564  1  0.92229400  0.98195200  0.27806400  1
  H  565  1  0.08391100  0.95169200  0.33777100  1
  H  566  1  0.06004400  0.97709500  0.30837900  1
  H  571  1  0.94771700  0.97328700  0.45961700  1
  H  572  1  0.92859100  0.01810400  0.22515100  1
  H  573  1  0.05299500  0.11656500  0.29429600  1
  H  574  1  0.09403000  0.94658800  0.40241900  1
  H  581  1  0.45841600  0.95852600  0.83113800  1
  H  582  1  0.51427100  0.92002200  0.73649800  1
  H  589  1  0.49777400  0.06599300  0.94345800  1
  H  590  1  0.55656600  0.99737200  0.87042100  1
  H  593  1  0.55933100  0.04101600  0.81255500  1
  H  594  1  0.58334900  0.02328700  0.77806700  1
  H  595  1  0.42152500  0.05397100  0.83741900  1
  H  596  1  0.44546500  0.02857400  0.80808200  1
  H  601  1  0.55773700  0.03267200  0.95971300  1
  H  602  1  0.57792300  0.98694200  0.72557800  1
  H  603  1  0.45226000  0.88902500  0.79433600  1
  H  604  1  0.41129400  0.05895200  0.90216400  1
  H  611  1  0.22038700  0.78888500  0.57924200  1
  H  612  1  0.16923900  0.73490700  0.48963400  1
  H  619  1  0.33232500  0.73665700  0.68460900  1
  H  620  1  0.24810800  0.68793400  0.62083200  1
  H  623  1  0.28750100  0.67707500  0.56093600  1
  H  624  1  0.26456600  0.65429400  0.52878900  1
  H  625  1  0.31781700  0.81487300  0.58048800  1
  H  626  1  0.28843800  0.79323300  0.55305100  1
  H  631  1  0.28800400  0.68298000  0.70602700  1
  H  632  1  0.22630300  0.66260000  0.47780300  1
  H  633  1  0.15897200  0.81102300  0.54816800  1
  H  634  1  0.36365800  0.80019500  0.62628100  1
  H  641  1  0.28486100  0.21650900  0.07929230  1
  H  642  1  0.33632200  0.27069000  0.98998400  1
  H  649  1  0.17344800  0.26900200  0.18507500  1
  H  650  1  0.25778200  0.31745200  0.12125700  1
  H  653  1  0.21826500  0.32875100  0.06146630  1
  H  654  1  0.24131500  0.35150300  0.02937030  1
  H  655  1  0.18732700  0.19099400  0.08070530  1
  H  656  1  0.21674800  0.21255300  0.05324930  1
  H  661  1  0.21789500  0.32207200  0.20657100  1
  H  662  1  0.27960700  0.34273000  0.97806000  1
  H  663  1  0.34626800  0.19430800  0.04817030  1
  H  664  1  0.14163700  0.20581100  0.12662500  1
  H  671  1  0.78088000  0.19671900  0.08957330  1
  H  672  1  0.83596200  0.24843300  0.17813500  1
  H  679  1  0.66707000  0.24442900  0.98828700  1
  H  680  1  0.75149900  0.29735300  0.04844530  1
  H  683  1  0.71749800  0.31022600  0.11042000  1
  H  684  1  0.74186900  0.33198500  0.14227600  1
  H  685  1  0.68481000  0.17107600  0.09539730  1
  H  686  1  0.71436600  0.19432900  0.12123700  1
  H  691  1  0.70876700  0.29694400  0.96353200  1
  H  692  1  0.78006200  0.31995300  0.19369800  1
  H  693  1  0.84021200  0.17048200  0.11952400  1
  H  694  1  0.63972700  0.17961300  0.04796130  1
  H  701  1  0.72449900  0.80857000  0.58946600  1
  H  702  1  0.66995400  0.75674200  0.67829800  1
  H  709  1  0.83804500  0.76128700  0.48778300  1
  H  710  1  0.75389900  0.70814100  0.54815300  1
  H  713  1  0.78832000  0.69529900  0.61004400  1
  H  714  1  0.76414600  0.67341400  0.64195800  1
  H  715  1  0.82064700  0.83437100  0.59515200  1
  H  716  1  0.79116600  0.81105400  0.62102400  1
  H  721  1  0.79673500  0.70846400  0.46289500  1
  H  722  1  0.72614800  0.68467100  0.69324000  1
  H  723  1  0.66529200  0.83469400  0.61960000  1
  H  724  1  0.86562400  0.82590400  0.54760600  1
  H  731  1  0.55655500  0.53453100  0.82804000  1
  H  732  1  0.50144300  0.58785200  0.74036700  1
  H  739  1  0.50757900  0.42013400  0.93116400  1
  H  740  1  0.45618200  0.50459700  0.86979800  1
  H  743  1  0.44567900  0.46656800  0.80812700  1
  H  744  1  0.42217800  0.49042500  0.77713000  1
  H  745  1  0.58358600  0.43797400  0.82587300  1
  H  746  1  0.56096700  0.46756100  0.79948500  1
  H  751  1  0.45389000  0.46356100  0.95444800  1
  H  752  1  0.43136600  0.52946600  0.72613700  1
  H  753  1  0.58067600  0.59418000  0.79739000  1
  H  754  1  0.57244300  0.39194300  0.87227400  1
  H  761  1  0.94903800  0.47117200  0.32837200  1
  H  762  1  0.00433200  0.41737500  0.24110300  1
  H  769  1  0.99806500  0.58555800  0.43148100  1
  H  770  1  0.04942700  0.50089200  0.37037300  1
  H  773  1  0.06027300  0.53868400  0.30867900  1
  H  774  1  0.08375500  0.51463200  0.27781300  1
  H  775  1  0.92225000  0.56768400  0.32606100  1
  H  776  1  0.94486900  0.53803600  0.29974300  1
  H  781  1  0.05143000  0.54242500  0.45493200  1
  H  782  1  0.07410000  0.47542400  0.22660600  1
  H  783  1  0.92490600  0.41139700  0.29778400  1
  H  784  1  0.93341200  0.61379600  0.37243100  1
  H  792  1  0.89853400  0.88182600  0.52612700  1
  H  797  1  0.86847800  0.86158200  0.32771000  1
  H  798  1  0.90308200  0.84833400  0.36069200  1
  H  799  1  0.91525400  0.89922200  0.29351200  1
  H  800  1  0.93001300  0.85229500  0.29754800  1
  H  801  1  0.94982200  0.88692200  0.32667000  1
  H  811  1  0.60679400  0.12371500  0.02639430  1
  H  816  1  0.63497700  0.14533500  0.82851300  1
  H  817  1  0.59981000  0.15654300  0.86165100  1
  H  818  1  0.58974400  0.10650200  0.79350200  1
  H  819  1  0.57324400  0.15276900  0.79831900  1
  H  820  1  0.55466600  0.11692700  0.82677100  1
  H  830  1  0.36981700  0.62436000  0.77587600  1
  H  835  1  0.40653200  0.62624800  0.58108500  1
  H  836  1  0.40339800  0.65809600  0.61897700  1
  H  837  1  0.35989800  0.66381500  0.54602700  1
  H  838  1  0.39904700  0.69109900  0.55867200  1
  H  839  1  0.35684900  0.69543000  0.58393800  1
  H  849  1  0.13602100  0.38044500  0.27645600  1
  H  854  1  0.09962200  0.37963800  0.08133430  1
  H  855  1  0.10169100  0.34786200  0.11936200  1
  H  856  1  0.14594800  0.34118900  0.04694330  1
  H  857  1  0.10629400  0.31451200  0.05930730  1
  H  858  1  0.14817900  0.30969700  0.08500830  1
  H  868  1  0.62320000  0.88442700  0.64344600  1
  H  873  1  0.60734500  0.94005100  0.82663500  1
  H  874  1  0.62909100  0.90757400  0.85705600  1
  H  875  1  0.54631600  0.90875100  0.83703200  1
  H  876  1  0.56601500  0.92441100  0.87951700  1
  H  877  1  0.56802600  0.87656300  0.86755600  1
  H  887  1  0.88250200  0.12089500  0.14338300  1
  H  892  1  0.89816500  0.06519900  0.32674500  1
  H  893  1  0.87622700  0.09771600  0.35699400  1
  H  894  1  0.95889300  0.09727700  0.33649200  1
  H  895  1  0.93962800  0.08173300  0.37921600  1
  H  896  1  0.93700800  0.12946300  0.36689400  1
  H  906  1  0.13734200  0.61089400  0.39478000  1
  H  911  1  0.18070500  0.62980000  0.57849200  1
  H  912  1  0.14434700  0.61584500  0.60910600  1
  H  913  1  0.16254000  0.69617200  0.58735700  1
  H  914  1  0.17382700  0.67457400  0.63029200  1
  H  915  1  0.12656900  0.68217600  0.61817600  1
  H  925  1  0.36722100  0.39550600  0.89492900  1
  H  930  1  0.32586300  0.37690400  0.07877230  1
  H  931  1  0.36273500  0.39002700  0.10914300  1
  H  932  1  0.34230800  0.31011200  0.08786830  1
  H  933  1  0.33182100  0.33220800  0.13075300  1
  H  934  1  0.37879500  0.32329300  0.11843600  1
  H  944  1  0.09028000  0.17523300  0.15744400  1
  H  949  1  0.16269700  0.12399200  0.34332900  1
  H  950  1  0.12511700  0.15328200  0.32954100  1
  H  951  1  0.11754700  0.08136700  0.37462600  1
  H  952  1  0.11524100  0.12718600  0.39290000  1
  H  953  1  0.08046500  0.11134400  0.36168900  1
  H  963  1  0.41500500  0.83078300  0.65711400  1
  H  968  1  0.34325300  0.88033800  0.84334400  1
  H  969  1  0.38161600  0.85221100  0.82929700  1
  H  970  1  0.38725100  0.92399100  0.87487500  1
  H  971  1  0.39082500  0.87812700  0.89283200  1
  H  972  1  0.42512400  0.89512400  0.86170700  1
  H  982  1  0.62283300  0.35310800  0.89593900  1
  H  987  1  0.60974800  0.38569900  0.09311630  1
  H  988  1  0.60013000  0.34883900  0.06134330  1
  H  989  1  0.65258600  0.34406000  0.12823800  1
  H  990  1  0.60722800  0.32477000  0.12548700  1
  H  991  1  0.64316800  0.30738900  0.09641530  1
  H  1001  1  0.88301900  0.65270900  0.39587200  1
  H  1006  1  0.89476300  0.61889100  0.59326500  1
  H  1007  1  0.90623900  0.65522900  0.56150700  1
  H  1008  1  0.85319100  0.66218500  0.62774700  1
  H  1009  1  0.89919600  0.67993100  0.62536300  1
  H  1010  1  0.86413600  0.69837000  0.59586000  1
  H  1020  1  0.40325300  0.16293400  0.02254130  1
  H  1025  1  0.37867300  0.16595900  0.82172300  1
  H  1026  1  0.41299900  0.18143600  0.85404100  1
  H  1027  1  0.42544400  0.12399800  0.79232800  1
  H  1028  1  0.44071400  0.17095600  0.79169100  1
  H  1029  1  0.45960000  0.13931700  0.82459100  1
  H  1039  1  0.10221600  0.84280400  0.52282400  1
  H  1044  1  0.12757200  0.84126900  0.32065900  1
  H  1045  1  0.09417900  0.82294500  0.35246800  1
  H  1046  1  0.07869000  0.88184500  0.29284700  1
  H  1047  1  0.06574100  0.83424300  0.29058600  1
  H  1048  1  0.04543700  0.86374400  0.32460900  1
  H  1058  1  0.87805400  0.36626700  0.27353200  1
  H  1063  1  0.81886100  0.35681300  0.09277130  1
  H  1064  1  0.85206100  0.37416700  0.06037330  1
  H  1065  1  0.83969700  0.29202600  0.07933730  1
  H  1066  1  0.82418200  0.31492700  0.03843530  1
  H  1067  1  0.87253000  0.30938000  0.04675730  1
  H  1077  1  0.62768400  0.63917100  0.77332500  1
  H  1082  1  0.68697100  0.64936500  0.59248500  1
  H  1083  1  0.65377400  0.63193100  0.56012600  1
  H  1084  1  0.66571200  0.71407100  0.57934200  1
  H  1085  1  0.68121300  0.69141000  0.53830100  1
  H  1086  1  0.63286500  0.69664200  0.54681900  1
  C  1  1  0.99871300  0.01579600  0.98407900  1
  C  2  1  0.02544100  0.04442000  0.97888600  1
  C  3  1  0.02377600  0.06884100  0.94827300  1
  C  4  1  0.99313000  0.06651500  0.92405700  1
  C  5  1  0.96525100  0.03931700  0.92883900  1
  C  6  1  0.96838100  0.01271700  0.95829800  1
  C  9  1  0.00225400  0.99293000  0.01688900  1
  C  10  1  0.03484700  0.97154300  0.02549900  1
  C  11  1  0.03730100  0.95293200  0.06067600  1
  C  12  1  0.00630200  0.95362500  0.08495400  1
  C  13  1  0.97332300  0.97255800  0.07577700  1
  C  14  1  0.97230300  0.99329200  0.04257600  1
  C  23  1  0.94251300  0.97030300  0.09882100  1
  C  24  1  0.93584800  0.04160000  0.90388100  1
  C  25  1  0.05040600  0.09591700  0.94231000  1
  C  26  1  0.06938700  0.93482200  0.07304800  1
  C  31  1  0.50673300  0.98978700  0.48398900  1
  C  32  1  0.47993900  0.96121800  0.47884300  1
  C  33  1  0.48157400  0.93670500  0.44830500  1
  C  34  1  0.51225700  0.93888000  0.42412300  1
  C  35  1  0.54023300  0.96598900  0.42887600  1
  C  36  1  0.53712100  0.99269600  0.45824600  1
  C  39  1  0.50317500  0.01278000  0.51671900  1
  C  40  1  0.47056500  0.03417800  0.52524100  1
  C  41  1  0.46804000  0.05283200  0.56038800  1
  C  42  1  0.49898400  0.05215600  0.58473700  1
  C  43  1  0.53199400  0.03325100  0.57562800  1
  C  44  1  0.53308200  0.01247200  0.54245800  1
  C  53  1  0.56263500  0.03534200  0.59885900  1
  C  54  1  0.56956100  0.96362100  0.40386200  1
  C  55  1  0.45487200  0.90969100  0.44237500  1
  C  56  1  0.43588500  0.07084700  0.57272700  1
  C  61  1  0.24400000  0.73631500  0.23280500  1
  C  62  1  0.21896000  0.76646600  0.22788800  1
  C  63  1  0.19281500  0.76722600  0.19863600  1
  C  64  1  0.18937500  0.73532500  0.17613600  1
  C  65  1  0.21261600  0.70404400  0.18089600  1
  C  66  1  0.24131200  0.70478100  0.20845000  1
  C  69  1  0.26924600  0.73801400  0.26399700  1
  C  70  1  0.29554000  0.76752900  0.26974000  1
  C  71  1  0.31743500  0.76789900  0.30304100  1
  C  72  1  0.31500400  0.73771400  0.32813300  1
  C  73  1  0.29034100  0.70797400  0.32204700  1
  C  74  1  0.26670800  0.70921800  0.29086900  1
  C  83  1  0.29090300  0.67735000  0.34528700  1
  C  84  1  0.20518800  0.67438500  0.15730800  1
  C  85  1  0.16994900  0.79783000  0.19270500  1
  C  86  1  0.34393800  0.79495200  0.31113000  1
  C  91  1  0.26147800  0.26923700  0.73306900  1
  C  92  1  0.28637700  0.23898900  0.72802300  1
  C  93  1  0.31253200  0.23824200  0.69877600  1
  C  94  1  0.31614500  0.27024000  0.67644000  1
  C  95  1  0.29302200  0.30158600  0.68132500  1
  C  96  1  0.26431100  0.30085800  0.70885000  1
  C  99  1  0.23628800  0.26757900  0.76430200  1
  C  100  1  0.20985200  0.23819100  0.77001500  1
  C  101  1  0.18806000  0.23781900  0.80338500  1
  C  102  1  0.19070700  0.26792000  0.82855800  1
  C  103  1  0.21550500  0.29756200  0.82249900  1
  C  104  1  0.23907100  0.29626000  0.79127200  1
  C  113  1  0.21532300  0.32811400  0.84591700  1
  C  114  1  0.30071000  0.33143800  0.65805200  1
  C  115  1  0.33532600  0.20760000  0.69275100  1
  C  116  1  0.16142200  0.21089700  0.81144600  1
  C  121  1  0.75901500  0.24975900  0.76953700  1
  C  122  1  0.78366400  0.21912200  0.77323600  1
  C  123  1  0.81077300  0.21747000  0.80152400  1
  C  124  1  0.81552600  0.24894200  0.82438500  1
  C  125  1  0.79273500  0.28072000  0.82080000  1
  C  126  1  0.76330100  0.28103100  0.79398400  1
  C  129  1  0.73174200  0.24788900  0.74010300  1
  C  130  1  0.70581600  0.21776100  0.73612600  1
  C  131  1  0.68333000  0.21561900  0.70332600  1
  C  132  1  0.68442600  0.24498900  0.67718600  1
  C  133  1  0.70844400  0.27556400  0.68167500  1
  C  134  1  0.73286900  0.27589200  0.71231300  1
  C  143  1  0.70788500  0.30458200  0.65633800  1
  C  144  1  0.80096500  0.30956900  0.84516300  1
  C  145  1  0.83158400  0.18540300  0.80736000  1
  C  146  1  0.65916400  0.18630400  0.69573300  1
  C  151  1  0.74656200  0.75560500  0.26937000  1
  C  152  1  0.72183200  0.78616500  0.27314300  1
  C  153  1  0.69484300  0.78775000  0.30154500  1
  C  154  1  0.69030100  0.75627800  0.32445600  1
  C  155  1  0.71316700  0.72455500  0.32079000  1
  C  156  1  0.74249000  0.72432900  0.29384300  1
  C  159  1  0.77372300  0.75756000  0.23984200  1
  C  160  1  0.79961900  0.78771100  0.23585500  1
  C  161  1  0.82199300  0.78993400  0.20298700  1
  C  162  1  0.82079400  0.76064200  0.17676100  1
  C  163  1  0.79682900  0.73002900  0.18127700  1
  C  164  1  0.77252200  0.72960900  0.21200800  1
  C  173  1  0.79719900  0.70118700  0.15578200  1
  C  174  1  0.70522600  0.69579100  0.34533100  1
  C  175  1  0.67392600  0.81974900  0.30741700  1
  C  176  1  0.84614500  0.81926200  0.19540600  1
  C  181  1  0.50395400  0.51110800  0.48151000  1
  C  182  1  0.53385300  0.53652800  0.47710400  1
  C  183  1  0.53421100  0.56351400  0.44861600  1
  C  184  1  0.50201600  0.56744500  0.42657900  1
  C  185  1  0.47096600  0.54377400  0.43091500  1
  C  186  1  0.47226500  0.51414800  0.45744200  1
  C  189  1  0.50622700  0.48479000  0.51173700  1
  C  190  1  0.53630600  0.45895200  0.51644000  1
  C  191  1  0.53761900  0.43642200  0.54927300  1
  C  192  1  0.50770100  0.43762700  0.57480400  1
  C  193  1  0.47729600  0.46170300  0.56959500  1
  C  194  1  0.47769700  0.48608900  0.53897300  1
  C  203  1  0.44745600  0.46096300  0.59384900  1
  C  204  1  0.44141500  0.55060500  0.40703300  1
  C  205  1  0.56544500  0.58548000  0.44224400  1
  C  206  1  0.56620100  0.41145300  0.55702200  1
  C  211  1  0.00177000  0.49438000  0.98198500  1
  C  212  1  0.97179900  0.46904900  0.97753500  1
  C  213  1  0.97146000  0.44198500  0.94911900  1
  C  214  1  0.00373900  0.43785500  0.92724000  1
  C  215  1  0.03484900  0.46142200  0.93164000  1
  C  216  1  0.03353800  0.49115400  0.95804500  1
  C  219  1  0.99949700  0.52077700  0.01214900  1
  C  220  1  0.96946300  0.54668400  0.01674400  1
  C  221  1  0.96810000  0.56924200  0.04955500  1
  C  222  1  0.99796200  0.56802900  0.07515300  1
  C  223  1  0.02835100  0.54390200  0.07004200  1
  C  224  1  0.02794600  0.51945000  0.03946900  1
  C  233  1  0.05817000  0.54453300  0.09439300  1
  C  234  1  0.06454100  0.45437100  0.90798000  1
  C  235  1  0.94017900  0.42011200  0.94267100  1
  C  236  1  0.93954200  0.59426900  0.05720100  1
  C  241  1  0.90010900  0.91954600  0.10845700  1
  C  243  1  0.89096000  0.88572000  0.16527000  1
  C  244  1  0.86300100  0.86394400  0.14839300  1
  C  246  1  0.87218500  0.89757200  0.09131300  1
  C  247  1  0.86073100  0.90071500  0.05478900  1
  C  251  1  0.89372200  0.87063900  0.00838800  1
  C  252  1  0.92427400  0.87778700  0.97924200  1
  C  260  1  0.60493100  0.08634100  0.60856900  1
  C  262  1  0.61427900  0.11993100  0.66549500  1
  C  263  1  0.64217000  0.14178500  0.64860900  1
  C  265  1  0.63281800  0.10836400  0.59143500  1
  C  266  1  0.64411700  0.10538000  0.55490600  1
  C  270  1  0.61008200  0.13499900  0.50893900  1
  C  271  1  0.57988900  0.12723800  0.47958000  1
  C  279  1  0.33921700  0.63225900  0.35570300  1
  C  281  1  0.36824800  0.61895500  0.41423200  1
  C  282  1  0.39216900  0.59311500  0.39714200  1
  C  284  1  0.36335800  0.60637200  0.33818000  1
  C  285  1  0.36434300  0.59873600  0.30048500  1
  C  289  1  0.38795200  0.64510100  0.26237500  1
  C  290  1  0.37502400  0.67592900  0.23561200  1
  C  298  1  0.16673800  0.37290700  0.85629500  1
  C  300  1  0.13762700  0.38596900  0.91484000  1
  C  301  1  0.11370700  0.41185300  0.89782000  1
  C  303  1  0.14255800  0.39880000  0.83882400  1
  C  304  1  0.14157900  0.40667400  0.80114900  1
  C  308  1  0.11766500  0.36051000  0.76292800  1
  C  309  1  0.13042000  0.32938500  0.73642600  1
  C  317  1  0.61371200  0.91551800  0.39575700  1
  C  319  1  0.62732200  0.88547800  0.33773800  1
  C  320  1  0.64999100  0.85931000  0.35615400  1
  C  322  1  0.63641200  0.88927800  0.41455700  1
  C  323  1  0.64129900  0.88933300  0.45280500  1
  C  327  1  0.60665800  0.91136000  0.50303400  1
  C  328  1  0.56922200  0.90482900  0.52276300  1
  C  336  1  0.89142500  0.08930200  0.89556700  1
  C  338  1  0.87819100  0.11967300  0.83763900  1
  C  339  1  0.85534600  0.14569400  0.85605000  1
  C  341  1  0.86855300  0.11539300  0.91436700  1
  C  342  1  0.86347900  0.11506900  0.95264300  1
  C  346  1  0.89858500  0.09399200  0.00287900  1
  C  347  1  0.93606200  0.10110000  0.02233100  1
  C  355  1  0.15640800  0.63051500  0.14882500  1
  C  357  1  0.13490300  0.60959000  0.08929200  1
  C  358  1  0.10792000  0.58699600  0.10636400  1
  C  360  1  0.12900400  0.60819600  0.16656000  1
  C  361  1  0.12468700  0.60593800  0.20496200  1
  C  365  1  0.15270900  0.63656500  0.25463700  1
  C  366  1  0.15398900  0.67497200  0.27353300  1
  C  374  1  0.34950100  0.37519000  0.64910100  1
  C  376  1  0.37013400  0.39654400  0.58941000  1
  C  377  1  0.39754300  0.41880200  0.60623500  1
  C  379  1  0.37733500  0.39717800  0.66659100  1
  C  380  1  0.38233600  0.39914700  0.70494000  1
  C  384  1  0.35372300  0.36944100  0.75480900  1
  C  385  1  0.35152000  0.33117300  0.77389600  1
  C  393  1  0.09193700  0.12092100  0.89766700  1
  C  395  1  0.10129800  0.16276100  0.84666000  1
  C  396  1  0.13776000  0.17044200  0.85890100  1
  C  398  1  0.12871400  0.12811100  0.91023900  1
  C  399  1  0.14638900  0.11119100  0.93992000  1
  C  403  1  0.13329500  0.12452000  0.00156900  1
  C  404  1  0.11005300  0.11010900  0.03455000  1
  C  412  1  0.41341400  0.88465800  0.39766200  1
  C  414  1  0.40401000  0.84311000  0.34641900  1
  C  415  1  0.36760300  0.83525500  0.35872100  1
  C  417  1  0.37665400  0.87738100  0.41022300  1
  C  418  1  0.35903300  0.89406500  0.44000800  1
  C  422  1  0.37264500  0.88069100  0.50153700  1
  C  423  1  0.39552000  0.89550500  0.53459800  1
  C  431  1  0.66182100  0.35179800  0.64546000  1
  C  433  1  0.62802300  0.36162200  0.58873400  1
  C  434  1  0.60920900  0.39218300  0.60462800  1
  C  436  1  0.64298500  0.38249500  0.66160100  1
  C  437  1  0.64760200  0.39509500  0.69761900  1
  C  441  1  0.62137800  0.36110500  0.74563000  1
  C  442  1  0.63183400  0.33239200  0.77562600  1
  C  450  1  0.84352200  0.65400200  0.14514900  1
  C  452  1  0.87765900  0.64418300  0.08862900  1
  C  453  1  0.89635900  0.61360100  0.10461800  1
  C  455  1  0.86228300  0.62332200  0.16141300  1
  C  456  1  0.85738500  0.61056900  0.19736700  1
  C  460  1  0.88428500  0.64386300  0.24553500  1
  C  461  1  0.87450800  0.67306400  0.27529000  1
  C  469  1  0.41149200  0.12235600  0.60672800  1
  C  471  1  0.39586000  0.15565000  0.66233000  1
  C  472  1  0.36415900  0.17079200  0.64493200  1
  C  474  1  0.37965500  0.13749700  0.58884000  1
  C  475  1  0.36953800  0.13215400  0.55219100  1
  C  479  1  0.40349500  0.15778100  0.50359000  1
  C  480  1  0.43439700  0.14728300  0.47585300  1
  C  488  1  0.09360700  0.88317500  0.10695300  1
  C  490  1  0.10943700  0.84995800  0.16253000  1
  C  491  1  0.14102700  0.83473300  0.14500700  1
  C  493  1  0.12533600  0.86796300  0.08893100  1
  C  494  1  0.13529800  0.87323400  0.05217900  1
  C  498  1  0.10242700  0.84762500  0.00285600  1
  C  499  1  0.07094900  0.85755500  0.97555700  1
  C  507  1  0.85018400  0.35308600  0.85304300  1
  C  509  1  0.87754300  0.36981400  0.91159100  1
  C  510  1  0.90302400  0.39342900  0.89341900  1
  C  512  1  0.87577100  0.37669200  0.83436800  1
  C  513  1  0.87624100  0.38167100  0.79600900  1
  C  517  1  0.84635100  0.35207300  0.74675700  1
  C  518  1  0.84565500  0.31456200  0.72611500  1
  C  526  1  0.65581000  0.65241100  0.35292700  1
  C  528  1  0.62823100  0.63569400  0.41137800  1
  C  529  1  0.60273900  0.61216600  0.39310300  1
  C  531  1  0.63020100  0.62891000  0.33415800  1
  C  532  1  0.62982000  0.62402300  0.29579000  1
  C  536  1  0.65941500  0.65398500  0.24657200  1
  C  537  1  0.65981800  0.69157200  0.22606100  1
  C  545  1  0.99871300  0.01579600  0.31785800  1
  C  546  1  0.02544100  0.04442000  0.31266500  1
  C  547  1  0.02377600  0.06884100  0.28205200  1
  C  548  1  0.99313000  0.06651500  0.25783600  1
  C  549  1  0.96525100  0.03931700  0.26261800  1
  C  550  1  0.96838100  0.01271700  0.29207700  1
  C  553  1  0.00225400  0.99293000  0.35066800  1
  C  554  1  0.03484700  0.97154300  0.35927800  1
  C  555  1  0.03730100  0.95293200  0.39445500  1
  C  556  1  0.00630200  0.95362500  0.41873300  1
  C  557  1  0.97332300  0.97255800  0.40955600  1
  C  558  1  0.97230300  0.99329200  0.37635500  1
  C  567  1  0.94251300  0.97030300  0.43260000  1
  C  568  1  0.93584800  0.04160000  0.23766000  1
  C  569  1  0.05040600  0.09591700  0.27608900  1
  C  570  1  0.06938700  0.93482200  0.40682700  1
  C  575  1  0.50673300  0.98978700  0.81776800  1
  C  576  1  0.47993900  0.96121800  0.81262200  1
  C  577  1  0.48157400  0.93670500  0.78208400  1
  C  578  1  0.51225700  0.93888000  0.75790200  1
  C  579  1  0.54023300  0.96598900  0.76265500  1
  C  580  1  0.53712100  0.99269600  0.79202500  1
  C  583  1  0.50317500  0.01278000  0.85049800  1
  C  584  1  0.47056500  0.03417800  0.85902000  1
  C  585  1  0.46804000  0.05283200  0.89416700  1
  C  586  1  0.49898400  0.05215600  0.91851600  1
  C  587  1  0.53199400  0.03325100  0.90940700  1
  C  588  1  0.53308200  0.01247200  0.87623700  1
  C  597  1  0.56263500  0.03534200  0.93263800  1
  C  598  1  0.56956100  0.96362100  0.73764100  1
  C  599  1  0.45487200  0.90969100  0.77615400  1
  C  600  1  0.43588500  0.07084700  0.90650600  1
  C  605  1  0.24400000  0.73631500  0.56658400  1
  C  606  1  0.21896000  0.76646600  0.56166700  1
  C  607  1  0.19281500  0.76722600  0.53241500  1
  C  608  1  0.18937500  0.73532500  0.50991500  1
  C  609  1  0.21261600  0.70404400  0.51467500  1
  C  610  1  0.24131200  0.70478100  0.54222900  1
  C  613  1  0.26924600  0.73801400  0.59777600  1
  C  614  1  0.29554000  0.76752900  0.60351900  1
  C  615  1  0.31743500  0.76789900  0.63682000  1
  C  616  1  0.31500400  0.73771400  0.66191200  1
  C  617  1  0.29034100  0.70797400  0.65582600  1
  C  618  1  0.26670800  0.70921800  0.62464800  1
  C  627  1  0.29090300  0.67735000  0.67906600  1
  C  628  1  0.20518800  0.67438500  0.49108700  1
  C  629  1  0.16994900  0.79783000  0.52648400  1
  C  630  1  0.34393800  0.79495200  0.64490900  1
  C  635  1  0.26147800  0.26923700  0.06684830  1
  C  636  1  0.28637700  0.23898900  0.06180230  1
  C  637  1  0.31253200  0.23824200  0.03255530  1
  C  638  1  0.31614500  0.27024000  0.01021930  1
  C  639  1  0.29302200  0.30158600  0.01510430  1
  C  640  1  0.26431100  0.30085800  0.04262930  1
  C  643  1  0.23628800  0.26757900  0.09808130  1
  C  644  1  0.20985200  0.23819100  0.10379400  1
  C  645  1  0.18806000  0.23781900  0.13716400  1
  C  646  1  0.19070700  0.26792000  0.16233700  1
  C  647  1  0.21550500  0.29756200  0.15627800  1
  C  648  1  0.23907100  0.29626000  0.12505100  1
  C  657  1  0.21532300  0.32811400  0.17969600  1
  C  658  1  0.30071000  0.33143800  0.99183100  1
  C  659  1  0.33532600  0.20760000  0.02653030  1
  C  660  1  0.16142200  0.21089700  0.14522500  1
  C  665  1  0.75901500  0.24975900  0.10331600  1
  C  666  1  0.78366400  0.21912200  0.10701500  1
  C  667  1  0.81077300  0.21747000  0.13530300  1
  C  668  1  0.81552600  0.24894200  0.15816400  1
  C  669  1  0.79273500  0.28072000  0.15457900  1
  C  670  1  0.76330100  0.28103100  0.12776300  1
  C  673  1  0.73174200  0.24788900  0.07388230  1
  C  674  1  0.70581600  0.21776100  0.06990530  1
  C  675  1  0.68333000  0.21561900  0.03710530  1
  C  676  1  0.68442600  0.24498900  0.01096530  1
  C  677  1  0.70844400  0.27556400  0.01545430  1
  C  678  1  0.73286900  0.27589200  0.04609230  1
  C  687  1  0.70788500  0.30458200  0.99011700  1
  C  688  1  0.80096500  0.30956900  0.17894200  1
  C  689  1  0.83158400  0.18540300  0.14113900  1
  C  690  1  0.65916400  0.18630400  0.02951230  1
  C  695  1  0.74656200  0.75560500  0.60314900  1
  C  696  1  0.72183200  0.78616500  0.60692200  1
  C  697  1  0.69484300  0.78775000  0.63532400  1
  C  698  1  0.69030100  0.75627800  0.65823500  1
  C  699  1  0.71316700  0.72455500  0.65456900  1
  C  700  1  0.74249000  0.72432900  0.62762200  1
  C  703  1  0.77372300  0.75756000  0.57362100  1
  C  704  1  0.79961900  0.78771100  0.56963400  1
  C  705  1  0.82199300  0.78993400  0.53676600  1
  C  706  1  0.82079400  0.76064200  0.51054000  1
  C  707  1  0.79682900  0.73002900  0.51505600  1
  C  708  1  0.77252200  0.72960900  0.54578700  1
  C  717  1  0.79719900  0.70118700  0.48956100  1
  C  718  1  0.70522600  0.69579100  0.67911000  1
  C  719  1  0.67392600  0.81974900  0.64119600  1
  C  720  1  0.84614500  0.81926200  0.52918500  1
  C  725  1  0.50395400  0.51110800  0.81528900  1
  C  726  1  0.53385300  0.53652800  0.81088300  1
  C  727  1  0.53421100  0.56351400  0.78239500  1
  C  728  1  0.50201600  0.56744500  0.76035800  1
  C  729  1  0.47096600  0.54377400  0.76469400  1
  C  730  1  0.47226500  0.51414800  0.79122100  1
  C  733  1  0.50622700  0.48479000  0.84551600  1
  C  734  1  0.53630600  0.45895200  0.85021900  1
  C  735  1  0.53761900  0.43642200  0.88305200  1
  C  736  1  0.50770100  0.43762700  0.90858300  1
  C  737  1  0.47729600  0.46170300  0.90337400  1
  C  738  1  0.47769700  0.48608900  0.87275200  1
  C  747  1  0.44745600  0.46096300  0.92762800  1
  C  748  1  0.44141500  0.55060500  0.74081200  1
  C  749  1  0.56544500  0.58548000  0.77602300  1
  C  750  1  0.56620100  0.41145300  0.89080100  1
  C  755  1  0.00177000  0.49438000  0.31576400  1
  C  756  1  0.97179900  0.46904900  0.31131400  1
  C  757  1  0.97146000  0.44198500  0.28289800  1
  C  758  1  0.00373900  0.43785500  0.26101900  1
  C  759  1  0.03484900  0.46142200  0.26541900  1
  C  760  1  0.03353800  0.49115400  0.29182400  1
  C  763  1  0.99949700  0.52077700  0.34592800  1
  C  764  1  0.96946300  0.54668400  0.35052300  1
  C  765  1  0.96810000  0.56924200  0.38333400  1
  C  766  1  0.99796200  0.56802900  0.40893200  1
  C  767  1  0.02835100  0.54390200  0.40382100  1
  C  768  1  0.02794600  0.51945000  0.37324800  1
  C  777  1  0.05817000  0.54453300  0.42817200  1
  C  778  1  0.06454100  0.45437100  0.24175900  1
  C  779  1  0.94017900  0.42011200  0.27645000  1
  C  780  1  0.93954200  0.59426900  0.39098000  1
  C  785  1  0.90010900  0.91954600  0.44223600  1
  C  787  1  0.89096000  0.88572000  0.49904900  1
  C  788  1  0.86300100  0.86394400  0.48217200  1
  C  790  1  0.87218500  0.89757200  0.42509200  1
  C  791  1  0.86073100  0.90071500  0.38856800  1
  C  795  1  0.89372200  0.87063900  0.34216700  1
  C  796  1  0.92427400  0.87778700  0.31302100  1
  C  804  1  0.60493100  0.08634100  0.94234800  1
  C  806  1  0.61427900  0.11993100  0.99927400  1
  C  807  1  0.64217000  0.14178500  0.98238800  1
  C  809  1  0.63281800  0.10836400  0.92521400  1
  C  810  1  0.64411700  0.10538000  0.88868500  1
  C  814  1  0.61008200  0.13499900  0.84271800  1
  C  815  1  0.57988900  0.12723800  0.81335900  1
  C  823  1  0.33921700  0.63225900  0.68948200  1
  C  825  1  0.36824800  0.61895500  0.74801100  1
  C  826  1  0.39216900  0.59311500  0.73092100  1
  C  828  1  0.36335800  0.60637200  0.67195900  1
  C  829  1  0.36434300  0.59873600  0.63426400  1
  C  833  1  0.38795200  0.64510100  0.59615400  1
  C  834  1  0.37502400  0.67592900  0.56939100  1
  C  842  1  0.16673800  0.37290700  0.19007400  1
  C  844  1  0.13762700  0.38596900  0.24861900  1
  C  845  1  0.11370700  0.41185300  0.23159900  1
  C  847  1  0.14255800  0.39880000  0.17260300  1
  C  848  1  0.14157900  0.40667400  0.13492800  1
  C  852  1  0.11766500  0.36051000  0.09670730  1
  C  853  1  0.13042000  0.32938500  0.07020530  1
  C  861  1  0.61371200  0.91551800  0.72953600  1
  C  863  1  0.62732200  0.88547800  0.67151700  1
  C  864  1  0.64999100  0.85931000  0.68993300  1
  C  866  1  0.63641200  0.88927800  0.74833600  1
  C  867  1  0.64129900  0.88933300  0.78658400  1
  C  871  1  0.60665800  0.91136000  0.83681300  1
  C  872  1  0.56922200  0.90482900  0.85654200  1
  C  880  1  0.89142500  0.08930200  0.22934600  1
  C  882  1  0.87819100  0.11967300  0.17141800  1
  C  883  1  0.85534600  0.14569400  0.18982900  1
  C  885  1  0.86855300  0.11539300  0.24814600  1
  C  886  1  0.86347900  0.11506900  0.28642200  1
  C  890  1  0.89858500  0.09399200  0.33665800  1
  C  891  1  0.93606200  0.10110000  0.35611000  1
  C  899  1  0.15640800  0.63051500  0.48260400  1
  C  901  1  0.13490300  0.60959000  0.42307100  1
  C  902  1  0.10792000  0.58699600  0.44014300  1
  C  904  1  0.12900400  0.60819600  0.50033900  1
  C  905  1  0.12468700  0.60593800  0.53874100  1
  C  909  1  0.15270900  0.63656500  0.58841600  1
  C  910  1  0.15398900  0.67497200  0.60731200  1
  C  918  1  0.34950100  0.37519000  0.98288000  1
  C  920  1  0.37013400  0.39654400  0.92318900  1
  C  921  1  0.39754300  0.41880200  0.94001400  1
  C  923  1  0.37733500  0.39717800  0.00037030  1
  C  924  1  0.38233600  0.39914700  0.03871930  1
  C  928  1  0.35372300  0.36944100  0.08858830  1
  C  929  1  0.35152000  0.33117300  0.10767500  1
  C  937  1  0.09193700  0.12092100  0.23144600  1
  C  939  1  0.10129800  0.16276100  0.18043900  1
  C  940  1  0.13776000  0.17044200  0.19268000  1
  C  942  1  0.12871400  0.12811100  0.24401800  1
  C  943  1  0.14638900  0.11119100  0.27369900  1
  C  947  1  0.13329500  0.12452000  0.33534800  1
  C  948  1  0.11005300  0.11010900  0.36832900  1
  C  956  1  0.41341400  0.88465800  0.73144100  1
  C  958  1  0.40401000  0.84311000  0.68019800  1
  C  959  1  0.36760300  0.83525500  0.69250000  1
  C  961  1  0.37665400  0.87738100  0.74400200  1
  C  962  1  0.35903300  0.89406500  0.77378700  1
  C  966  1  0.37264500  0.88069100  0.83531600  1
  C  967  1  0.39552000  0.89550500  0.86837700  1
  C  975  1  0.66182100  0.35179800  0.97923900  1
  C  977  1  0.62802300  0.36162200  0.92251300  1
  C  978  1  0.60920900  0.39218300  0.93840700  1
  C  980  1  0.64298500  0.38249500  0.99538000  1
  C  981  1  0.64760200  0.39509500  0.03139830  1
  C  985  1  0.62137800  0.36110500  0.07940930  1
  C  986  1  0.63183400  0.33239200  0.10940500  1
  C  994  1  0.84352200  0.65400200  0.47892800  1
  C  996  1  0.87765900  0.64418300  0.42240800  1
  C  997  1  0.89635900  0.61360100  0.43839700  1
  C  999  1  0.86228300  0.62332200  0.49519200  1
  C  1000  1  0.85738500  0.61056900  0.53114600  1
  C  1004  1  0.88428500  0.64386300  0.57931400  1
  C  1005  1  0.87450800  0.67306400  0.60906900  1
  C  1013  1  0.41149200  0.12235600  0.94050700  1
  C  1015  1  0.39586000  0.15565000  0.99610900  1
  C  1016  1  0.36415900  0.17079200  0.97871100  1
  C  1018  1  0.37965500  0.13749700  0.92261900  1
  C  1019  1  0.36953800  0.13215400  0.88597000  1
  C  1023  1  0.40349500  0.15778100  0.83736900  1
  C  1024  1  0.43439700  0.14728300  0.80963200  1
  C  1032  1  0.09360700  0.88317500  0.44073200  1
  C  1034  1  0.10943700  0.84995800  0.49630900  1
  C  1035  1  0.14102700  0.83473300  0.47878600  1
  C  1037  1  0.12533600  0.86796300  0.42271000  1
  C  1038  1  0.13529800  0.87323400  0.38595800  1
  C  1042  1  0.10242700  0.84762500  0.33663500  1
  C  1043  1  0.07094900  0.85755500  0.30933600  1
  C  1051  1  0.85018400  0.35308600  0.18682200  1
  C  1053  1  0.87754300  0.36981400  0.24537000  1
  C  1054  1  0.90302400  0.39342900  0.22719800  1
  C  1056  1  0.87577100  0.37669200  0.16814700  1
  C  1057  1  0.87624100  0.38167100  0.12978800  1
  C  1061  1  0.84635100  0.35207300  0.08053630  1
  C  1062  1  0.84565500  0.31456200  0.05989430  1
  C  1070  1  0.65581000  0.65241100  0.68670600  1
  C  1072  1  0.62823100  0.63569400  0.74515700  1
  C  1073  1  0.60273900  0.61216600  0.72688200  1
  C  1075  1  0.63020100  0.62891000  0.66793700  1
  C  1076  1  0.62982000  0.62402300  0.62956900  1
  C  1080  1  0.65941500  0.65398500  0.58035100  1
  C  1081  1  0.65981800  0.69157200  0.55984000  1
  N  17  1  0.94297200  0.98463300  0.96141300  1
  N  18  1  0.06257100  0.96766000  0.99976400  1
  N  47  1  0.56259400  0.02072500  0.46133600  1
  N  48  1  0.44288400  0.03801700  0.49945700  1
  N  77  1  0.26591100  0.67593100  0.21108400  1
  N  78  1  0.30029600  0.79459000  0.24346700  1
  N  107  1  0.23983500  0.32980500  0.71157600  1
  N  108  1  0.20487900  0.21124900  0.74366100  1
  N  137  1  0.73941900  0.31052900  0.79229800  1
  N  138  1  0.70218000  0.19165000  0.76352900  1
  N  167  1  0.76647500  0.69491800  0.29203500  1
  N  168  1  0.80330700  0.81377400  0.26329800  1
  N  197  1  0.44392400  0.48887000  0.45926400  1
  N  198  1  0.56306400  0.45534500  0.48967100  1
  N  227  1  0.06194600  0.51635400  0.95985000  1
  N  228  1  0.94279900  0.55033600  0.98988700  1
  N  242  1  0.90826700  0.91234500  0.14478400  1
  N  245  1  0.85508500  0.87106700  0.11217300  1
  N  258  1  0.91852000  0.94523000  0.08914400  1
  N  259  1  0.84406200  0.83646800  0.16409700  1
  N  261  1  0.59690600  0.09338700  0.64495700  1
  N  264  1  0.64998600  0.13478900  0.61234400  1
  N  277  1  0.58647000  0.06069000  0.58924300  1
  N  278  1  0.66115900  0.16920000  0.66436300  1
  N  280  1  0.34302000  0.63738800  0.39305600  1
  N  283  1  0.38867800  0.58828900  0.35975900  1
  N  296  1  0.31469000  0.65187100  0.33609700  1
  N  297  1  0.41812300  0.57616500  0.41718000  1
  N  299  1  0.16289900  0.36764400  0.89362800  1
  N  302  1  0.11721300  0.41678800  0.86045000  1
  N  315  1  0.19135700  0.35340600  0.83668500  1
  N  316  1  0.08769400  0.42865400  0.91789900  1
  N  318  1  0.61014300  0.91224700  0.35812900  1
  N  321  1  0.65317600  0.86251400  0.39360700  1
  N  334  1  0.59600200  0.94186500  0.41465200  1
  N  335  1  0.66764000  0.83088000  0.34082200  1
  N  337  1  0.89526100  0.09280200  0.85798600  1
  N  340  1  0.85191700  0.14227900  0.89346400  1
  N  353  1  0.90901200  0.06286500  0.91444700  1
  N  354  1  0.83779200  0.17420100  0.84075400  1
  N  356  1  0.15781200  0.63030400  0.11094700  1
  N  359  1  0.10635800  0.58752100  0.14416300  1
  N  372  1  0.17899000  0.65233900  0.16832600  1
  N  373  1  0.08456800  0.56743600  0.08544500  1
  N  375  1  0.34747000  0.37575800  0.61125300  1
  N  378  1  0.39972300  0.41791100  0.64399400  1
  N  391  1  0.32717600  0.35324700  0.66874700  1
  N  392  1  0.42072400  0.43835800  0.58512700  1
  N  394  1  0.08028100  0.13833400  0.86621900  1
  N  397  1  0.14946000  0.15272400  0.89017900  1
  N  410  1  0.06814000  0.09635700  0.91127400  1
  N  411  1  0.16087100  0.19474700  0.84341900  1
  N  413  1  0.42502100  0.86746500  0.36607300  1
  N  416  1  0.35592300  0.85281200  0.39009400  1
  N  429  1  0.43719800  0.90921800  0.41130300  1
  N  430  1  0.34453300  0.81094500  0.34318100  1
  N  432  1  0.65323200  0.34278600  0.60964300  1
  N  435  1  0.61768400  0.40093900  0.64035300  1
  N  448  1  0.68592500  0.33173500  0.66517000  1
  N  449  1  0.58282600  0.41246500  0.58869500  1
  N  451  1  0.85233400  0.66302200  0.10939200  1
  N  454  1  0.88767300  0.60485000  0.14029900  1
  N  467  1  0.81926200  0.67405100  0.16469300  1
  N  468  1  0.92278600  0.59327900  0.08880600  1
  N  470  1  0.41823100  0.13265600  0.64247600  1
  N  473  1  0.35804300  0.16130600  0.60887200  1
  N  486  1  0.43758500  0.10132800  0.59140200  1
  N  487  1  0.34266400  0.19702000  0.65934300  1
  N  489  1  0.08703500  0.87299800  0.14276300  1
  N  492  1  0.14699000  0.84413100  0.10889900  1
  N  505  1  0.06757500  0.90433900  0.09170900  1
  N  506  1  0.16257600  0.80850000  0.15933300  1
  N  508  1  0.85250300  0.35059900  0.89082700  1
  N  511  1  0.90076200  0.39550100  0.85581600  1
  N  524  1  0.82609000  0.33257000  0.83395600  1
  N  525  1  0.93032100  0.41255100  0.90911800  1
  N  527  1  0.65339600  0.65485000  0.39070800  1
  N  530  1  0.60509500  0.61013800  0.35550300  1
  N  543  1  0.68007300  0.67282700  0.33393800  1
  N  544  1  0.57539700  0.59303200  0.40871600  1
  N  561  1  0.94297200  0.98463300  0.29519200  1
  N  562  1  0.06257100  0.96766000  0.33354300  1
  N  591  1  0.56259400  0.02072500  0.79511500  1
  N  592  1  0.44288400  0.03801700  0.83323600  1
  N  621  1  0.26591100  0.67593100  0.54486300  1
  N  622  1  0.30029600  0.79459000  0.57724600  1
  N  651  1  0.23983500  0.32980500  0.04535530  1
  N  652  1  0.20487900  0.21124900  0.07744030  1
  N  681  1  0.73941900  0.31052900  0.12607700  1
  N  682  1  0.70218000  0.19165000  0.09730830  1
  N  711  1  0.76647500  0.69491800  0.62581400  1
  N  712  1  0.80330700  0.81377400  0.59707700  1
  N  741  1  0.44392400  0.48887000  0.79304300  1
  N  742  1  0.56306400  0.45534500  0.82345000  1
  N  771  1  0.06194600  0.51635400  0.29362900  1
  N  772  1  0.94279900  0.55033600  0.32366600  1
  N  786  1  0.90826700  0.91234500  0.47856300  1
  N  789  1  0.85508500  0.87106700  0.44595200  1
  N  802  1  0.91852000  0.94523000  0.42292300  1
  N  803  1  0.84406200  0.83646800  0.49787600  1
  N  805  1  0.59690600  0.09338700  0.97873600  1
  N  808  1  0.64998600  0.13478900  0.94612300  1
  N  821  1  0.58647000  0.06069000  0.92302200  1
  N  822  1  0.66115900  0.16920000  0.99814200  1
  N  824  1  0.34302000  0.63738800  0.72683500  1
  N  827  1  0.38867800  0.58828900  0.69353800  1
  N  840  1  0.31469000  0.65187100  0.66987600  1
  N  841  1  0.41812300  0.57616500  0.75095900  1
  N  843  1  0.16289900  0.36764400  0.22740700  1
  N  846  1  0.11721300  0.41678800  0.19422900  1
  N  859  1  0.19135700  0.35340600  0.17046400  1
  N  860  1  0.08769400  0.42865400  0.25167800  1
  N  862  1  0.61014300  0.91224700  0.69190800  1
  N  865  1  0.65317600  0.86251400  0.72738600  1
  N  878  1  0.59600200  0.94186500  0.74843100  1
  N  879  1  0.66764000  0.83088000  0.67460100  1
  N  881  1  0.89526100  0.09280200  0.19176500  1
  N  884  1  0.85191700  0.14227900  0.22724300  1
  N  897  1  0.90901200  0.06286500  0.24822600  1
  N  898  1  0.83779200  0.17420100  0.17453300  1
  N  900  1  0.15781200  0.63030400  0.44472600  1
  N  903  1  0.10635800  0.58752100  0.47794200  1
  N  916  1  0.17899000  0.65233900  0.50210500  1
  N  917  1  0.08456800  0.56743600  0.41922400  1
  N  919  1  0.34747000  0.37575800  0.94503200  1
  N  922  1  0.39972300  0.41791100  0.97777300  1
  N  935  1  0.32717600  0.35324700  0.00252630  1
  N  936  1  0.42072400  0.43835800  0.91890600  1
  N  938  1  0.08028100  0.13833400  0.19999800  1
  N  941  1  0.14946000  0.15272400  0.22395800  1
  N  954  1  0.06814000  0.09635700  0.24505300  1
  N  955  1  0.16087100  0.19474700  0.17719800  1
  N  957  1  0.42502100  0.86746500  0.69985200  1
  N  960  1  0.35592300  0.85281200  0.72387300  1
  N  973  1  0.43719800  0.90921800  0.74508200  1
  N  974  1  0.34453300  0.81094500  0.67696000  1
  N  976  1  0.65323200  0.34278600  0.94342200  1
  N  979  1  0.61768400  0.40093900  0.97413200  1
  N  992  1  0.68592500  0.33173500  0.99894900  1
  N  993  1  0.58282600  0.41246500  0.92247400  1
  N  995  1  0.85233400  0.66302200  0.44317100  1
  N  998  1  0.88767300  0.60485000  0.47407800  1
  N  1011  1  0.81926200  0.67405100  0.49847200  1
  N  1012  1  0.92278600  0.59327900  0.42258500  1
  N  1014  1  0.41823100  0.13265600  0.97625500  1
  N  1017  1  0.35804300  0.16130600  0.94265100  1
  N  1030  1  0.43758500  0.10132800  0.92518100  1
  N  1031  1  0.34266400  0.19702000  0.99312200  1
  N  1033  1  0.08703500  0.87299800  0.47654200  1
  N  1036  1  0.14699000  0.84413100  0.44267800  1
  N  1049  1  0.06757500  0.90433900  0.42548800  1
  N  1050  1  0.16257600  0.80850000  0.49311200  1
  N  1052  1  0.85250300  0.35059900  0.22460600  1
  N  1055  1  0.90076200  0.39550100  0.18959500  1
  N  1068  1  0.82609000  0.33257000  0.16773500  1
  N  1069  1  0.93032100  0.41255100  0.24289700  1
  N  1071  1  0.65339600  0.65485000  0.72448700  1
  N  1074  1  0.60509500  0.61013800  0.68928200  1
  N  1087  1  0.68007300  0.67282700  0.66771700  1
  N  1088  1  0.57539700  0.59303200  0.74249500  1
  O  249  1  0.83342200  0.92039700  0.05020700  1
  O  250  1  0.88715500  0.90442600  0.02887700  1
  O  268  1  0.67170300  0.08620900  0.54975400  1
  O  269  1  0.61797100  0.10109400  0.52876500  1
  O  287  1  0.35271000  0.56792000  0.29204300  1
  O  288  1  0.35583100  0.62541700  0.27601300  1
  O  306  1  0.15303300  0.43749600  0.79258700  1
  O  307  1  0.14993800  0.37965800  0.77695500  1
  O  325  1  0.66825400  0.87285300  0.46555600  1
  O  326  1  0.61016600  0.88515500  0.47286500  1
  O  344  1  0.83586700  0.13075300  0.96494000  1
  O  345  1  0.89461800  0.11987900  0.97250000  1
  O  363  1  0.10217300  0.58364100  0.21749200  1
  O  364  1  0.12643700  0.63775500  0.22432100  1
  O  382  1  0.40572800  0.42068200  0.71719200  1
  O  383  1  0.37978800  0.36742200  0.72436000  1
  O  401  1  0.17145500  0.08979500  0.93158700  1
  O  402  1  0.12667800  0.10111800  0.96973500  1
  O  420  1  0.33377700  0.91543200  0.43213600  1
  O  421  1  0.37855000  0.90449200  0.46985300  1
  O  439  1  0.66550400  0.42388900  0.70018300  1
  O  440  1  0.65424100  0.37062600  0.72480200  1
  O  458  1  0.83900200  0.58211700  0.20002600  1
  O  459  1  0.85138500  0.63556600  0.22425300  1
  O  477  1  0.34142300  0.11368500  0.54729000  1
  O  478  1  0.39593500  0.12605500  0.52674600  1
  O  496  1  0.16328300  0.89193100  0.04747300  1
  O  497  1  0.10844100  0.87883300  0.02713300  1
  O  515  1  0.89593100  0.40627900  0.78305500  1
  O  516  1  0.87487200  0.35092700  0.77496700  1
  O  534  1  0.61028500  0.59933700  0.28275300  1
  O  535  1  0.63097700  0.65486400  0.27487400  1
  O  793  1  0.83342200  0.92039700  0.38398600  1
  O  794  1  0.88715500  0.90442600  0.36265600  1
  O  812  1  0.67170300  0.08620900  0.88353300  1
  O  813  1  0.61797100  0.10109400  0.86254400  1
  O  831  1  0.35271000  0.56792000  0.62582200  1
  O  832  1  0.35583100  0.62541700  0.60979200  1
  O  850  1  0.15303300  0.43749600  0.12636600  1
  O  851  1  0.14993800  0.37965800  0.11073400  1
  O  869  1  0.66825400  0.87285300  0.79933500  1
  O  870  1  0.61016600  0.88515500  0.80664400  1
  O  888  1  0.83586700  0.13075300  0.29871900  1
  O  889  1  0.89461800  0.11987900  0.30627900  1
  O  907  1  0.10217300  0.58364100  0.55127100  1
  O  908  1  0.12643700  0.63775500  0.55810000  1
  O  926  1  0.40572800  0.42068200  0.05097130  1
  O  927  1  0.37978800  0.36742200  0.05813930  1
  O  945  1  0.17145500  0.08979500  0.26536600  1
  O  946  1  0.12667800  0.10111800  0.30351400  1
  O  964  1  0.33377700  0.91543200  0.76591500  1
  O  965  1  0.37855000  0.90449200  0.80363200  1
  O  983  1  0.66550400  0.42388900  0.03396230  1
  O  984  1  0.65424100  0.37062600  0.05858130  1
  O  1002  1  0.83900200  0.58211700  0.53380500  1
  O  1003  1  0.85138500  0.63556600  0.55803200  1
  O  1021  1  0.34142300  0.11368500  0.88106900  1
  O  1022  1  0.39593500  0.12605500  0.86052500  1
  O  1040  1  0.16328300  0.89193100  0.38125200  1
  O  1041  1  0.10844100  0.87883300  0.36091200  1
  O  1059  1  0.89593100  0.40627900  0.11683400  1
  O  1060  1  0.87487200  0.35092700  0.10874600  1
  O  1078  1  0.61028500  0.59933700  0.61653200  1
  O  1079  1  0.63097700  0.65486400  0.60865300  1
