# generated using pymatgen
data_H7C11N2O
_symmetry_space_group_name_H-M   'P 1'
_cell_length_a   40.00400000
_cell_length_b   40.00400000
_cell_length_c   40.00400000
_cell_angle_alpha   90.00000000
_cell_angle_beta   90.00000000
_cell_angle_gamma   90.00000000
_symmetry_Int_Tables_number   1
_chemical_formula_structural   H7C11N2O
_chemical_formula_sum   'H336 C528 N96 O48'
_cell_volume   64019.20192006
_cell_formula_units_Z   48
loop_
 _symmetry_equiv_pos_site_id
 _symmetry_equiv_pos_as_xyz
  1  'x, y, z'
loop_
 _atom_site_type_symbol
 _atom_site_label
 _atom_site_symmetry_multiplicity
 _atom_site_fract_x
 _atom_site_fract_y
 _atom_site_fract_z
 _atom_site_occupancy
  H  7  1  0.31431100  0.34327000  0.05911200  1
  H  8  1  0.25312500  0.41553300  0.01704700  1
  H  15  1  0.41561100  0.25330500  0.99428500  1
  H  16  1  0.34325000  0.31439600  0.95226400  1
  H  19  1  0.35122500  0.38536900  0.95417900  1
  H  20  1  0.38524900  0.35127200  0.05727500  1
  H  27  1  0.69703200  0.66803300  0.05914700  1
  H  28  1  0.75814600  0.59571500  0.01708000  1
  H  35  1  0.59583500  0.75813400  0.99437000  1
  H  36  1  0.66815300  0.69700500  0.95231700  1
  H  39  1  0.66011600  0.62603700  0.95415200  1
  H  40  1  0.62606200  0.66004600  0.05726400  1
  H  47  1  0.69702700  0.34325800  0.95224900  1
  H  48  1  0.75811400  0.41559600  0.99433500  1
  H  55  1  0.59583500  0.25313700  0.01698300  1
  H  56  1  0.66810500  0.31428600  0.05907900  1
  H  59  1  0.66010400  0.38525400  0.05723500  1
  H  60  1  0.62608000  0.35122500  0.95411200  1
  H  67  1  0.31429100  0.66819800  0.95231400  1
  H  68  1  0.25315700  0.59587000  0.99434000  1
  H  75  1  0.41556100  0.75819900  0.01708100  1
  H  76  1  0.34323500  0.69707500  0.05914700  1
  H  79  1  0.35123000  0.62611700  0.05727700  1
  H  80  1  0.38527100  0.66014100  0.95418400  1
  H  87  1  0.05911000  0.31427800  0.34322300  1
  H  88  1  0.01705700  0.25310000  0.41549800  1
  H  95  1  0.99432800  0.41555300  0.25324200  1
  H  96  1  0.95227400  0.34325300  0.31438600  1
  H  99  1  0.95420700  0.35125000  0.38537600  1
  H  100  1  0.05729300  0.38523100  0.35125700  1
  H  107  1  0.05909200  0.69704000  0.66807300  1
  H  108  1  0.01704400  0.75811100  0.59571300  1
  H  115  1  0.99432000  0.59578500  0.75811600  1
  H  116  1  0.95225200  0.66808800  0.69697500  1
  H  119  1  0.95413200  0.66007600  0.62602200  1
  H  120  1  0.05725100  0.62607500  0.66009600  1
  H  127  1  0.95224700  0.69708000  0.34316800  1
  H  128  1  0.99430000  0.75826400  0.41544100  1
  H  135  1  0.01702900  0.59587300  0.25312200  1
  H  136  1  0.05907300  0.66819000  0.31425800  1
  H  139  1  0.05717600  0.66014900  0.38527900  1
  H  140  1  0.95413200  0.62610200  0.35123700  1
  H  147  1  0.95231200  0.31434100  0.66814000  1
  H  148  1  0.99436800  0.25319200  0.59584500  1
  H  155  1  0.01706700  0.41555800  0.75820900  1
  H  156  1  0.05914600  0.34323300  0.69710000  1
  H  159  1  0.05733200  0.35121700  0.62615500  1
  H  160  1  0.95421900  0.38532100  0.66010600  1
  H  167  1  0.34325800  0.05909500  0.31434300  1
  H  168  1  0.41552600  0.01705000  0.25314500  1
  H  175  1  0.25328200  0.99426000  0.41561600  1
  H  176  1  0.31438600  0.95223700  0.34326500  1
  H  179  1  0.38535400  0.95414900  0.35123000  1
  H  180  1  0.35126500  0.05723500  0.38528600  1
  H  187  1  0.66800800  0.05911800  0.69701000  1
  H  188  1  0.59571800  0.01701900  0.75813600  1
  H  195  1  0.75813900  0.99436500  0.59582300  1
  H  196  1  0.69700700  0.95229400  0.66812800  1
  H  199  1  0.62605000  0.95410700  0.66009600  1
  H  200  1  0.66003900  0.05724000  0.62604500  1
  H  207  1  0.34320800  0.95223700  0.69706500  1
  H  208  1  0.41550800  0.99431000  0.75819900  1
  H  215  1  0.25315000  0.01698500  0.59582800  1
  H  216  1  0.31428300  0.05907300  0.66811500  1
  H  219  1  0.38526400  0.05719200  0.66013900  1
  H  220  1  0.35121000  0.95409200  0.62611700  1
  H  227  1  0.66818300  0.95230900  0.31428300  1
  H  228  1  0.59587300  0.99435300  0.25314500  1
  H  235  1  0.75819100  0.01706200  0.41556100  1
  H  236  1  0.69707000  0.05913800  0.34324000  1
  H  239  1  0.62611500  0.05727500  0.35123200  1
  H  240  1  0.66013100  0.95416900  0.38526600  1
  H  247  1  0.80095700  0.83293100  0.55802400  1
  H  248  1  0.74977000  0.91275600  0.51523300  1
  H  255  1  0.91271600  0.74978700  0.49617800  1
  H  256  1  0.83299100  0.80103400  0.45328900  1
  H  259  1  0.80661100  0.85086700  0.43195900  1
  H  260  1  0.85080200  0.80665600  0.57940200  1
  H  267  1  0.21034600  0.17827900  0.55806100  1
  H  268  1  0.26156900  0.09855700  0.51512600  1
  H  275  1  0.09853200  0.26145600  0.49616300  1
  H  276  1  0.17839600  0.21034600  0.45334900  1
  H  279  1  0.20464700  0.16049900  0.43195700  1
  H  280  1  0.16055700  0.20471700  0.57941400  1
  H  287  1  0.21039400  0.83293400  0.45332200  1
  H  288  1  0.26160900  0.91270300  0.49619300  1
  H  295  1  0.09859300  0.74978200  0.51511800  1
  H  296  1  0.17837100  0.80095400  0.55802600  1
  H  299  1  0.20468200  0.85080700  0.57940200  1
  H  300  1  0.16053000  0.80670100  0.43192700  1
  H  307  1  0.80107400  0.17836700  0.45333400  1
  H  308  1  0.74978700  0.09864500  0.49618500  1
  H  315  1  0.91281800  0.26154600  0.51528100  1
  H  316  1  0.83298400  0.21037600  0.55807900  1
  H  319  1  0.80663400  0.16055500  0.57943200  1
  H  320  1  0.85089400  0.20475600  0.43200400  1
  H  327  1  0.55803900  0.80096200  0.83295600  1
  H  328  1  0.51524600  0.74977700  0.91278300  1
  H  335  1  0.49620800  0.91271100  0.74979700  1
  H  336  1  0.45330700  0.83300100  0.80105900  1
  H  339  1  0.43197400  0.80662900  0.85089700  1
  H  340  1  0.57942200  0.85081200  0.80670100  1
  H  347  1  0.55806600  0.21033800  0.17827700  1
  H  348  1  0.51512800  0.26157600  0.09856500  1
  H  355  1  0.49616000  0.09859600  0.26152600  1
  H  356  1  0.45335400  0.17842500  0.21035700  1
  H  359  1  0.43195700  0.20465200  0.16050100  1
  H  360  1  0.57941700  0.16053600  0.20470300  1
  H  367  1  0.45329900  0.21041000  0.83295400  1
  H  368  1  0.49618500  0.26161400  0.91272100  1
  H  375  1  0.51506300  0.09865200  0.74974500  1
  H  376  1  0.55799400  0.17838200  0.80095700  1
  H  379  1  0.57938200  0.20469200  0.85080400  1
  H  380  1  0.43189200  0.16054700  0.80672900  1
  H  387  1  0.45333900  0.80109200  0.17836900  1
  H  388  1  0.49618000  0.74979000  0.09865100  1
  H  395  1  0.51531300  0.91286800  0.26149600  1
  H  396  1  0.55808600  0.83299600  0.21036500  1
  H  399  1  0.57943400  0.80664100  0.16054500  1
  H  400  1  0.43202200  0.85091400  0.20475300  1
  H  407  1  0.83295900  0.55801400  0.80093400  1
  H  408  1  0.91268600  0.51510100  0.74970200  1
  H  415  1  0.74978500  0.49622300  0.91273600  1
  H  416  1  0.80095200  0.45331400  0.83295600  1
  H  419  1  0.85081400  0.43192200  0.80669400  1
  H  420  1  0.80670400  0.57941200  0.85079200  1
  H  427  1  0.17829100  0.55807100  0.21032500  1
  H  428  1  0.09848800  0.51520100  0.26147400  1
  H  435  1  0.26152400  0.49615000  0.09858500  1
  H  436  1  0.21034200  0.45334400  0.17840500  1
  H  439  1  0.16051400  0.43197900  0.20471600  1
  H  440  1  0.20473100  0.57941700  0.16053100  1
  H  447  1  0.83294100  0.45329900  0.21043700  1
  H  448  1  0.91275600  0.49613800  0.26160600  1
  H  455  1  0.74976200  0.51506800  0.09866400  1
  H  456  1  0.80100400  0.55801100  0.17836700  1
  H  459  1  0.85083200  0.57936900  0.20473900  1
  H  460  1  0.80669100  0.43189200  0.16059300  1
  H  467  1  0.17838300  0.45337700  0.80103900  1
  H  468  1  0.09862300  0.49625800  0.74982500  1
  H  475  1  0.26149100  0.51529300  0.91287800  1
  H  476  1  0.21039900  0.55809600  0.83299600  1
  H  479  1  0.16055700  0.57946900  0.80670400  1
  H  480  1  0.20476700  0.43203200  0.85085900  1
  H  487  1  0.44378300  0.29835800  0.87854700  1
  H  489  1  0.44252100  0.17796100  0.89430000  1
  H  490  1  0.40175700  0.17511300  0.91056600  1
  H  491  1  0.43606100  0.18242700  0.93770600  1
  H  498  1  0.56755800  0.71302100  0.87881900  1
  H  500  1  0.56894300  0.83346100  0.89413000  1
  H  501  1  0.60974400  0.83628300  0.91030300  1
  H  502  1  0.57547700  0.82916900  0.93753800  1
  H  509  1  0.56762000  0.29831300  0.13267800  1
  H  511  1  0.56876300  0.17785400  0.11700500  1
  H  512  1  0.60952900  0.17497000  0.10076000  1
  H  513  1  0.57524200  0.18229900  0.07360200  1
  H  520  1  0.44383800  0.71312600  0.13273600  1
  H  522  1  0.44252300  0.83356600  0.11710900  1
  H  523  1  0.40176200  0.83643100  0.10084100  1
  H  524  1  0.43606400  0.82909900  0.07370200  1
  H  531  1  0.87864200  0.44375800  0.29834300  1
  H  533  1  0.89418800  0.44245800  0.17795900  1
  H  534  1  0.91037800  0.40166500  0.17513600  1
  H  535  1  0.93759600  0.43594400  0.18227700  1
  H  542  1  0.87856700  0.56760000  0.71295300  1
  H  544  1  0.89430000  0.56864800  0.83338600  1
  H  545  1  0.91054300  0.60941400  0.83630100  1
  H  546  1  0.93770100  0.57513700  0.82892200  1
  H  553  1  0.13236900  0.56740800  0.29825300  1
  H  555  1  0.11727600  0.56905300  0.17775900  1
  H  556  1  0.10127900  0.60992600  0.17495800  1
  H  557  1  0.07388400  0.57575700  0.18194800  1
  H  564  1  0.13268100  0.44384800  0.71309600  1
  H  566  1  0.11723100  0.44257800  0.83355400  1
  H  567  1  0.10112800  0.40175200  0.83638600  1
  H  568  1  0.07383500  0.43597400  0.82926200  1
  H  575  1  0.29834500  0.87852200  0.44379300  1
  H  577  1  0.17794800  0.89427300  0.44253600  1
  H  578  1  0.17509800  0.91053800  0.40177200  1
  H  579  1  0.18241400  0.93767800  0.43607600  1
  H  586  1  0.71302100  0.87878900  0.56756000  1
  H  588  1  0.83346100  0.89411300  0.56891300  1
  H  589  1  0.83629100  0.91030100  0.60970600  1
  H  590  1  0.82916400  0.93752300  0.57542700  1
  H  597  1  0.29831800  0.13267000  0.56760800  1
  H  599  1  0.17785800  0.11701100  0.56877300  1
  H  600  1  0.17497900  0.10076900  0.60954100  1
  H  601  1  0.18229900  0.07360800  0.57525500  1
  H  608  1  0.71311800  0.13272900  0.44383300  1
  H  610  1  0.83355600  0.11709900  0.44253100  1
  H  611  1  0.83642300  0.10082300  0.40177200  1
  H  612  1  0.82908900  0.07369000  0.43607900  1
  H  619  1  0.29822800  0.44380800  0.13267100  1
  H  621  1  0.17783700  0.44240800  0.11721500  1
  H  622  1  0.17503000  0.40160500  0.10104600  1
  H  623  1  0.18212900  0.43587400  0.07380600  1
  H  630  1  0.71303600  0.56750000  0.13274900  1
  H  632  1  0.83346600  0.56874300  0.11709500  1
  H  633  1  0.83634600  0.60952100  0.10087800  1
  H  634  1  0.82904200  0.57525000  0.07369400  1
  H  641  1  0.29829300  0.56751300  0.87893900  1
  H  643  1  0.17783900  0.56913300  0.89408300  1
  H  644  1  0.17505100  0.60996100  0.91018600  1
  H  645  1  0.18206100  0.57572500  0.93748800  1
  H  652  1  0.71303600  0.44369000  0.87849900  1
  H  654  1  0.83343600  0.44262800  0.89428800  1
  H  655  1  0.83626800  0.40186700  0.91056100  1
  H  656  1  0.82902900  0.43618600  0.93770100  1
  H  663  1  0.44375300  0.87861400  0.71309100  1
  H  665  1  0.44257100  0.89428000  0.83353100  1
  H  666  1  0.40179200  0.91050100  0.83641300  1
  H  667  1  0.43606400  0.93768300  0.82909400  1
  H  674  1  0.56754000  0.87890900  0.29826800  1
  H  676  1  0.56913000  0.89409300  0.17781800  1
  H  677  1  0.60994600  0.91023100  0.17502700  1
  H  678  1  0.57568700  0.93750300  0.18205700  1
  H  685  1  0.56762500  0.13279500  0.71296300  1
  H  687  1  0.56863800  0.11704600  0.83341100  1
  H  688  1  0.60936600  0.10071200  0.83630100  1
  H  689  1  0.57502700  0.07363400  0.82892200  1
  H  696  1  0.44385300  0.13263600  0.29827800  1
  H  698  1  0.44243600  0.11716700  0.17784600  1
  H  699  1  0.40168200  0.10087800  0.17501600  1
  H  700  1  0.43600900  0.07375300  0.18228600  1
  H  707  1  0.87867900  0.29825800  0.56762300  1
  H  709  1  0.89420000  0.17787900  0.56903000  1
  H  710  1  0.91042800  0.17508400  0.60981100  1
  H  711  1  0.93761800  0.18219900  0.57550500  1
  H  718  1  0.87878400  0.71306600  0.44377300  1
  H  720  1  0.89414800  0.83354900  0.44250100  1
  H  721  1  0.91028600  0.83644600  0.40169200  1
  H  722  1  0.93754300  0.82919900  0.43591600  1
  H  729  1  0.13237000  0.29825500  0.44396000  1
  H  731  1  0.11736300  0.17777800  0.44229800  1
  H  732  1  0.10132600  0.17499100  0.40144200  1
  H  733  1  0.07396600  0.18196500  0.43564100  1
  H  740  1  0.13277100  0.71302100  0.56759300  1
  H  742  1  0.11711600  0.83344100  0.56877500  1
  H  743  1  0.10090000  0.83626100  0.60955600  1
  H  744  1  0.07370800  0.82908200  0.57526700  1
  H  751  1  0.56066400  0.72001800  0.12605500  1
  H  753  1  0.54091300  0.83278400  0.08655000  1
  H  754  1  0.58066200  0.83819100  0.06814000  1
  H  755  1  0.54687300  0.82237500  0.04415900  1
  H  762  1  0.45064500  0.29127300  0.12603700  1
  H  764  1  0.47046800  0.17855200  0.08649100  1
  H  765  1  0.43075400  0.17316000  0.06800200  1
  H  766  1  0.46459300  0.18897200  0.04409000  1
  H  773  1  0.45069200  0.72002500  0.88539600  1
  H  775  1  0.47057800  0.83277600  0.92487000  1
  H  776  1  0.43081900  0.83824100  0.94324500  1
  H  777  1  0.46457600  0.82241500  0.96726800  1
  H  784  1  0.56061600  0.29133800  0.88536600  1
  H  786  1  0.54084600  0.17855200  0.92478200  1
  H  787  1  0.58061700  0.17307700  0.94313300  1
  H  788  1  0.54687800  0.18890400  0.96717800  1
  H  795  1  0.12607100  0.56074600  0.72010300  1
  H  797  1  0.08655400  0.54095800  0.83283600  1
  H  798  1  0.06806700  0.58067400  0.83821600  1
  H  799  1  0.04414800  0.54682800  0.82243200  1
  H  806  1  0.12592800  0.45083200  0.29130600  1
  H  808  1  0.08650900  0.47035500  0.17848400  1
  H  809  1  0.06816400  0.43057200  0.17310100  1
  H  810  1  0.04411400  0.46434600  0.18884800  1
  H  817  1  0.88530100  0.45057000  0.72005500  1
  H  819  1  0.92478200  0.47053800  0.83277600  1
  H  820  1  0.94328800  0.43083700  0.83822100  1
  H  821  1  0.96719500  0.46467300  0.82239500  1
  H  828  1  0.88534600  0.56066900  0.29133100  1
  H  830  1  0.92481200  0.54079800  0.17857900  1
  H  831  1  0.94317000  0.58056900  0.17313100  1
  H  832  1  0.96721500  0.54680800  0.18891200  1
  H  839  1  0.72001500  0.12605200  0.56066600  1
  H  841  1  0.83278400  0.08655900  0.54091600  1
  H  842  1  0.83818800  0.06813900  0.58066200  1
  H  843  1  0.82237700  0.04416600  0.54686300  1
  H  850  1  0.29125800  0.12602700  0.45063200  1
  H  852  1  0.17854200  0.08648300  0.47048300  1
  H  853  1  0.17314700  0.06797400  0.43077700  1
  H  854  1  0.18896400  0.04408000  0.46462600  1
  H  861  1  0.72001300  0.88537300  0.45067700  1
  H  863  1  0.83276900  0.92484000  0.47056800  1
  H  864  1  0.83823100  0.94322000  0.43080900  1
  H  865  1  0.82240700  0.96723800  0.46457100  1
  H  872  1  0.29132800  0.88535100  0.56063900  1
  H  874  1  0.17855200  0.92478500  0.54084100  1
  H  875  1  0.17307400  0.94314500  0.58060700  1
  H  876  1  0.18891000  0.96718000  0.54686500  1
  H  883  1  0.72009800  0.56074400  0.88528900  1
  H  885  1  0.83280600  0.54083800  0.92479700  1
  H  886  1  0.83821800  0.58053200  0.94333300  1
  H  887  1  0.82240000  0.54666800  0.96721000  1
  H  894  1  0.29132800  0.45090500  0.88549100  1
  H  896  1  0.17848000  0.47045300  0.92484000  1
  H  897  1  0.17306000  0.43063900  0.94311500  1
  H  898  1  0.18878500  0.46437100  0.96723800  1
  H  905  1  0.72005800  0.45054000  0.12610800  1
  H  907  1  0.83276900  0.47049000  0.08660000  1
  H  908  1  0.83819600  0.43079900  0.06806900  1
  H  909  1  0.82236000  0.46465300  0.04419100  1
  H  916  1  0.29129800  0.56063900  0.12600800  1
  H  918  1  0.17851900  0.54089600  0.08654900  1
  H  919  1  0.17309800  0.58069200  0.06823600  1
  H  920  1  0.18883700  0.54694000  0.04414800  1
  H  927  1  0.56057600  0.12596600  0.29130800  1
  H  929  1  0.54094600  0.08654600  0.17849500  1
  H  930  1  0.58074200  0.06823300  0.17307000  1
  H  931  1  0.54700000  0.04415100  0.18883800  1
  H  938  1  0.45053200  0.12606500  0.72008500  1
  H  940  1  0.47050500  0.08656100  0.83279400  1
  H  941  1  0.43080700  0.06805100  0.83823600  1
  H  942  1  0.46464300  0.04415300  0.82239200  1
  H  949  1  0.45086000  0.88545800  0.29132100  1
  H  951  1  0.47050300  0.92488000  0.17850300  1
  H  952  1  0.43068900  0.94314800  0.17307200  1
  H  953  1  0.46440600  0.96727300  0.18882300  1
  H  960  1  0.56064400  0.88532400  0.72004000  1
  H  962  1  0.54084300  0.92479500  0.83279600  1
  H  963  1  0.58056900  0.94324800  0.83824100  1
  H  964  1  0.54677000  0.96719300  0.82238700  1
  H  971  1  0.12602200  0.72008800  0.45059500  1
  H  973  1  0.08654400  0.83281100  0.47050300  1
  H  974  1  0.06807400  0.83824600  0.43078200  1
  H  975  1  0.04413500  0.82243700  0.46460600  1
  H  982  1  0.12595300  0.29129600  0.56054400  1
  H  984  1  0.08655100  0.17846200  0.54101300  1
  H  985  1  0.06826000  0.17305900  0.58082200  1
  H  986  1  0.04415600  0.18879600  0.54708000  1
  H  993  1  0.88526400  0.72004300  0.56073400  1
  H  995  1  0.92479000  0.83275400  0.54077600  1
  H  996  1  0.94329300  0.83817800  0.58048200  1
  H  997  1  0.96719500  0.82235000  0.54664300  1
  H  1004  1  0.88541800  0.29132600  0.45079700  1
  H  1006  1  0.92484000  0.17852900  0.47052800  1
  H  1007  1  0.94313000  0.17310200  0.43072200  1
  H  1008  1  0.96724300  0.18882400  0.46446300  1
  C  1  1  0.32513000  0.35120700  0.00736400  1
  C  2  1  0.30860100  0.35719400  0.03858200  1
  C  3  1  0.28302200  0.38124200  0.04289500  1
  C  4  1  0.27131300  0.39771800  0.01412400  1
  C  5  1  0.28555900  0.39304000  0.98217600  1
  C  6  1  0.31401100  0.37164300  0.97991600  1
  C  9  1  0.35117500  0.32520500  0.00401700  1
  C  10  1  0.37160300  0.31407800  0.03147000  1
  C  11  1  0.39303800  0.28565600  0.02919400  1
  C  12  1  0.39780300  0.27150000  0.99722000  1
  C  13  1  0.38132400  0.28321200  0.96845500  1
  C  14  1  0.35720400  0.30871900  0.97278500  1
  C  21  1  0.68621100  0.66012100  0.00739500  1
  C  22  1  0.70270900  0.65408700  0.03862000  1
  C  23  1  0.72822900  0.62997700  0.04293100  1
  C  24  1  0.73995300  0.61352300  0.01415300  1
  C  25  1  0.72574000  0.61825000  0.98219900  1
  C  26  1  0.69732000  0.63969300  0.97993600  1
  C  29  1  0.66019600  0.68615400  0.00405700  1
  C  30  1  0.63975300  0.69725700  0.03150600  1
  C  31  1  0.61832300  0.72568700  0.02924200  1
  C  32  1  0.61362300  0.73991800  0.99729000  1
  C  33  1  0.63008700  0.72819400  0.96852300  1
  C  34  1  0.65420200  0.70267900  0.97284000  1
  C  41  1  0.68620600  0.35115700  0.00400700  1
  C  42  1  0.70271900  0.35718200  0.97278700  1
  C  43  1  0.72824900  0.38127900  0.96848000  1
  C  44  1  0.73995600  0.39775000  0.99725500  1
  C  45  1  0.72572700  0.39303500  0.02920500  1
  C  46  1  0.69731500  0.37158300  0.03146600  1
  C  49  1  0.66018400  0.32512700  0.00733300  1
  C  50  1  0.63976600  0.31401100  0.97987100  1
  C  51  1  0.61835000  0.28557100  0.98211900  1
  C  52  1  0.61361800  0.27136000  0.01407200  1
  C  53  1  0.63008700  0.28305400  0.04285300  1
  C  54  1  0.65416400  0.30860900  0.03855000  1
  C  61  1  0.32513500  0.66023100  0.00405400  1
  C  62  1  0.30862600  0.65423200  0.97283000  1
  C  63  1  0.28310200  0.63012700  0.96851000  1
  C  64  1  0.27137000  0.61366100  0.99727500  1
  C  65  1  0.28559600  0.61835800  0.02922900  1
  C  66  1  0.31402600  0.63978800  0.03150000  1
  C  69  1  0.35116000  0.68625600  0.00739600  1
  C  70  1  0.37160000  0.69735700  0.97994400  1
  C  71  1  0.39304300  0.72577700  0.98220900  1
  C  72  1  0.39775300  0.74000100  0.01416100  1
  C  73  1  0.38128400  0.72828200  0.04293000  1
  C  74  1  0.35716900  0.70276700  0.03861800  1
  C  81  1  0.00737200  0.32513500  0.35120000  1
  C  82  1  0.03858600  0.30859400  0.35716900  1
  C  83  1  0.04289300  0.28304200  0.38124200  1
  C  84  1  0.01412900  0.27131000  0.39770800  1
  C  85  1  0.98218400  0.28557400  0.39304800  1
  C  86  1  0.97992900  0.31402600  0.37164800  1
  C  89  1  0.00402900  0.35117200  0.32519000  1
  C  90  1  0.03148500  0.37158800  0.31406100  1
  C  91  1  0.02921800  0.39300800  0.28562600  1
  C  92  1  0.99725000  0.39776300  0.27145300  1
  C  93  1  0.96847800  0.38128400  0.28315700  1
  C  94  1  0.97279700  0.35719900  0.30869900  1
  C  101  1  0.00734800  0.68619400  0.66013600  1
  C  102  1  0.03857100  0.70270200  0.65411400  1
  C  103  1  0.04288700  0.72821400  0.62999900  1
  C  104  1  0.01411300  0.73992600  0.61352800  1
  C  105  1  0.98216100  0.72570700  0.61824500  1
  C  106  1  0.97989600  0.69729000  0.63969300  1
  C  109  1  0.00400900  0.66017900  0.68617100  1
  C  110  1  0.03146600  0.63975300  0.69729200  1
  C  111  1  0.02919900  0.61831800  0.72571700  1
  C  112  1  0.99724000  0.61359300  0.73992100  1
  C  113  1  0.96846800  0.63004700  0.72818900  1
  C  114  1  0.97278500  0.65415900  0.70267400  1
  C  121  1  0.00398900  0.68625400  0.35112200  1
  C  122  1  0.97277200  0.70278200  0.35710200  1
  C  123  1  0.96846000  0.72835900  0.38115200  1
  C  124  1  0.99722700  0.74006600  0.39763800  1
  C  125  1  0.02917400  0.72580700  0.39297800  1
  C  126  1  0.03143600  0.69736500  0.37156500  1
  C  129  1  0.00733700  0.66021400  0.32511700  1
  C  130  1  0.97988900  0.63977100  0.31401600  1
  C  131  1  0.98214900  0.61834500  0.28558400  1
  C  132  1  0.01410300  0.61363300  0.27136300  1
  C  133  1  0.04286800  0.63011200  0.28307400  1
  C  134  1  0.03855800  0.65421900  0.30859900  1
  C  141  1  0.00406700  0.32515200  0.66022100  1
  C  142  1  0.97283700  0.30865900  0.65419400  1
  C  143  1  0.96852000  0.28312900  0.63009400  1
  C  144  1  0.99729500  0.27139000  0.61364800  1
  C  145  1  0.02925100  0.28559900  0.61837300  1
  C  146  1  0.03152200  0.31402800  0.63980100  1
  C  149  1  0.00740300  0.35118000  0.68624400  1
  C  150  1  0.97995100  0.37162800  0.69733200  1
  C  151  1  0.98220600  0.39306500  0.72575700  1
  C  152  1  0.01415300  0.39776500  0.73999800  1
  C  153  1  0.04292400  0.38129900  0.72828700  1
  C  154  1  0.03861900  0.35717900  0.70277400  1
  C  161  1  0.35119500  0.00734200  0.32515000  1
  C  162  1  0.35718400  0.03856600  0.30863400  1
  C  163  1  0.38125200  0.04288200  0.28307700  1
  C  164  1  0.39771300  0.01411800  0.27133500  1
  C  165  1  0.39303300  0.98216600  0.28557100  1
  C  166  1  0.37163000  0.97989600  0.31402100  1
  C  169  1  0.32519200  0.00399200  0.35119200  1
  C  170  1  0.31406800  0.03144200  0.37162300  1
  C  171  1  0.28564100  0.02916800  0.39305300  1
  C  172  1  0.27148000  0.99719500  0.39781300  1
  C  173  1  0.28319400  0.96843000  0.38133400  1
  C  174  1  0.30870600  0.97275700  0.35721700  1
  C  181  1  0.66011400  0.00736300  0.68618900  1
  C  182  1  0.65406900  0.03858600  0.70268700  1
  C  183  1  0.62996200  0.04288900  0.72821200  1
  C  184  1  0.61352600  0.01410300  0.73994100  1
  C  185  1  0.61826300  0.98215100  0.72572500  1
  C  186  1  0.63969800  0.97989900  0.69730000  1
  C  189  1  0.68615100  0.00403400  0.66017400  1
  C  190  1  0.69725200  0.03148700  0.63973600  1
  C  191  1  0.72568500  0.02923000  0.61831000  1
  C  192  1  0.73992100  0.99728000  0.61360800  1
  C  193  1  0.72819900  0.96851000  0.63006700  1
  C  194  1  0.70268200  0.97282000  0.65417900  1
  C  201  1  0.35113000  0.00398900  0.68623900  1
  C  202  1  0.35713400  0.97277000  0.70275900  1
  C  203  1  0.38121700  0.96846300  0.72830400  1
  C  204  1  0.39768300  0.99723500  0.74002300  1
  C  205  1  0.39298800  0.02918500  0.72578500  1
  C  206  1  0.37156000  0.03144200  0.69735200  1
  C  209  1  0.32511200  0.00732300  0.66020400  1
  C  210  1  0.31399800  0.97986100  0.63978300  1
  C  211  1  0.28556900  0.98211600  0.61835800  1
  C  212  1  0.27136500  0.01407200  0.61361600  1
  C  213  1  0.28305900  0.04285200  0.63008900  1
  C  214  1  0.30860600  0.03854500  0.65417400  1
  C  221  1  0.66022100  0.00404900  0.32513500  1
  C  222  1  0.65421900  0.97282700  0.30862100  1
  C  223  1  0.63011700  0.96851300  0.28309400  1
  C  224  1  0.61365800  0.99728200  0.27136300  1
  C  225  1  0.61835800  0.02923200  0.28559400  1
  C  226  1  0.63978300  0.03149800  0.31402600  1
  C  229  1  0.68624600  0.00738600  0.35116000  1
  C  230  1  0.69735000  0.97993100  0.37159500  1
  C  231  1  0.72577000  0.98219100  0.39304000  1
  C  232  1  0.73999300  0.01414500  0.39775300  1
  C  233  1  0.72827400  0.04291600  0.38128900  1
  C  234  1  0.70275900  0.03860700  0.35717400  1
  C  241  1  0.81367100  0.83977600  0.50660900  1
  C  242  1  0.79671700  0.84708500  0.53731600  1
  C  243  1  0.77453200  0.87440000  0.54146300  1
  C  244  1  0.76548300  0.89260000  0.51278100  1
  C  245  1  0.77925400  0.88546600  0.48121400  1
  C  246  1  0.80431900  0.86029900  0.47862900  1
  C  249  1  0.83975300  0.81370100  0.50472400  1
  C  250  1  0.86023600  0.80434200  0.53272900  1
  C  251  1  0.88537800  0.77925200  0.53017400  1
  C  252  1  0.89259000  0.76554300  0.49860000  1
  C  253  1  0.87443700  0.77459000  0.46988500  1
  C  254  1  0.84710000  0.79676000  0.47402000  1
  C  261  1  0.19763600  0.17152600  0.50663200  1
  C  262  1  0.21459500  0.16417000  0.53732600  1
  C  263  1  0.23673500  0.13680500  0.54143600  1
  C  264  1  0.24581700  0.11868800  0.51271300  1
  C  265  1  0.23205100  0.12588100  0.48116200  1
  C  266  1  0.20696600  0.15102800  0.47862400  1
  C  269  1  0.17156000  0.19760900  0.50475900  1
  C  270  1  0.15106100  0.20696200  0.53275600  1
  C  271  1  0.12586800  0.23200300  0.53017200  1
  C  272  1  0.11868500  0.24573600  0.49860200  1
  C  273  1  0.13686700  0.23668800  0.46991300  1
  C  274  1  0.16423200  0.21456200  0.47405700  1
  C  281  1  0.19767400  0.83974800  0.50473900  1
  C  282  1  0.21464100  0.84706700  0.47404200  1
  C  283  1  0.23685700  0.87436200  0.46992800  1
  C  284  1  0.24589000  0.89254800  0.49862500  1
  C  285  1  0.23209400  0.88540800  0.53017900  1
  C  286  1  0.20701500  0.86025100  0.53273400  1
  C  289  1  0.17158300  0.81368600  0.50660400  1
  C  290  1  0.15108600  0.80436200  0.47859400  1
  C  291  1  0.12592900  0.77928200  0.48113900  1
  C  292  1  0.11871400  0.76554800  0.51270100  1
  C  293  1  0.13687100  0.77459700  0.54140800  1
  C  294  1  0.16424500  0.79671700  0.53729600  1
  C  301  1  0.81374100  0.17158500  0.50476900  1
  C  302  1  0.79680200  0.16425000  0.47406000  1
  C  303  1  0.77464200  0.13690700  0.46992300  1
  C  304  1  0.76553800  0.11877200  0.49862500  1
  C  305  1  0.77928200  0.12594300  0.53019200  1
  C  306  1  0.80437400  0.15108400  0.53276400  1
  C  309  1  0.83982600  0.19765900  0.50666200  1
  C  310  1  0.86033600  0.20701600  0.47867400  1
  C  311  1  0.88551300  0.23207000  0.48126700  1
  C  312  1  0.89267500  0.24581500  0.51283600  1
  C  313  1  0.87449200  0.23675400  0.54152100  1
  C  314  1  0.84714500  0.21460500  0.53737300  1
  C  321  1  0.50662700  0.81368100  0.83980600  1
  C  322  1  0.53733100  0.79672500  0.84711200  1
  C  323  1  0.54147800  0.77454000  0.87442700  1
  C  324  1  0.51279300  0.76549300  0.89262800  1
  C  325  1  0.48122900  0.77926400  0.88549300  1
  C  326  1  0.47864400  0.80433200  0.86032900  1
  C  329  1  0.50474200  0.83976300  0.81373100  1
  C  330  1  0.53274900  0.86024600  0.80437400  1
  C  331  1  0.53020200  0.88537300  0.77926900  1
  C  332  1  0.49862700  0.89259000  0.76556100  1
  C  333  1  0.46991500  0.87443500  0.77460200  1
  C  334  1  0.47404000  0.84710700  0.79678500  1
  C  341  1  0.50663400  0.19763800  0.17152900  1
  C  342  1  0.53733100  0.21459200  0.16417100  1
  C  343  1  0.54143800  0.23673400  0.13680800  1
  C  344  1  0.51271600  0.24582300  0.11869500  1
  C  345  1  0.48116200  0.23205800  0.12588900  1
  C  346  1  0.47862400  0.20697100  0.15103400  1
  C  349  1  0.50476200  0.17157100  0.19761900  1
  C  350  1  0.53275400  0.15106700  0.20697500  1
  C  351  1  0.53017200  0.12589000  0.23203300  1
  C  352  1  0.49860500  0.11873600  0.24579200  1
  C  353  1  0.46992000  0.13692400  0.23673800  1
  C  354  1  0.47406000  0.16426200  0.21458100  1
  C  361  1  0.50471700  0.19768600  0.83975800  1
  C  362  1  0.47402200  0.21465300  0.84708500  1
  C  363  1  0.46991300  0.23686700  0.87438200  1
  C  364  1  0.49861200  0.24589600  0.89256500  1
  C  365  1  0.53016400  0.23209900  0.88541800  1
  C  366  1  0.53271600  0.20702400  0.86025900  1
  C  369  1  0.50657400  0.17160200  0.81368800  1
  C  370  1  0.47856200  0.15111300  0.80436200  1
  C  371  1  0.48109900  0.12596900  0.77927200  1
  C  372  1  0.51265600  0.11876700  0.76551800  1
  C  373  1  0.54137300  0.13692100  0.77454700  1
  C  374  1  0.53726100  0.16426400  0.79671000  1
  C  381  1  0.50477700  0.81375300  0.17158000  1
  C  382  1  0.47406500  0.79681500  0.16425100  1
  C  383  1  0.46992300  0.77465200  0.13691200  1
  C  384  1  0.49862500  0.76554300  0.11877600  1
  C  385  1  0.53019200  0.77928700  0.12594100  1
  C  386  1  0.53276600  0.80438200  0.15107700  1
  C  389  1  0.50667400  0.83984600  0.19764500  1
  C  390  1  0.47868900  0.86036400  0.20699700  1
  C  391  1  0.48128900  0.88555800  0.23203500  1
  C  392  1  0.51286300  0.89272000  0.24577100  1
  C  393  1  0.54154300  0.87452700  0.23671500  1
  C  394  1  0.53738600  0.84716700  0.21458600  1
  C  401  1  0.83974800  0.50659400  0.81365300  1
  C  402  1  0.84708000  0.53728600  0.79668000  1
  C  403  1  0.87436000  0.54139600  0.77444000  1
  C  404  1  0.89253000  0.51268100  0.76542600  1
  C  405  1  0.88538800  0.48113200  0.77923200  1
  C  406  1  0.86024100  0.47859200  0.80431900  1
  C  409  1  0.81368600  0.50473700  0.83974600  1
  C  410  1  0.80436400  0.53274600  0.86024100  1
  C  411  1  0.77928700  0.53020200  0.88540100  1
  C  412  1  0.76555100  0.49864000  0.89261500  1
  C  413  1  0.77459500  0.46993500  0.87445500  1
  C  414  1  0.79671700  0.47404500  0.84708200  1
  C  421  1  0.17152300  0.50664200  0.19762900  1
  C  422  1  0.16416600  0.53734300  0.21457100  1
  C  423  1  0.13678300  0.54148100  0.23668300  1
  C  424  1  0.11863900  0.51276800  0.24575100  1
  C  425  1  0.12584000  0.48120200  0.23202300  1
  C  426  1  0.15101600  0.47864200  0.20696700  1
  C  429  1  0.19762100  0.50475900  0.17156700  1
  C  430  1  0.20698700  0.53275100  0.15106700  1
  C  431  1  0.23204600  0.53016400  0.12589200  1
  C  432  1  0.24578900  0.49859500  0.11872600  1
  C  433  1  0.23672400  0.46990800  0.13690400  1
  C  434  1  0.21457300  0.47405200  0.16424900  1
  C  441  1  0.83976800  0.50471200  0.19770300  1
  C  442  1  0.84708700  0.47401500  0.21466800  1
  C  443  1  0.87440500  0.46988500  0.23685700  1
  C  444  1  0.89259800  0.49857500  0.24589100  1
  C  445  1  0.88545600  0.53012900  0.23210000  1
  C  446  1  0.86028100  0.53270400  0.20704200  1
  C  449  1  0.81369300  0.50657700  0.17162300  1
  C  450  1  0.80434700  0.47856200  0.15114800  1
  C  451  1  0.77924700  0.48109400  0.12601000  1
  C  452  1  0.76552600  0.51266100  0.11878900  1
  C  453  1  0.77455700  0.54138300  0.13693400  1
  C  454  1  0.79673700  0.53727300  0.16426500  1
  C  461  1  0.17159600  0.50480400  0.81374600  1
  C  462  1  0.16426300  0.47410500  0.79678700  1
  C  463  1  0.13689900  0.46998000  0.77465200  1
  C  464  1  0.11875600  0.49868500  0.76557100  1
  C  465  1  0.12594000  0.53024700  0.77932400  1
  C  466  1  0.15108900  0.53280100  0.80440700  1
  C  469  1  0.19766700  0.50668400  0.83983300  1
  C  470  1  0.20701000  0.47869200  0.86034100  1
  C  471  1  0.23204100  0.48128200  0.88554300  1
  C  472  1  0.24577500  0.51285100  0.89272300  1
  C  473  1  0.23673400  0.54153800  0.87453000  1
  C  474  1  0.21461400  0.53739100  0.84716200  1
  C  481  1  0.42024800  0.22452000  0.90992900  1
  C  482  1  0.43816600  0.24640700  0.88827600  1
  C  483  1  0.43043400  0.28087200  0.89156500  1
  C  485  1  0.39270100  0.27101300  0.93680100  1
  C  488  1  0.42565500  0.18802300  0.91310800  1
  C  492  1  0.59114300  0.78691300  0.90993100  1
  C  493  1  0.57323700  0.76500100  0.88828100  1
  C  494  1  0.58102400  0.73055400  0.89164500  1
  C  496  1  0.61878000  0.74052100  0.93690800  1
  C  499  1  0.58582100  0.82344000  0.91294600  1
  C  503  1  0.59108300  0.22439900  0.10136100  1
  C  504  1  0.57317700  0.24637000  0.12295100  1
  C  505  1  0.58097200  0.28080900  0.11968400  1
  C  507  1  0.61868800  0.27082000  0.07449800  1
  C  510  1  0.58564100  0.18789900  0.09820200  1
  C  514  1  0.42023000  0.78701600  0.10148300  1
  C  515  1  0.43815800  0.76507800  0.12307000  1
  C  516  1  0.43036200  0.73062700  0.11987800  1
  C  518  1  0.39264300  0.74053100  0.07456200  1
  C  521  1  0.42565500  0.82351000  0.09830100  1
  C  525  1  0.90996900  0.42025300  0.22451300  1
  C  526  1  0.88827100  0.43813600  0.24640700  1
  C  527  1  0.89162500  0.43036700  0.28086400  1
  C  529  1  0.93682800  0.39266800  0.27092500  1
  C  532  1  0.91300300  0.42558500  0.18798800  1
  C  536  1  0.90990900  0.59101300  0.78685800  1
  C  537  1  0.88830100  0.57312700  0.76491100  1
  C  538  1  0.89157300  0.58092400  0.73047200  1
  C  540  1  0.93683800  0.61866500  0.74042100  1
  C  543  1  0.91309600  0.58554100  0.82335000  1
  C  547  1  0.10144600  0.59124600  0.22429900  1
  C  548  1  0.12293600  0.57324000  0.24627400  1
  C  549  1  0.11961000  0.58095400  0.28073400  1
  C  551  1  0.07448400  0.61882800  0.27070500  1
  C  554  1  0.09850400  0.58599400  0.18775700  1
  C  558  1  0.10146700  0.42033800  0.78700800  1
  C  559  1  0.12304700  0.43823100  0.76502600  1
  C  560  1  0.11975200  0.43042900  0.73059400  1
  C  562  1  0.07453500  0.39263100  0.74061100  1
  C  565  1  0.09844500  0.42566700  0.82353500  1
  C  569  1  0.22450600  0.90990400  0.42026000  1
  C  570  1  0.24639400  0.88825100  0.43817800  1
  C  571  1  0.28085700  0.89154000  0.43044400  1
  C  573  1  0.27099800  0.93677300  0.39271100  1
  C  576  1  0.18800900  0.91308100  0.42567000  1
  C  580  1  0.78691600  0.90991600  0.59111600  1
  C  581  1  0.76500300  0.88825800  0.57322200  1
  C  582  1  0.73055700  0.89162000  0.58101700  1
  C  584  1  0.74052800  0.93689600  0.61875800  1
  C  587  1  0.82344000  0.91293300  0.58578600  1
  C  591  1  0.22440500  0.10136300  0.59108600  1
  C  592  1  0.24637500  0.12295000  0.57317500  1
  C  593  1  0.28081400  0.11968000  0.58096400  1
  C  595  1  0.27082800  0.07449800  0.61868800  1
  C  598  1  0.18790400  0.09820800  0.58565100  1
  C  602  1  0.78700800  0.10146900  0.42023800  1
  C  603  1  0.76506800  0.12306000  0.43815800  1
  C  604  1  0.73061900  0.11986800  0.43036200  1
  C  606  1  0.74052600  0.07454700  0.39264800  1
  C  609  1  0.82350200  0.09828700  0.42566500  1
  C  613  1  0.22439500  0.42022800  0.10141200  1
  C  614  1  0.24629000  0.43814100  0.12308200  1
  C  615  1  0.28075200  0.43039200  0.11971100  1
  C  617  1  0.27080500  0.39265300  0.07454100  1
  C  620  1  0.18786500  0.42553200  0.09839900  1
  C  624  1  0.78692600  0.59105600  0.10144800  1
  C  625  1  0.76498600  0.57312200  0.12303200  1
  C  626  1  0.73052900  0.58086400  0.11975500  1
  C  628  1  0.74047800  0.61860800  0.07458200  1
  C  631  1  0.82342700  0.58563100  0.09829900  1
  C  635  1  0.22439400  0.59128100  0.90993600  1
  C  636  1  0.24631100  0.57330500  0.88833800  1
  C  637  1  0.28077700  0.58102900  0.89173300  1
  C  639  1  0.27078300  0.61881800  0.93687100  1
  C  642  1  0.18785300  0.58602400  0.91289100  1
  C  646  1  0.78686800  0.42039800  0.91001100  1
  C  647  1  0.76493800  0.43819800  0.88828300  1
  C  648  1  0.73050900  0.43033700  0.89152300  1
  C  650  1  0.74044100  0.39270800  0.93683600  1
  C  653  1  0.82338200  0.42578000  0.91311600  1
  C  657  1  0.42025300  0.90991400  0.78699300  1
  C  658  1  0.43816800  0.88832800  0.76504600  1
  C  659  1  0.43040200  0.89160300  0.73059900  1
  C  661  1  0.39262100  0.93683800  0.74053100  1
  C  664  1  0.42568000  0.91307600  0.82349000  1
  C  668  1  0.59127800  0.90994400  0.22437500  1
  C  669  1  0.57331500  0.88833100  0.24628800  1
  C  670  1  0.58104900  0.89171500  0.28075200  1
  C  672  1  0.61881300  0.93687300  0.27076500  1
  C  675  1  0.58600900  0.91291100  0.18783600  1
  C  679  1  0.59095100  0.10140300  0.78685800  1
  C  680  1  0.57310000  0.12306900  0.76490100  1
  C  681  1  0.58093900  0.11977600  0.73047400  1
  C  683  1  0.61858300  0.07453700  0.74046100  1
  C  686  1  0.58548100  0.09821800  0.82335500  1
  C  690  1  0.42020800  0.10148900  0.22441300  1
  C  691  1  0.43815100  0.12312000  0.24631000  1
  C  692  1  0.43037400  0.11979900  0.28076400  1
  C  694  1  0.39263600  0.07451600  0.27086000  1
  C  697  1  0.42559000  0.09834100  0.18790800  1
  C  701  1  0.91000400  0.22444800  0.59118600  1
  C  702  1  0.88830800  0.24632600  0.57328500  1
  C  703  1  0.89165800  0.28079200  0.58103200  1
  C  705  1  0.93686600  0.27087800  0.61873500  1
  C  708  1  0.91303300  0.18791900  0.58587900  1
  C  712  1  0.90983900  0.78703100  0.42017000  1
  C  713  1  0.88833600  0.76504600  0.43813600  1
  C  714  1  0.89170300  0.73060200  0.43039200  1
  C  716  1  0.93685100  0.74064100  0.39252600  1
  C  719  1  0.91293100  0.82353700  0.42558000  1
  C  723  1  0.10150500  0.22432800  0.42014000  1
  C  724  1  0.12305700  0.24626200  0.43814300  1
  C  725  1  0.11961800  0.28072200  0.43042700  1
  C  727  1  0.07450700  0.27069300  0.39255600  1
  C  730  1  0.09857400  0.18778200  0.42538200  1
  C  734  1  0.10136200  0.78687600  0.59098800  1
  C  735  1  0.12304900  0.76492800  0.57314500  1
  C  736  1  0.11977800  0.73049400  0.58097700  1
  C  738  1  0.07454000  0.74046600  0.61863500  1
  C  741  1  0.09829900  0.82339700  0.58563900  1
  C  745  1  0.56881500  0.78762600  0.07732800  1
  C  746  1  0.55722100  0.76878000  0.10506000  1
  C  747  1  0.56880800  0.73538100  0.10731500  1
  C  749  1  0.59969500  0.73996800  0.05653100  1
  C  752  1  0.55859900  0.82215700  0.06879600  1
  C  756  1  0.44259800  0.22372000  0.07722300  1
  C  757  1  0.45410700  0.24251700  0.10501900  1
  C  758  1  0.44247800  0.27590200  0.10731500  1
  C  760  1  0.41167900  0.27136000  0.05646500  1
  C  763  1  0.45281900  0.18918500  0.06870500  1
  C  767  1  0.44262100  0.78765600  0.93411100  1
  C  768  1  0.45421700  0.76877300  0.90640900  1
  C  769  1  0.44257100  0.73539900  0.90413400  1
  C  771  1  0.41168600  0.74004100  0.95491900  1
  C  774  1  0.45286700  0.82218700  0.94262000  1
  C  778  1  0.56881500  0.22366300  0.93401600  1
  C  779  1  0.55719600  0.24255300  0.90633100  1
  C  780  1  0.56883000  0.27593500  0.90403900  1
  C  782  1  0.59973700  0.27129500  0.95481900  1
  C  785  1  0.55857100  0.18913400  0.94252500  1
  C  789  1  0.07726600  0.56880500  0.78765800  1
  C  790  1  0.10505800  0.55729100  0.76885800  1
  C  791  1  0.10732200  0.56888500  0.73545600  1
  C  793  1  0.05649000  0.59970200  0.74001100  1
  C  796  1  0.06876300  0.55860100  0.82220200  1
  C  800  1  0.07727600  0.44249100  0.22366100  1
  C  801  1  0.10497400  0.45414900  0.24250700  1
  C  802  1  0.10721800  0.44263100  0.27593500  1
  C  804  1  0.05649800  0.41163600  0.27133800  1
  C  807  1  0.06876800  0.45265400  0.18910700  1
  C  811  1  0.93410100  0.44262600  0.78764300  1
  C  812  1  0.90631400  0.45409900  0.76881500  1
  C  813  1  0.90402900  0.44243600  0.73544100  1
  C  815  1  0.95491200  0.41169900  0.74003100  1
  C  818  1  0.94258800  0.45288700  0.82217500  1
  C  822  1  0.93408400  0.56872300  0.22371500  1
  C  823  1  0.90636100  0.55715100  0.24258600  1
  C  824  1  0.90407200  0.56881500  0.27595500  1
  C  826  1  0.95485900  0.59970200  0.27131500  1
  C  829  1  0.94256500  0.55850900  0.18916800  1
  C  833  1  0.78762300  0.07732900  0.56881500  1
  C  834  1  0.76878000  0.10506300  0.55722400  1
  C  835  1  0.73537900  0.10731300  0.56881000  1
  C  837  1  0.73996800  0.05652300  0.59968700  1
  C  840  1  0.82215700  0.06880100  0.55859900  1
  C  844  1  0.22370800  0.07720400  0.44261100  1
  C  845  1  0.24250400  0.10500700  0.45410700  1
  C  846  1  0.27588700  0.10730100  0.44247300  1
  C  848  1  0.27134500  0.05644000  0.41169400  1
  C  851  1  0.18917500  0.06868900  0.45283900  1
  C  855  1  0.78764600  0.93408600  0.44261100  1
  C  856  1  0.76876300  0.90638400  0.45420400  1
  C  857  1  0.73538900  0.90411200  0.44255800  1
  C  859  1  0.74003100  0.95490200  0.41168100  1
  C  862  1  0.82217700  0.94259300  0.45285700  1
  C  866  1  0.22366100  0.93401600  0.56881500  1
  C  867  1  0.24254800  0.90632600  0.55720400  1
  C  868  1  0.27592700  0.90403200  0.56884500  1
  C  870  1  0.27129000  0.95481900  0.59974200  1
  C  873  1  0.18913500  0.94253000  0.55856400  1
  C  877  1  0.78765100  0.56871300  0.93410900  1
  C  878  1  0.76884800  0.55724100  0.90630100  1
  C  879  1  0.73545600  0.56886000  0.90404400  1
  C  881  1  0.74003100  0.59965000  0.95489400  1
  C  884  1  0.82218500  0.55847100  0.94260800  1
  C  888  1  0.22363600  0.44255800  0.93408900  1
  C  889  1  0.24253100  0.45424900  0.90643900  1
  C  890  1  0.27594500  0.44270300  0.90418700  1
  C  892  1  0.27129300  0.41168400  0.95489400  1
  C  895  1  0.18907300  0.45271900  0.94256500  1
  C  899  1  0.78762300  0.44259300  0.07729600  1
  C  900  1  0.76881500  0.45405700  0.10510400  1
  C  901  1  0.73543600  0.44240600  0.10738000  1
  C  903  1  0.74000800  0.41166100  0.05649800  1
  C  906  1  0.82215200  0.45285200  0.06879300  1
  C  910  1  0.22367400  0.56879000  0.07728500  1
  C  911  1  0.24255100  0.55717600  0.10498200  1
  C  912  1  0.27593000  0.56881000  0.10728700  1
  C  914  1  0.27130800  0.59972700  0.05651200  1
  C  917  1  0.18911500  0.55861600  0.06881000  1
  C  921  1  0.56886000  0.07731800  0.22364300  1
  C  922  1  0.55719600  0.10498800  0.24252600  1
  C  923  1  0.56876000  0.10725500  0.27593200  1
  C  925  1  0.59974200  0.05652400  0.27130500  1
  C  928  1  0.55867100  0.06881400  0.18909600  1
  C  932  1  0.44259100  0.07726200  0.78766100  1
  C  933  1  0.45405700  0.10506400  0.76884500  1
  C  934  1  0.44239600  0.10733900  0.73546900  1
  C  936  1  0.41163400  0.05646800  0.74005600  1
  C  939  1  0.45285400  0.06876100  0.82218500  1
  C  943  1  0.44258300  0.93410400  0.22365100  1
  C  944  1  0.45427200  0.90645400  0.24255100  1
  C  945  1  0.44267800  0.90416900  0.27594200  1
  C  947  1  0.41169400  0.95489400  0.27130300  1
  C  950  1  0.45275900  0.94259800  0.18909600  1
  C  954  1  0.56878300  0.93403900  0.78766800  1
  C  955  1  0.55722600  0.90629600  0.76882500  1
  C  956  1  0.56883500  0.90401900  0.73543100  1
  C  958  1  0.59967700  0.95484400  0.74002100  1
  C  961  1  0.55852400  0.94256800  0.82218700  1
  C  965  1  0.07724200  0.78767100  0.44260100  1
  C  966  1  0.10502600  0.76884800  0.45409900  1
  C  967  1  0.10727700  0.73545600  0.44247300  1
  C  969  1  0.05645400  0.74006600  0.41164400  1
  C  972  1  0.06875300  0.82220700  0.45283900  1
  C  976  1  0.07732300  0.22362700  0.56889800  1
  C  977  1  0.10498400  0.24250500  0.55720900  1
  C  978  1  0.10725100  0.27592000  0.56875000  1
  C  980  1  0.05654100  0.27130000  0.59976500  1
  C  983  1  0.06882500  0.18906900  0.55874100  1
  C  987  1  0.93408100  0.78760800  0.56867800  1
  C  988  1  0.90628600  0.76878500  0.55719400  1
  C  989  1  0.90399200  0.73541900  0.56887000  1
  C  991  1  0.95487400  0.73999100  0.59961700  1
  C  994  1  0.94258500  0.82213700  0.55842600  1
  C  998  1  0.93411600  0.22368200  0.44263300  1
  C  999  1  0.90642900  0.24257100  0.45425400  1
  C  1000  1  0.90413700  0.27595000  0.44262300  1
  C  1002  1  0.95490400  0.27131300  0.41170900  1
  C  1005  1  0.94257500  0.18911700  0.45279900  1
  N  484  1  0.40932900  0.29198300  0.91587500  1
  N  486  1  0.39941700  0.23783900  0.93335600  1
  N  495  1  0.60208400  0.71953000  0.91603800  1
  N  497  1  0.61201800  0.77366500  0.93334900  1
  N  506  1  0.60210900  0.29187300  0.09537800  1
  N  508  1  0.61195600  0.23765500  0.07793500  1
  N  517  1  0.40930100  0.71957800  0.09549700  1
  N  519  1  0.39939500  0.77369700  0.07806500  1
  N  528  1  0.91595800  0.40927400  0.29195300  1
  N  530  1  0.93338400  0.39937000  0.23776100  1
  N  539  1  0.91589800  0.60205200  0.71943300  1
  N  541  1  0.93333900  0.61186100  0.77357700  1
  N  550  1  0.09524500  0.60205400  0.29174800  1
  N  552  1  0.07805700  0.61216100  0.23754800  1
  N  561  1  0.09541000  0.40930100  0.71959300  1
  N  563  1  0.07807800  0.39942700  0.77375500  1
  N  572  1  0.29196800  0.91585000  0.40933600  1
  N  574  1  0.23782300  0.93332900  0.39943000  1
  N  583  1  0.71953500  0.91601800  0.60207400  1
  N  585  1  0.77367000  0.93333900  0.61198800  1
  N  594  1  0.29188100  0.09537300  0.60210200  1
  N  596  1  0.23766200  0.07793800  0.61195800  1
  N  605  1  0.71957000  0.09548500  0.40930100  1
  N  607  1  0.77369000  0.07804800  0.39940200  1
  N  616  1  0.29183800  0.40928900  0.09538600  1
  N  618  1  0.23764100  0.39933700  0.07800400  1
  N  627  1  0.71944300  0.60199400  0.09545100  1
  N  629  1  0.77365200  0.61191300  0.07802000  1
  N  638  1  0.29183300  0.60210400  0.91610000  1
  N  640  1  0.23762300  0.61217800  0.93334900  1
  N  649  1  0.71944500  0.40924600  0.91586800  1
  N  651  1  0.77360000  0.39951200  0.93341400  1
  N  660  1  0.40926600  0.91591800  0.71955000  1
  N  662  1  0.39940000  0.93333100  0.77369200  1
  N  671  1  0.60211700  0.91608500  0.29181300  1
  N  673  1  0.61216600  0.93336100  0.23760700  1
  N  682  1  0.60205400  0.09545300  0.71940800  1
  N  684  1  0.61180800  0.07795900  0.77361700  1
  N  693  1  0.40931900  0.09541800  0.29181800  1
  N  695  1  0.39937200  0.07805300  0.23770200  1
  N  704  1  0.91599300  0.29189600  0.60211400  1
  N  706  1  0.93342100  0.23771100  0.61205800  1
  N  715  1  0.91602000  0.71960500  0.40923100  1
  N  717  1  0.93326600  0.77378700  0.39929500  1
  N  726  1  0.09525300  0.29174100  0.40933100  1
  N  728  1  0.07809900  0.23754600  0.39922700  1
  N  737  1  0.09544100  0.71942500  0.60207400  1
  N  739  1  0.07796000  0.77362500  0.61188600  1
  N  748  1  0.58899800  0.72213000  0.08339000  1
  N  750  1  0.58914100  0.77233500  0.05480100  1
  N  759  1  0.42233000  0.28917100  0.08336300  1
  N  761  1  0.42226500  0.23900800  0.05470500  1
  N  770  1  0.42236000  0.72218500  0.92806200  1
  N  772  1  0.42227300  0.77240000  0.95664100  1
  N  781  1  0.58901300  0.28915600  0.92798400  1
  N  783  1  0.58916600  0.23893100  0.95653600  1
  N  792  1  0.08337700  0.58904100  0.72219200  1
  N  794  1  0.05473900  0.58912800  0.77237000  1
  N  803  1  0.08331500  0.42242000  0.28919100  1
  N  805  1  0.05477000  0.42214800  0.23895700  1
  N  814  1  0.92800700  0.42230500  0.72220200  1
  N  816  1  0.95664400  0.42230500  0.77238000  1
  N  825  1  0.92800400  0.58902100  0.28917100  1
  N  827  1  0.95659400  0.58909600  0.23896600  1
  N  836  1  0.72213000  0.08338400  0.58899300  1
  N  838  1  0.77233500  0.05479700  0.58913600  1
  N  847  1  0.28915300  0.08334400  0.42233300  1
  N  849  1  0.23899400  0.05468000  0.42228300  1
  N  858  1  0.72217500  0.92804200  0.42235300  1
  N  860  1  0.77239000  0.95661900  0.42226800  1
  N  869  1  0.28914800  0.92797700  0.58902600  1
  N  871  1  0.23892900  0.95653900  0.58916300  1
  N  880  1  0.72220700  0.58901100  0.92800200  1
  N  882  1  0.77237500  0.58903300  0.95664900  1
  N  891  1  0.28916800  0.42247300  0.92809400  1
  N  893  1  0.23890900  0.42219800  0.95659400  1
  N  902  1  0.72218700  0.42227500  0.08340400  1
  N  904  1  0.77235200  0.42227300  0.05475400  1
  N  913  1  0.28915800  0.58901300  0.08336100  1
  N  915  1  0.23894500  0.58915800  0.05478400  1
  N  924  1  0.58897600  0.08334400  0.28916600  1
  N  926  1  0.58920800  0.05480800  0.23893000  1
  N  935  1  0.42225300  0.08336900  0.72222700  1
  N  937  1  0.42225800  0.05472700  0.77239700  1
  N  946  1  0.42244500  0.92807200  0.28916800  1
  N  948  1  0.42221800  0.95660600  0.23892300  1
  N  957  1  0.58898300  0.92798200  0.72218200  1
  N  959  1  0.58909800  0.95657600  0.77238000  1
  N  968  1  0.08333300  0.72222500  0.42229300  1
  N  970  1  0.05471500  0.77241200  0.42225500  1
  N  979  1  0.08334900  0.28916100  0.58897100  1
  N  981  1  0.05482200  0.23891700  0.58925300  1
  N  990  1  0.92796400  0.72217200  0.58900800  1
  N  992  1  0.95661900  0.77233700  0.58900300  1
  N  1001  1  0.92806200  0.28917100  0.42241800  1
  N  1003  1  0.95661900  0.23894400  0.42226300  1
  O  17  1  0.33090900  0.37204000  0.95037700  1
  O  18  1  0.37194500  0.33093400  0.06103300  1
  O  37  1  0.68044700  0.63935300  0.95038400  1
  O  38  1  0.63938300  0.68036900  0.06105000  1
  O  57  1  0.68042900  0.37193000  0.06101100  1
  O  58  1  0.63940300  0.33090200  0.95032700  1
  O  77  1  0.33089900  0.63943100  0.06105200  1
  O  78  1  0.37195800  0.68046900  0.95039900  1
  O  97  1  0.95039700  0.33093700  0.37204500  1
  O  98  1  0.06105000  0.37192800  0.33091400  1
  O  117  1  0.95035200  0.68040700  0.63933600  1
  O  118  1  0.06101900  0.63940100  0.68041900  1
  O  137  1  0.06097200  0.68046200  0.37194300  1
  O  138  1  0.95034400  0.63941100  0.33090400  1
  O  157  1  0.06108600  0.33087900  0.63946300  1
  O  158  1  0.95041900  0.37199800  0.68042700  1
  O  177  1  0.37202800  0.95035400  0.33091200  1
  O  178  1  0.33092900  0.06100100  0.37197500  1
  O  197  1  0.63936300  0.95034400  0.68042900  1
  O  198  1  0.68036200  0.06102800  0.63936800  1
  O  217  1  0.37193000  0.06098000  0.68045400  1
  O  218  1  0.33087900  0.95031400  0.63943100  1
  O  237  1  0.63942600  0.06105100  0.33090200  1
  O  238  1  0.68045900  0.95038700  0.37195000  1
  O  257  1  0.82184000  0.85929100  0.44936700  1
  O  258  1  0.85922900  0.82187200  0.56198600  1
  O  277  1  0.18942700  0.15207400  0.44937200  1
  O  278  1  0.15210700  0.18947100  0.56203400  1
  O  297  1  0.18946900  0.85923600  0.56198100  1
  O  298  1  0.15210700  0.82191200  0.44935000  1
  O  317  1  0.82187500  0.15212400  0.56203600  1
  O  318  1  0.85931900  0.18951500  0.44940000  1
  O  337  1  0.44938500  0.82185500  0.85931900  1
  O  338  1  0.56200100  0.85923900  0.82191500  1
  O  357  1  0.44937500  0.18943100  0.15208100  1
  O  358  1  0.56202400  0.15209200  0.18946800  1
  O  377  1  0.56196400  0.18947700  0.85923400  1
  O  378  1  0.44932500  0.15212300  0.82192700  1
  O  397  1  0.56204100  0.82188200  0.15211200  1
  O  398  1  0.44941200  0.85933900  0.18950500  1
  O  417  1  0.85923900  0.44936000  0.82189000  1
  O  418  1  0.82191500  0.56199100  0.85921900  1
  O  437  1  0.15208800  0.44937000  0.18946700  1
  O  438  1  0.18949100  0.56202900  0.15208600  1
  O  457  1  0.85926100  0.56196100  0.18951400  1
  O  458  1  0.82189700  0.44931700  0.15216100  1
  O  477  1  0.15212900  0.56206100  0.82193000  1
  O  478  1  0.18951700  0.44941500  0.85929400  1
