# generated using pymatgen
data_H13(C7N)2
_symmetry_space_group_name_H-M   'P 1'
_cell_length_a   44.66768507
_cell_length_b   44.66768507
_cell_length_c   44.66768507
_cell_angle_alpha   109.47122063
_cell_angle_beta   109.47122063
_cell_angle_gamma   109.47122063
_symmetry_Int_Tables_number   1
_chemical_formula_structural   H13(C7N)2
_chemical_formula_sum   'H624 C672 N96'
_cell_volume   68605.42289235
_cell_formula_units_Z   48
loop_
 _symmetry_equiv_pos_site_id
 _symmetry_equiv_pos_as_xyz
  1  'x, y, z'
loop_
 _atom_site_type_symbol
 _atom_site_label
 _atom_site_symmetry_multiplicity
 _atom_site_fract_x
 _atom_site_fract_y
 _atom_site_fract_z
 _atom_site_occupancy
  C  1  1  0.15361450  0.09135650  0.20349400  1
  C  2  1  0.13589850  0.08249600  0.22296150  1
  C  3  1  0.14987250  0.10613900  0.26060850  1
  C  4  1  0.18113850  0.14140850  0.27757400  1
  C  5  1  0.20463650  0.14655250  0.26227600  1
  C  6  1  0.19058250  0.12122250  0.22468000  1
  C  9  1  0.13303900  0.07113350  0.16367050  1
  C  10  1  0.11260400  0.03188200  0.14160400  1
  C  11  1  0.08574250  0.01475550  0.10378300  1
  C  12  1  0.08033400  0.03738800  0.08869400  1
  C  13  1  0.10616550  0.07550950  0.10797000  1
  C  14  1  0.13134750  0.09184050  0.14552700  1
  C  27  1  0.36300250  0.05655500  0.44533950  1
  C  28  1  0.38148800  0.09394750  0.45491950  1
  C  29  1  0.36796850  0.11807750  0.46476400  1
  C  30  1  0.33682950  0.10420800  0.46908450  1
  C  31  1  0.31279450  0.06549900  0.45064150  1
  C  32  1  0.32606000  0.04143250  0.43847150  1
  C  35  1  0.38172600  0.03537950  0.44316050  1
  C  36  1  0.39998650  0.03197200  0.42225450  1
  C  37  1  0.42137500  0.01414550  0.42580650  1
  C  38  1  0.42205450  0.99708900  0.44801150  1
  C  39  1  0.40230800  0.99874800  0.46741600  1
  C  40  1  0.38348900  0.01855200  0.46517900  1
  C  53  1  0.61985000  0.40868050  0.05317350  1
  C  54  1  0.64840700  0.41783150  0.04462950  1
  C  55  1  0.66289850  0.39453950  0.03546900  1
  C  56  1  0.64476750  0.35923350  0.03143800  1
  C  57  1  0.62396600  0.35379750  0.04940650  1
  C  58  1  0.61138200  0.37889500  0.06041600  1
  C  61  1  0.59956500  0.42826150  0.05208150  1
  C  62  1  0.61594300  0.46738400  0.06987800  1
  C  63  1  0.59440500  0.48352200  0.05925800  1
  C  64  1  0.55662750  0.46025350  0.03104700  1
  C  65  1  0.53876150  0.42209300  0.01927650  1
  C  66  1  0.56076550  0.40693550  0.02980200  1
  C  79  1  0.89673450  0.44236900  0.29664650  1
  C  80  1  0.86824350  0.40524400  0.27699250  1
  C  81  1  0.85445300  0.38160300  0.23941500  1
  C  82  1  0.87289400  0.39581100  0.22250700  1
  C  83  1  0.89375300  0.43460450  0.23795150  1
  C  84  1  0.90603300  0.45809050  0.27561250  1
  C  87  1  0.91568000  0.46142650  0.33652150  1
  C  88  1  0.89785200  0.46283450  0.35798850  1
  C  89  1  0.91740700  0.47235300  0.39555400  1
  C  90  1  0.95511450  0.48172850  0.41143600  1
  C  91  1  0.97468200  0.48860050  0.39276250  1
  C  92  1  0.95439950  0.47719300  0.35531950  1
  C  105  1  0.95015200  0.79650950  0.88785650  1
  C  106  1  0.91296550  0.77705300  0.85953950  1
  C  107  1  0.88928350  0.73940800  0.84553550  1
  C  108  1  0.90357700  0.72243700  0.86383600  1
  C  109  1  0.94237150  0.73772200  0.88427150  1
  C  110  1  0.96592300  0.77531400  0.89652900  1
  C  113  1  0.96942250  0.83633250  0.90745100  1
  C  114  1  0.97106300  0.85839300  0.89025600  1
  C  115  1  0.98208650  0.89623300  0.91096050  1
  C  116  1  0.99183550  0.91135250  0.94870100  1
  C  117  1  0.99834950  0.89205950  0.96754000  1
  C  118  1  0.98589250  0.85448200  0.94630250  1
  C  131  1  0.91766700  0.55466700  0.61122200  1
  C  132  1  0.92657050  0.54508400  0.63903250  1
  C  133  1  0.90320350  0.53523700  0.65331450  1
  C  134  1  0.86774650  0.53091850  0.63512600  1
  C  135  1  0.86215750  0.54936700  0.61486350  1
  C  136  1  0.88759250  0.56153700  0.60296850  1
  C  139  1  0.93856900  0.55684400  0.59222300  1
  C  140  1  0.97773700  0.57774800  0.60972300  1
  C  141  1  0.99557250  0.57419550  0.58834300  1
  C  142  1  0.97404500  0.55199200  0.54908100  1
  C  143  1  0.93489550  0.53259100  0.53133850  1
  C  144  1  0.91831300  0.53483100  0.55338000  1
  C  157  1  0.56666150  0.94679800  0.35550250  1
  C  158  1  0.60376350  0.95534750  0.37319700  1
  C  159  1  0.62741450  0.96451000  0.35906350  1
  C  160  1  0.61330600  0.96853450  0.32778450  1
  C  161  1  0.57453650  0.95056050  0.30438200  1
  C  162  1  0.55094550  0.93955100  0.31847150  1
  C  165  1  0.54746900  0.94788800  0.37617700  1
  C  166  1  0.54605400  0.93009100  0.39750200  1
  C  167  1  0.53513200  0.94070500  0.42425800  1
  C  168  1  0.52555400  0.96890800  0.42919600  1
  C  169  1  0.51946150  0.98068300  0.40280950  1
  C  170  1  0.53094600  0.97016400  0.37713000  1
  C  183  1  0.60008900  0.70335800  0.14571300  1
  C  184  1  0.59124650  0.72300600  0.12823750  1
  C  185  1  0.61502850  0.76058750  0.14217200  1
  C  186  1  0.65037900  0.77749600  0.17328600  1
  C  187  1  0.65579850  0.76205800  0.19664050  1
  C  188  1  0.63041950  0.72439650  0.18246900  1
  C  191  1  0.57916450  0.66348250  0.12490300  1
  C  192  1  0.53987000  0.64200800  0.10483900  1
  C  193  1  0.52186600  0.60443900  0.07680100  1
  C  194  1  0.54370050  0.58855950  0.07031600  1
  C  195  1  0.58193850  0.60723600  0.09587650  1
  C  196  1  0.59909300  0.64468700  0.12188800  1
  C  209  1  0.06229250  0.11214450  0.90865000  1
  C  210  1  0.05342750  0.14046500  0.91751450  1
  C  211  1  0.04375350  0.15446950  0.89387400  1
  C  212  1  0.03974750  0.13617100  0.85860350  1
  C  213  1  0.05810500  0.11573450  0.85345350  1
  C  214  1  0.06939300  0.10347250  0.87878450  1
  C  217  1  0.06194550  0.09253550  0.92886500  1
  C  218  1  0.08077100  0.10971000  0.96811700  1
  C  219  1  0.07106750  0.08899100  0.98523350  1
  C  220  1  0.04304700  0.05126300  0.96259700  1
  C  221  1  0.03072150  0.03243900  0.92446450  1
  C  222  1  0.03954600  0.05368450  0.90814350  1
  C  235  1  0.30644200  0.38877700  0.94343300  1
  C  236  1  0.28753150  0.36096750  0.90603900  1
  C  237  1  0.24988350  0.34668650  0.88191100  1
  C  238  1  0.23261700  0.36487600  0.89578500  1
  C  239  1  0.24729150  0.38513750  0.93449600  1
  C  240  1  0.28462350  0.39703200  0.95856050  1
  C  243  1  0.34633950  0.40777000  0.96460650  1
  C  244  1  0.36800450  0.39026650  0.96800800  1
  C  245  1  0.40721850  0.41164100  0.98582650  1
  C  246  1  0.42495850  0.45090400  0.00288350  1
  C  247  1  0.40355750  0.46865250  0.00123700  1
  C  248  1  0.36493400  0.44661650  0.98144250  1
  C  261  1  0.21115800  0.64447800  0.59129200  1
  C  262  1  0.23056500  0.62678350  0.58214550  1
  C  263  1  0.26834950  0.64091750  0.60544000  1
  C  264  1  0.28552100  0.67219550  0.64074350  1
  C  265  1  0.27015550  0.69559850  0.64617400  1
  C  266  1  0.23247400  0.68151050  0.62107450  1
  C  269  1  0.17129300  0.62380850  0.57171050  1
  C  270  1  0.14855100  0.60248350  0.53258750  1
  C  271  1  0.11087350  0.57572900  0.51644750  1
  C  272  1  0.09635700  0.57079150  0.53971150  1
  C  273  1  0.11665350  0.59717900  0.57787450  1
  C  274  1  0.15381700  0.62285500  0.59303400  1
  C  287  1  0.45438550  0.85429500  0.55765850  1
  C  288  1  0.46301600  0.87176500  0.59478100  1
  C  289  1  0.47286400  0.85782950  0.61842650  1
  C  290  1  0.47709900  0.82671400  0.60421700  1
  C  291  1  0.45916450  0.80336350  0.56542500  1
  C  292  1  0.44795900  0.81753850  0.54193750  1
  C  295  1  0.45427150  0.87510900  0.53859750  1
  C  296  1  0.43503400  0.89516750  0.53718750  1
  C  297  1  0.44506600  0.92321000  0.52766200  1
  C  298  1  0.47339400  0.92971150  0.51827950  1
  C  299  1  0.48608900  0.90416550  0.51140650  1
  C  300  1  0.47721950  0.87813650  0.52282400  1
  C  313  1  0.65366300  0.20349200  0.09134400  1
  C  314  1  0.63592350  0.22293950  0.08247600  1
  C  315  1  0.64988150  0.26058350  0.10611200  1
  C  316  1  0.68114600  0.27756100  0.14138500  1
  C  317  1  0.70466150  0.26228400  0.14654150  1
  C  318  1  0.69062950  0.22469450  0.12121200  1
  C  321  1  0.63311950  0.16366700  0.07113050  1
  C  322  1  0.61270500  0.14158650  0.03187750  1
  C  323  1  0.58592500  0.10373400  0.01475800  1
  C  324  1  0.58057400  0.08863050  0.03739650  1
  C  325  1  0.60635550  0.10796350  0.07553800  1
  C  326  1  0.63145400  0.14554350  0.09185650  1
  C  339  1  0.86300400  0.44534150  0.05656350  1
  C  340  1  0.88149000  0.45492800  0.09395800  1
  C  341  1  0.86797150  0.46477750  0.11808800  1
  C  342  1  0.83682850  0.46909050  0.10421100  1
  C  343  1  0.81279250  0.45064050  0.06550000  1
  C  344  1  0.82605950  0.43846850  0.04143800  1
  C  347  1  0.88172950  0.44316200  0.03538950  1
  C  348  1  0.89999650  0.42225850  0.03199100  1
  C  349  1  0.92139200  0.42581500  0.01417300  1
  C  350  1  0.92207300  0.44802100  0.99711500  1
  C  351  1  0.90231600  0.46741350  0.99875850  1
  C  352  1  0.88348750  0.46517200  0.01855450  1
  C  365  1  0.11986050  0.05318750  0.40870300  1
  C  366  1  0.14841500  0.04464050  0.41785050  1
  C  367  1  0.16290400  0.03547850  0.39455550  1
  C  368  1  0.14477300  0.03145450  0.35925250  1
  C  369  1  0.12397550  0.04942800  0.35382150  1
  C  370  1  0.11139500  0.06043800  0.37892100  1
  C  373  1  0.09957850  0.05209850  0.42828600  1
  C  374  1  0.11596050  0.06989800  0.46740950  1
  C  375  1  0.09442400  0.05928400  0.48355100  1
  C  376  1  0.05664150  0.03108100  0.46028550  1
  C  377  1  0.03877450  0.01930600  0.42212350  1
  C  378  1  0.06077800  0.02982300  0.40696300  1
  C  391  1  0.39672600  0.29663500  0.44235000  1
  C  392  1  0.36823500  0.27698500  0.40522700  1
  C  393  1  0.35443750  0.23940550  0.38158000  1
  C  394  1  0.37288000  0.22249700  0.39578600  1
  C  395  1  0.39373500  0.23793450  0.43457850  1
  C  396  1  0.40601750  0.27559400  0.45806750  1
  C  399  1  0.41567750  0.33651100  0.46141550  1
  C  400  1  0.39785650  0.35798550  0.46282500  1
  C  401  1  0.41742300  0.39555250  0.47235550  1
  C  402  1  0.45513600  0.41143300  0.48175100  1
  C  403  1  0.47469800  0.39275550  0.48863350  1
  C  404  1  0.45440050  0.35530550  0.47719500  1
  C  417  1  0.45011450  0.88786450  0.79650700  1
  C  418  1  0.41293300  0.85953000  0.77703700  1
  C  419  1  0.38926500  0.84552400  0.73938800  1
  C  420  1  0.40356550  0.86382800  0.72242350  1
  C  421  1  0.44236150  0.88427550  0.73772600  1
  C  422  1  0.46590100  0.89654900  0.77532600  1
  C  425  1  0.46934700  0.90747550  0.83632950  1
  C  426  1  0.47098050  0.89030100  0.85840850  1
  C  427  1  0.48190550  0.91099950  0.89621800  1
  C  428  1  0.49153550  0.94870650  0.91127900  1
  C  429  1  0.49810400  0.96754900  0.89200400  1
  C  430  1  0.48578350  0.94632400  0.85446250  1
  C  443  1  0.41766300  0.61121900  0.55465100  1
  C  444  1  0.42656900  0.63903200  0.54507200  1
  C  445  1  0.40320400  0.65331750  0.53522850  1
  C  446  1  0.36774600  0.63512650  0.53090850  1
  C  447  1  0.36215400  0.61485900  0.54935100  1
  C  448  1  0.38758900  0.60296300  0.56151900  1
  C  451  1  0.43856950  0.59222500  0.55683150  1
  C  452  1  0.47773700  0.60972800  0.57773700  1
  C  453  1  0.49557700  0.58835450  0.57418150  1
  C  454  1  0.47405400  0.54909100  0.55197600  1
  C  455  1  0.43490300  0.53134200  0.53257900  1
  C  456  1  0.41831500  0.55337800  0.53481800  1
  C  469  1  0.06667900  0.35551350  0.94682750  1
  C  470  1  0.10377900  0.37320650  0.95537050  1
  C  471  1  0.12743150  0.35907400  0.96453050  1
  C  472  1  0.11332700  0.32779600  0.96855600  1
  C  473  1  0.07455850  0.30439500  0.95058950  1
  C  474  1  0.05096650  0.31848300  0.93958150  1
  C  477  1  0.04748850  0.37618700  0.94792150  1
  C  478  1  0.04606900  0.39751300  0.93012600  1
  C  479  1  0.03515200  0.42427200  0.94074600  1
  C  480  1  0.02558450  0.42921350  0.96895600  1
  C  481  1  0.01948850  0.40282400  0.98072550  1
  C  482  1  0.03096750  0.37714000  0.97020050  1
  C  495  1  0.10008700  0.14571600  0.70335500  1
  C  496  1  0.09124850  0.12824450  0.72300900  1
  C  497  1  0.11503500  0.14218200  0.76058900  1
  C  498  1  0.15038350  0.17329600  0.77749350  1
  C  499  1  0.15579950  0.19664700  0.76205250  1
  C  500  1  0.13041850  0.18247150  0.72439000  1
  C  503  1  0.07915650  0.12489900  0.66348050  1
  C  504  1  0.03986100  0.10483950  0.64201250  1
  C  505  1  0.02185100  0.07679450  0.60444650  1
  C  506  1  0.04367700  0.07029100  0.58856400  1
  C  507  1  0.08191900  0.09583600  0.60723700  1
  C  508  1  0.09907800  0.12186750  0.64468050  1
  C  521  1  0.56228900  0.90865300  0.11214600  1
  C  522  1  0.55341650  0.91750800  0.14046150  1
  C  523  1  0.54373900  0.89386400  0.15446100  1
  C  524  1  0.53973400  0.85859450  0.13615850  1
  C  525  1  0.55809250  0.85344750  0.11572200  1
  C  526  1  0.56938700  0.87878550  0.10346750  1
  C  529  1  0.56197350  0.92889450  0.09256200  1
  C  530  1  0.58080600  0.96815000  0.10977000  1
  C  531  1  0.57112100  0.98529800  0.08908100  1
  C  532  1  0.54313950  0.96268550  0.05133600  1
  C  533  1  0.53083000  0.92455850  0.03248250  1
  C  534  1  0.53960050  0.90820450  0.05370800  1
  C  547  1  0.80644300  0.94344450  0.38877850  1
  C  548  1  0.78753450  0.90604950  0.36096500  1
  C  549  1  0.74988650  0.88191900  0.34668150  1
  C  550  1  0.73261700  0.89578900  0.36487000  1
  C  551  1  0.74729000  0.93450000  0.38513400  1
  C  552  1  0.78462000  0.95856500  0.39703000  1
  C  555  1  0.84634250  0.96462050  0.40777600  1
  C  556  1  0.86801150  0.96802650  0.39027700  1
  C  557  1  0.90722500  0.98585050  0.41165650  1
  C  558  1  0.92496100  0.00290950  0.45091750  1
  C  559  1  0.90355450  0.00125100  0.46866250  1
  C  560  1  0.86493150  0.98145050  0.44662100  1
  C  573  1  0.71116500  0.59130900  0.64449200  1
  C  574  1  0.73057300  0.58216250  0.62679750  1
  C  575  1  0.76835700  0.60545500  0.64093200  1
  C  576  1  0.78552950  0.64076000  0.67221050  1
  C  577  1  0.77016150  0.64619050  0.69561300  1
  C  578  1  0.73247900  0.62109200  0.68152300  1
  C  581  1  0.67129950  0.57172850  0.62381700  1
  C  582  1  0.64855450  0.53260550  0.60248700  1
  C  583  1  0.61087950  0.51646750  0.57572800  1
  C  584  1  0.59637000  0.53973700  0.57078700  1
  C  585  1  0.61666350  0.57789700  0.59717850  1
  C  586  1  0.65382550  0.59305550  0.62286400  1
  C  599  1  0.95437000  0.55763950  0.85428150  1
  C  600  1  0.96300350  0.59476350  0.87175600  1
  C  601  1  0.97285250  0.61840950  0.85782100  1
  C  602  1  0.97708800  0.60420150  0.82670650  1
  C  603  1  0.95915250  0.56541000  0.80335150  1
  C  604  1  0.94794450  0.54192000  0.81752350  1
  C  607  1  0.95425600  0.53857450  0.87509150  1
  C  608  1  0.93502450  0.53716550  0.89515500  1
  C  609  1  0.94506100  0.52763600  0.92319400  1
  C  610  1  0.97338100  0.51824350  0.92968150  1
  C  611  1  0.98606000  0.51135950  0.90412250  1
  C  612  1  0.97719950  0.52279650  0.87810900  1
  C  1249  1  0.09203550  0.10195100  0.02356350  1
  C  1250  1  0.11340450  0.08559950  0.03211300  1
  C  1251  1  0.12198400  0.08180550  0.06330450  1
  C  1252  1  0.11005650  0.09440550  0.08803200  1
  C  1253  1  0.09127650  0.11408250  0.08193200  1
  C  1256  1  0.08221000  0.11778000  0.04966700  1
  C  1257  1  0.07827900  0.12801350  0.10750850  1
  C  1261  1  0.05966550  0.13541450  0.04163600  1
  C  1265  1  0.42363900  0.94035550  0.52059650  1
  C  1266  1  0.39523100  0.92240550  0.48392850  1
  C  1267  1  0.38363600  0.94198250  0.46851450  1
  C  1268  1  0.40111200  0.98071600  0.48850200  1
  C  1269  1  0.42684600  0.99900150  0.52686350  1
  C  1272  1  0.43706300  0.97846250  0.54306150  1
  C  1273  1  0.44598350  0.03987200  0.54973650  1
  C  1277  1  0.46460000  0.99716550  0.58288850  1
  C  1281  1  0.42920650  0.39463850  0.98448900  1
  C  1282  1  0.45121050  0.39750900  0.01772350  1
  C  1283  1  0.48605000  0.40122150  0.02669250  1
  C  1284  1  0.49984050  0.40084450  0.00237100  1
  C  1285  1  0.47528700  0.39118350  0.96617550  1
  C  1288  1  0.44043800  0.38924200  0.95754100  1
  C  1289  1  0.48765850  0.38601800  0.93847250  1
  C  1293  1  0.41728350  0.38435500  0.92124850  1
  C  1297  1  0.08526950  0.55813000  0.47812950  1
  C  1298  1  0.06065900  0.57122850  0.46943250  1
  C  1299  1  0.02583900  0.54886500  0.43798700  1
  C  1300  1  0.01358500  0.51219150  0.41316750  1
  C  1301  1  0.03907350  0.49919050  0.41958500  1
  C  1304  1  0.07486800  0.52212350  0.45207950  1
  C  1305  1  0.02722150  0.46052100  0.39405450  1
  C  1309  1  0.10016200  0.50725400  0.46036200  1
  C  1313  1  0.06843250  0.97643950  0.07840000  1
  C  1314  1  0.08132500  0.96794600  0.05355700  1
  C  1315  1  0.05878400  0.93675050  0.01857250  1
  C  1316  1  0.02212500  0.91196850  0.00638150  1
  C  1317  1  0.00937250  0.91801650  0.03210400  1
  C  1320  1  0.03250500  0.95027900  0.06807000  1
  C  1321  1  0.97078950  0.89240250  0.02039600  1
  C  1325  1  0.01793150  0.95824550  0.09369000  1
  C  1329  1  0.90304400  0.47941500  0.41976500  1
  C  1330  1  0.91130400  0.51608350  0.43848450  1
  C  1331  1  0.91512150  0.53149550  0.47347400  1
  C  1332  1  0.91261000  0.51150700  0.49221900  1
  C  1333  1  0.89998200  0.47314500  0.47214100  1
  C  1336  1  0.89400300  0.45695000  0.43540700  1
  C  1337  1  0.89624600  0.45027050  0.49013750  1
  C  1341  1  0.88171100  0.41712250  0.41427950  1
  C  1345  1  0.44470650  0.01548750  0.41014900  1
  C  1346  1  0.43347550  0.98226000  0.37977650  1
  C  1347  1  0.45934300  0.97328700  0.37451600  1
  C  1348  1  0.49745650  0.99759950  0.39847200  1
  C  1349  1  0.50910300  0.03379200  0.42501900  1
  C  1352  1  0.48289000  0.04242750  0.43171250  1
  C  1353  1  0.54917700  0.06148550  0.44756650  1
  C  1357  1  0.49602900  0.07871350  0.46312750  1
  C  1361  1  0.60711050  0.52183850  0.07997500  1
  C  1362  1  0.59118050  0.53053100  0.10175350  1
  C  1363  1  0.58783650  0.56199550  0.11086000  1
  C  1364  1  0.60046850  0.58685950  0.09906700  1
  C  1365  1  0.61950450  0.58040600  0.07962050  1
  C  1368  1  0.62278300  0.54789950  0.07003950  1
  C  1369  1  0.63319550  0.60594400  0.06649450  1
  C  1373  1  0.63979550  0.53961650  0.04688800  1
  C  1377  1  0.99008550  0.92158350  0.89797900  1
  C  1378  1  0.02780500  0.94645150  0.91428050  1
  C  1379  1  0.04019750  0.98143900  0.91807750  1
  C  1380  1  0.01568550  0.99360050  0.90552800  1
  C  1381  1  0.97722400  0.96785350  0.88589150  1
  C  1384  1  0.96444400  0.93188800  0.88218900  1
  C  1385  1  0.95031150  0.97953400  0.87201550  1
  C  1389  1  0.92426400  0.90625050  0.86459250  1
  C  1393  1  0.48329400  0.58022350  0.05964850  1
  C  1394  1  0.47283300  0.56149750  0.07759250  1
  C  1395  1  0.44165900  0.52650850  0.05801150  1
  C  1396  1  0.42039900  0.50777300  0.01928000  1
  C  1397  1  0.42785250  0.52785400  0.00100050  1
  C  1400  1  0.45861450  0.56458750  0.02154400  1
  C  1401  1  0.40611700  0.50986550  0.96013050  1
  C  1405  1  0.46745300  0.58571600  0.00284600  1
  C  1409  1  0.03456050  0.58984750  0.60534100  1
  C  1410  1  0.05370500  0.62022050  0.60248850  1
  C  1411  1  0.08483000  0.62547550  0.59877250  1
  C  1412  1  0.09898600  0.60151850  0.59912850  1
  C  1413  1  0.08408150  0.57497100  0.60877250  1
  C  1416  1  0.05117650  0.56828100  0.61071650  1
  C  1417  1  0.10160600  0.55241950  0.61391750  1
  C  1421  1  0.03289650  0.53686550  0.61558400  1
  C  1425  1  0.52713200  0.91999150  0.44186250  1
  C  1426  1  0.48942250  0.89819800  0.42877150  1
  C  1427  1  0.47697150  0.88912000  0.45113850  1
  C  1428  1  0.50139450  0.90097400  0.48781150  1
  C  1429  1  0.53988400  0.92039100  0.50080700  1
  C  1432  1  0.55274000  0.92994750  0.47786850  1
  C  1433  1  0.56670550  0.93353200  0.53947450  1
  C  1437  1  0.59290250  0.95309750  0.49273100  1
  C  1441  1  0.59212200  0.02362650  0.10206550  1
  C  1442  1  0.61358100  0.03218250  0.08579850  1
  C  1443  1  0.62221850  0.06337600  0.08200650  1
  C  1444  1  0.61024800  0.08809350  0.09451150  1
  C  1445  1  0.59137950  0.08199250  0.11411500  1
  C  1448  1  0.58227100  0.04973400  0.11782500  1
  C  1449  1  0.57832300  0.10754700  0.12794000  1
  C  1453  1  0.55966000  0.04170700  0.13539900  1
  C  1457  1  0.92363950  0.52057150  0.94034600  1
  C  1458  1  0.89523650  0.48390250  0.92240400  1
  C  1459  1  0.88364300  0.46849550  0.94198550  1
  C  1460  1  0.90111500  0.48849150  0.98071750  1
  C  1461  1  0.92684650  0.52685200  0.99899550  1
  C  1464  1  0.93706400  0.54304150  0.97845250  1
  C  1465  1  0.94598050  0.54973250  0.03986500  1
  C  1469  1  0.96460050  0.58286800  0.99714950  1
  C  1473  1  0.92921650  0.98450650  0.39465800  1
  C  1474  1  0.95121350  0.01773350  0.39751200  1
  C  1475  1  0.98605450  0.02670450  0.40122600  1
  C  1476  1  0.99985350  0.00239150  0.40086900  1
  C  1477  1  0.97530750  0.96620100  0.39122550  1
  C  1480  1  0.94045700  0.95756600  0.38928200  1
  C  1481  1  0.98768550  0.93850400  0.38608050  1
  C  1485  1  0.91730950  0.92128100  0.38441350  1
  C  1489  1  0.58526850  0.47815250  0.55812900  1
  C  1490  1  0.56064450  0.46945800  0.57121350  1
  C  1491  1  0.52583700  0.43799450  0.54885750  1
  C  1492  1  0.51360450  0.41313050  0.51220000  1
  C  1493  1  0.53909250  0.41958450  0.49920500  1
  C  1496  1  0.57487800  0.45209200  0.52213200  1
  C  1497  1  0.52724600  0.39404750  0.46054150  1
  C  1501  1  0.60017450  0.46037550  0.50726400  1
  C  1505  1  0.56851950  0.07838750  0.97641600  1
  C  1506  1  0.58129100  0.05345300  0.96780300  1
  C  1507  1  0.55862550  0.01846700  0.93661650  1
  C  1508  1  0.52196300  0.00637550  0.91194850  1
  C  1509  1  0.50932750  0.03218600  0.91810550  1
  C  1512  1  0.53257800  0.06814350  0.95037150  1
  C  1513  1  0.47075100  0.02057700  0.89257900  1
  C  1517  1  0.51810300  0.09383600  0.95846900  1
  C  1521  1  0.40306650  0.41977000  0.47941950  1
  C  1522  1  0.41133400  0.43849800  0.51609000  1
  C  1523  1  0.41514700  0.47348600  0.53149700  1
  C  1524  1  0.41262400  0.49222150  0.51150050  1
  C  1525  1  0.39999500  0.47213900  0.47313900  1
  C  1528  1  0.39402300  0.43540550  0.45695050  1
  C  1529  1  0.39624850  0.49012750  0.45025900  1
  C  1533  1  0.38173150  0.41427650  0.41712400  1
  C  1537  1  0.94471850  0.41015200  0.01551250  1
  C  1538  1  0.93348900  0.37978850  0.98227750  1
  C  1539  1  0.95936000  0.37453150  0.97330850  1
  C  1540  1  0.99747300  0.39847850  0.99763150  1
  C  1541  1  0.00911300  0.42501350  0.03382650  1
  C  1544  1  0.98289850  0.43170550  0.04246100  1
  C  1545  1  0.04918600  0.44755100  0.06152900  1
  C  1549  1  0.99603400  0.46310850  0.07875150  1
  C  1553  1  0.10713800  0.08000150  0.52186950  1
  C  1554  1  0.09122300  0.10179500  0.53056800  1
  C  1555  1  0.08784900  0.11087800  0.56201400  1
  C  1556  1  0.10041550  0.09902250  0.58683200  1
  C  1557  1  0.11948750  0.07960500  0.58041450  1
  C  1560  1  0.12278650  0.07004450  0.54791900  1
  C  1561  1  0.13316700  0.06646600  0.60594400  1
  C  1565  1  0.13979950  0.04689300  0.53963450  1
  C  1569  1  0.49001450  0.89809900  0.92162250  1
  C  1570  1  0.52775750  0.91448600  0.94646850  1
  C  1571  1  0.54021650  0.91826950  0.98145000  1
  C  1572  1  0.51575950  0.90564150  0.99363800  1
  C  1573  1  0.47728500  0.88594150  0.96792150  1
  C  1576  1  0.46443200  0.88223650  0.93195250  1
  C  1577  1  0.45041950  0.87200200  0.97962850  1
  C  1581  1  0.42423250  0.86454550  0.90633100  1
  C  1585  1  0.98327700  0.05964650  0.58023450  1
  C  1586  1  0.97281850  0.07759650  0.56151600  1
  C  1587  1  0.94164500  0.05801750  0.52652550  1
  C  1588  1  0.92038900  0.01928550  0.50778150  1
  C  1589  1  0.92783850  0.00100150  0.52785800  1
  C  1592  1  0.95859400  0.02154000  0.56459300  1
  C  1593  1  0.90610550  0.96013000  0.50986150  1
  C  1597  1  0.96742850  0.00283800  0.58571850  1
  C  1601  1  0.53456650  0.60535500  0.58984650  1
  C  1602  1  0.55369900  0.60248450  0.62020950  1
  C  1603  1  0.58482850  0.59877300  0.62546850  1
  C  1604  1  0.59899400  0.59914900  0.60152300  1
  C  1605  1  0.58410050  0.60880800  0.57498550  1
  C  1608  1  0.55119600  0.61075050  0.56829450  1
  C  1609  1  0.60163800  0.61397200  0.55245000  1
  C  1613  1  0.53292950  0.61564000  0.53689050  1
  C  1617  1  0.02714000  0.44187050  0.92002850  1
  C  1618  1  0.98943050  0.42878250  0.89824800  1
  C  1619  1  0.97697850  0.45113750  0.88913900  1
  C  1620  1  0.00140050  0.48779450  0.90093200  1
  C  1621  1  0.03988550  0.50079100  0.92038150  1
  C  1624  1  0.05274600  0.47786600  0.92996300  1
  C  1625  1  0.06670000  0.53945600  0.93350700  1
  C  1629  1  0.09291000  0.49273700  0.95311600  1
  C  2017  1  0.12515500  0.06394200  0.32938000  1
  C  2018  1  0.16060200  0.08931950  0.33939150  1
  C  2019  1  0.16700650  0.10100450  0.31574000  1
  C  2020  1  0.13833900  0.09258450  0.28271450  1
  C  2021  1  0.10166700  0.06956400  0.27363200  1
  C  2024  1  0.09523350  0.05341300  0.29561750  1
  C  2025  1  0.06971350  0.06357100  0.24225550  1
  C  2029  1  0.05743950  0.02487850  0.28280900  1
  C  2033  1  0.39270350  0.21221050  0.44785200  1
  C  2034  1  0.35730250  0.18660650  0.43773700  1
  C  2035  1  0.35095450  0.15636800  0.44273550  1
  C  2036  1  0.37958250  0.15173800  0.46263250  1
  C  2037  1  0.41621200  0.17936400  0.47617100  1
  C  2040  1  0.42259050  0.20809400  0.46683650  1
  C  2041  1  0.44821450  0.17958400  0.50158750  1
  C  2045  1  0.46032750  0.23314700  0.47603650  1
  C  2049  1  0.77397100  0.43671050  0.05294750  1
  C  2050  1  0.75878700  0.41198250  0.06373750  1
  C  2051  1  0.72349300  0.40047500  0.05857400  1
  C  2052  1  0.69871400  0.40840700  0.03780800  1
  C  2053  1  0.71249800  0.43091800  0.02364800  1
  C  2056  1  0.75058600  0.44687400  0.03314600  1
  C  2057  1  0.68698650  0.43653200  0.99736550  1
  C  2061  1  0.76611100  0.47478150  0.02313250  1
  C  2065  1  0.74360550  0.28800650  0.17087200  1
  C  2066  1  0.75878750  0.31350800  0.16083850  1
  C  2067  1  0.79413000  0.34359350  0.18439450  1
  C  2068  1  0.81884450  0.34792700  0.21734050  1
  C  2069  1  0.80509050  0.32031000  0.22645250  1
  C  2072  1  0.76699000  0.29181950  0.20454550  1
  C  2073  1  0.83062600  0.31980650  0.25779150  1
  C  2077  1  0.75146200  0.26674650  0.21736250  1
  C  2081  1  0.79578450  0.67063300  0.73457050  1
  C  2082  1  0.82121600  0.66061650  0.74993650  1
  C  2083  1  0.85127550  0.68426900  0.78526850  1
  C  2084  1  0.85565000  0.71730650  0.80986950  1
  C  2085  1  0.82805450  0.72638600  0.79593850  1
  C  2088  1  0.79963000  0.70439850  0.75780350  1
  C  2089  1  0.82748450  0.75776750  0.82132400  1
  C  2093  1  0.77464550  0.71720850  0.74208000  1
  C  2097  1  0.94484750  0.55213800  0.76435450  1
  C  2098  1  0.91955950  0.56225200  0.74886650  1
  C  2099  1  0.90821350  0.55725500  0.71363050  1
  C  2100  1  0.91694600  0.53736200  0.68910400  1
  C  2101  1  0.94003700  0.52382400  0.70319000  1
  C  2104  1  0.95575050  0.53315550  0.74125400  1
  C  2105  1  0.94662400  0.49840800  0.67799200  1
  C  2109  1  0.98428750  0.52395550  0.75710600  1
  C  2113  1  0.72102000  0.94705200  0.38375800  1
  C  2114  1  0.69504800  0.93626400  0.34824200  1
  C  2115  1  0.66491250  0.94141950  0.34189400  1
  C  2116  1  0.66089400  0.96217950  0.37059250  1
  C  2117  1  0.68883950  0.97634000  0.40726350  1
  C  2120  1  0.71743200  0.96684650  0.41372150  1
  C  2121  1  0.68960900  0.00261900  0.43916100  1
  C  2125  1  0.74297000  0.97685850  0.45164250  1
  C  2129  1  0.57271550  0.82912500  0.11711450  1
  C  2130  1  0.59793700  0.83916200  0.15264900  1
  C  2131  1  0.60972550  0.81560650  0.15918000  1
  C  2132  1  0.60149050  0.78265800  0.13056650  1
  C  2133  1  0.57862200  0.77354500  0.09384000  1
  C  2136  1  0.56242600  0.79544950  0.08725450  1
  C  2137  1  0.57281550  0.74220200  0.06199650  1
  C  2141  1  0.53407850  0.78263050  0.04936600  1
  C  2145  1  0.06122350  0.26543700  0.93607450  1
  C  2146  1  0.07128800  0.25007150  0.91069050  1
  C  2147  1  0.06601000  0.21473700  0.89900600  1
  C  2148  1  0.04577200  0.19013100  0.90743200  1
  C  2149  1  0.03212500  0.20406800  0.93045800  1
  C  2152  1  0.04183950  0.24220500  0.94660950  1
  C  2153  1  0.00617350  0.17868500  0.93645750  1
  C  2157  1  0.03258600  0.25793050  0.97514850  1
  C  2161  1  0.18048750  0.23564600  0.78777350  1
  C  2162  1  0.17068500  0.25113400  0.81337200  1
  C  2163  1  0.19457500  0.28637050  0.84361250  1
  C  2164  1  0.22783500  0.31089750  0.84824750  1
  C  2165  1  0.23684150  0.29680950  0.82062400  1
  C  2168  1  0.21449150  0.25874600  0.79189350  1
  C  2169  1  0.26862650  0.32200900  0.82040650  1
  C  2173  1  0.22717900  0.24289450  0.76684350  1
  C  2177  1  0.33726050  0.61623250  0.56327900  1
  C  2178  1  0.34680300  0.65174750  0.58800950  1
  C  2179  1  0.32301550  0.65809050  0.59951500  1
  C  2180  1  0.29030050  0.62939200  0.59157750  1
  C  2181  1  0.28157400  0.59272100  0.56906200  1
  C  2184  1  0.30370800  0.58626600  0.55310900  1
  C  2185  1  0.25044650  0.56082250  0.56344300  1
  C  2189  1  0.29132650  0.54834650  0.52519700  1
  C  2193  1  0.45560650  0.88288650  0.71202100  1
  C  2194  1  0.44530300  0.84735300  0.68653000  1
  C  2195  1  0.45056250  0.84082200  0.65644550  1
  C  2196  1  0.47093300  0.86943300  0.65210400  1
  C  2197  1  0.48478500  0.90616100  0.67971300  1
  C  2200  1  0.47516850  0.91274550  0.70820000  1
  C  2201  1  0.51081950  0.93800650  0.68021500  1
  C  2205  1  0.48469650  0.95063200  0.73325750  1
  C  2209  1  0.62514700  0.32935450  0.06391950  1
  C  2210  1  0.66059450  0.33937300  0.08930350  1
  C  2211  1  0.66700550  0.31572000  0.10098150  1
  C  2212  1  0.63834350  0.28267900  0.09254150  1
  C  2213  1  0.60166800  0.27359600  0.06952900  1
  C  2216  1  0.59522850  0.29558300  0.05338150  1
  C  2217  1  0.56971950  0.24221050  0.06352900  1
  C  2221  1  0.55743750  0.28277300  0.02484850  1
  C  2225  1  0.89271700  0.44788200  0.21222900  1
  C  2226  1  0.85731600  0.43777100  0.18663100  1
  C  2227  1  0.85096300  0.44276450  0.15639050  1
  C  2228  1  0.87958800  0.46265400  0.15175200  1
  C  2229  1  0.91621850  0.47619200  0.17937450  1
  C  2232  1  0.92260100  0.46686000  0.20810600  1
  C  2233  1  0.94821950  0.50160550  0.17958900  1
  C  2237  1  0.96033900  0.47605800  0.23315500  1
  C  2241  1  0.27397200  0.05294500  0.43671200  1
  C  2242  1  0.25878650  0.06373100  0.41198150  1
  C  2243  1  0.22349300  0.05857150  0.40047750  1
  C  2244  1  0.19871700  0.03781250  0.40841650  1
  C  2245  1  0.21250200  0.02365450  0.43092950  1
  C  2248  1  0.25059000  0.03315150  0.44688250  1
  C  2249  1  0.18699500  0.99737650  0.43654850  1
  C  2253  1  0.26611800  0.02314250  0.47479350  1
  C  2257  1  0.24358500  0.17087100  0.28798500  1
  C  2258  1  0.25877000  0.16082900  0.31347600  1
  C  2259  1  0.29411500  0.18438200  0.34356200  1
  C  2260  1  0.31882800  0.21733250  0.34790250  1
  C  2261  1  0.30507250  0.22645250  0.32029300  1
  C  2264  1  0.26696900  0.20454950  0.29180450  1
  C  2265  1  0.33060550  0.25779550  0.31979200  1
  C  2269  1  0.25144100  0.21737600  0.26674300  1
  C  2273  1  0.29577650  0.73455550  0.67061600  1
  C  2274  1  0.32121350  0.74992200  0.66060650  1
  C  2275  1  0.35126750  0.78525750  0.68425800  1
  C  2276  1  0.35562400  0.80986250  0.71728150  1
  C  2277  1  0.32803400  0.79592700  0.72636400  1
  C  2280  1  0.29961550  0.75778850  0.70437900  1
  C  2281  1  0.32745450  0.82131000  0.75773650  1
  C  2285  1  0.27463000  0.74206250  0.71718450  1
  C  2289  1  0.44485550  0.76436400  0.55214750  1
  C  2290  1  0.41956850  0.74887450  0.56226100  1
  C  2291  1  0.40821950  0.71363750  0.55725800  1
  C  2292  1  0.41694900  0.68910950  0.53735950  1
  C  2293  1  0.44004250  0.70319950  0.52382500  1
  C  2296  1  0.45575800  0.74126400  0.53316200  1
  C  2297  1  0.44662750  0.67800150  0.49840500  1
  C  2301  1  0.48429550  0.75711800  0.52396250  1
  C  2305  1  0.22102550  0.38376250  0.94705100  1
  C  2306  1  0.19505100  0.34824700  0.93626200  1
  C  2307  1  0.16491950  0.34190200  0.94142450  1
  C  2308  1  0.16090600  0.37060000  0.96219100  1
  C  2309  1  0.18885200  0.40727150  0.97635050  1
  C  2312  1  0.21744100  0.41372700  0.96685100  1
  C  2313  1  0.18962550  0.43916900  0.00263250  1
  C  2317  1  0.24298050  0.45164900  0.97686450  1
  C  2321  1  0.07272550  0.11712550  0.82912800  1
  C  2322  1  0.09794650  0.15266100  0.83916550  1
  C  2323  1  0.10973450  0.15918950  0.81561000  1
  C  2324  1  0.10150050  0.13057900  0.78266150  1
  C  2325  1  0.07863150  0.09384950  0.77354900  1
  C  2328  1  0.06243500  0.08726500  0.79545300  1
  C  2329  1  0.07282800  0.06200650  0.74220950  1
  C  2333  1  0.03408650  0.04937700  0.78263250  1
  C  2337  1  0.56120150  0.93604650  0.26542500  1
  C  2338  1  0.57126950  0.91066750  0.25006000  1
  C  2339  1  0.56599700  0.89898900  0.21472700  1
  C  2340  1  0.54576900  0.90742600  0.19012600  1
  C  2341  1  0.53210300  0.93043400  0.20405800  1
  C  2344  1  0.54181300  0.94657950  0.24219350  1
  C  2345  1  0.50614800  0.93642900  0.17867400  1
  C  2349  1  0.53254950  0.97510850  0.25791700  1
  C  2353  1  0.68049200  0.78778400  0.23564000  1
  C  2354  1  0.67069050  0.81338500  0.25112750  1
  C  2355  1  0.69458100  0.84362550  0.28636550  1
  C  2356  1  0.72783950  0.84825700  0.31089050  1
  C  2357  1  0.73684450  0.82063400  0.29680350  1
  C  2360  1  0.71449550  0.79190300  0.25874050  1
  C  2361  1  0.76863000  0.82041500  0.32200200  1
  C  2365  1  0.72717900  0.76684900  0.24288700  1
  C  2369  1  0.83726650  0.56329700  0.61624050  1
  C  2370  1  0.84681050  0.58802500  0.65175650  1
  C  2371  1  0.82302200  0.59952950  0.65810350  1
  C  2372  1  0.79030800  0.59159400  0.62940400  1
  C  2373  1  0.78158150  0.56908300  0.59273250  1
  C  2376  1  0.80371600  0.55312900  0.58627600  1
  C  2377  1  0.75045500  0.56346700  0.56083600  1
  C  2381  1  0.79133300  0.52522250  0.54835550  1
  C  2385  1  0.95559900  0.71200450  0.88287950  1
  C  2386  1  0.94528500  0.68650750  0.84734550  1
  C  2387  1  0.95054400  0.65642200  0.84081500  1
  C  2388  1  0.97092000  0.65208600  0.86942700  1
  C  2389  1  0.98477900  0.67969900  0.90615500  1
  C  2392  1  0.97516850  0.70819000  0.91274050  1
  C  2393  1  0.01081550  0.68020050  0.93799700  1
  C  2397  1  0.98470950  0.73325750  0.95062800  1
  H  7  1  0.11203950  0.05809850  0.20922600  1
  H  16  1  0.14806450  0.11974900  0.16011150  1
  H  19  1  0.20389750  0.10563500  0.18462950  1
  H  20  1  0.23787900  0.14319050  0.22299850  1
  H  21  1  0.10610100  0.98439750  0.14210750  1
  H  22  1  0.13919300  0.02196750  0.18110450  1
  H  23  1  0.02882200  0.99949700  0.04653500  1
  H  24  1  0.04289700  0.03932500  0.04943000  1
  H  25  1  0.20981500  0.19392800  0.32050100  1
  H  26  1  0.17282700  0.16686650  0.31881950  1
  H  33  1  0.40532350  0.10373350  0.45429100  1
  H  42  1  0.37034600  0.02051700  0.48008900  1
  H  45  1  0.31122300  0.98766450  0.40846650  1
  H  46  1  0.27800950  0.99302000  0.41290550  1
  H  47  1  0.40666500  0.04110250  0.38223150  1
  H  48  1  0.37854950  0.05288700  0.39193950  1
  H  49  1  0.45444400  0.97603850  0.43783950  1
  H  50  1  0.44458300  0.96952400  0.46746800  1
  H  51  1  0.30900850  0.11922200  0.49374250  1
  H  52  1  0.34621100  0.15410950  0.50343750  1
  H  59  1  0.65884200  0.44213900  0.04495700  1
  H  68  1  0.54810550  0.37903750  0.01878400  1
  H  71  1  0.58659200  0.39422300  0.08902700  1
  H  72  1  0.58768200  0.35684200  0.08569000  1
  H  73  1  0.66348650  0.51557750  0.11040000  1
  H  74  1  0.66569500  0.47862500  0.10714300  1
  H  75  1  0.55130550  0.49899750  0.01913900  1
  H  76  1  0.51368750  0.46009400  0.99483450  1
  H  77  1  0.63610300  0.30695500  0.00811000  1
  H  78  1  0.66158300  0.33422750  0.99846450  1
  H  85  1  0.85729700  0.39509150  0.29055150  1
  H  94  1  0.96829500  0.47952450  0.34127150  1
  H  97  1  0.93126400  0.51150100  0.31589400  1
  H  98  1  0.93078550  0.50703450  0.27761600  1
  H  99  1  0.84912000  0.45508150  0.35600950  1
  H  100  1  0.84921550  0.45077300  0.31794150  1
  H  101  1  0.96081700  0.47558800  0.45615500  1
  H  102  1  0.99634900  0.48394750  0.45116650  1
  H  103  1  0.88237150  0.38133950  0.17949200  1
  H  104  1  0.85659450  0.34609200  0.18094750  1
  H  111  1  0.90284700  0.79079300  0.84888000  1
  H  120  1  0.98799600  0.83989000  0.95962200  1
  H  123  1  0.01929400  0.81534350  0.92097150  1
  H  124  1  0.01489200  0.77697150  0.92015850  1
  H  125  1  0.96403000  0.85786550  0.84225350  1
  H  126  1  0.95807800  0.81885750  0.84082450  1
  H  127  1  0.98261550  0.95359800  0.95302050  1
  H  128  1  0.99385950  0.95073700  0.98996650  1
  H  129  1  0.88931350  0.67951050  0.87342900  1
  H  130  1  0.85401350  0.68120450  0.84805600  1
  H  137  1  0.95103300  0.54571000  0.64944500  1
  H  146  1  0.89025950  0.51992150  0.54043400  1
  H  149  1  0.90276650  0.59154750  0.57921100  1
  H  150  1  0.86511350  0.58710900  0.58012750  1
  H  151  1  0.02443950  0.61776550  0.65887600  1
  H  152  1  0.98661700  0.60806100  0.66095400  1
  H  153  1  0.01660550  0.56215750  0.53820100  1
  H  154  1  0.97711500  0.53253600  0.50205800  1
  H  155  1  0.81526700  0.50626250  0.62547850  1
  H  156  1  0.84276950  0.49656100  0.65066650  1
  H  163  1  0.61387500  0.95502400  0.39717800  1
  H  172  1  0.52930750  0.98118650  0.36025300  1
  H  175  1  0.49754650  0.91093300  0.30519350  1
  H  176  1  0.50196900  0.91426650  0.27114650  1
  H  177  1  0.55308550  0.88957400  0.40517850  1
  H  178  1  0.55854950  0.89283350  0.37148200  1
  H  179  1  0.53211150  0.98079700  0.47983650  1
  H  180  1  0.51879400  0.00509800  0.46523600  1
  H  181  1  0.62796000  0.99186350  0.29882950  1
  H  182  1  0.66309150  0.00151800  0.33574950  1
  H  189  1  0.56674050  0.70944550  0.10452600  1
  H  198  1  0.62703600  0.65874200  0.13826800  1
  H  201  1  0.61537050  0.68412250  0.19560800  1
  H  202  1  0.65316800  0.72240350  0.22941650  1
  H  203  1  0.49311050  0.64397650  0.09904800  1
  H  204  1  0.53126800  0.68205200  0.13280600  1
  H  205  1  0.50469750  0.54384800  0.01944750  1
  H  206  1  0.54521250  0.54881500  0.03282850  1
  H  207  1  0.70287000  0.82051300  0.20182500  1
  H  208  1  0.67563450  0.81905300  0.16512050  1
  H  215  1  0.05396750  0.15112300  0.94191250  1
  H  224  1  0.02833900  0.04037400  0.88023300  1
  H  227  1  0.09831250  0.07902200  0.89436950  1
  H  228  1  0.09473150  0.07983900  0.85681450  1
  H  229  1  0.12175350  0.15769250  0.01560600  1
  H  230  1  0.11724400  0.15914400  0.97804000  1
  H  231  1  0.02953850  0.04691800  0.00054350  1
  H  232  1  0.00371500  0.01005400  0.96067100  1
  H  233  1  0.01589150  0.12657600  0.80608150  1
  H  234  1  0.00596350  0.15194950  0.83314900  1
  H  241  1  0.30158150  0.35055350  0.89625200  1
  H  250  1  0.34982850  0.45956450  0.97948300  1
  H  253  1  0.32355500  0.42078800  0.01232700  1
  H  254  1  0.28498650  0.41987250  0.00697400  1
  H  255  1  0.36554600  0.34110950  0.95886950  1
  H  256  1  0.32564800  0.33903900  0.94709400  1
  H  257  1  0.47839800  0.46177400  0.02389500  1
  H  258  1  0.47505100  0.49792150  0.03043650  1
  H  259  1  0.18978600  0.37452650  0.88077850  1
  H  260  1  0.19209750  0.34933700  0.84588750  1
  H  267  1  0.21669400  0.60280350  0.55783950  1
  H  276  1  0.16905600  0.63973150  0.62093250  1
  H  279  1  0.19235500  0.69478950  0.60573550  1
  H  280  1  0.23082450  0.72883650  0.64311400  1
  H  281  1  0.14790700  0.59481050  0.48439550  1
  H  282  1  0.18706900  0.62850500  0.52135200  1
  H  283  1  0.05227050  0.52015400  0.50095850  1
  H  284  1  0.05355400  0.53475600  0.53986100  1
  H  285  1  0.32913200  0.70114900  0.69302600  1
  H  286  1  0.32734200  0.66422900  0.66575800  1
  H  293  1  0.46222100  0.89547600  0.60493300  1
  H  302  1  0.48878400  0.86175600  0.52049200  1
  H  305  1  0.41977700  0.80440750  0.48852550  1
  H  306  1  0.42376300  0.77059550  0.49299350  1
  H  307  1  0.39405650  0.90094350  0.54494000  1
  H  308  1  0.39846400  0.86718800  0.54925600  1
  H  309  1  0.48523550  0.98056900  0.52441650  1
  H  310  1  0.51240400  0.96721750  0.51604950  1
  H  311  1  0.50105200  0.79817400  0.61869000  1
  H  312  1  0.51052100  0.83487600  0.65393700  1
  H  319  1  0.61206350  0.20919150  0.05807500  1
  H  328  1  0.64813850  0.16015500  0.11976950  1
  H  331  1  0.70398400  0.18467350  0.10562850  1
  H  332  1  0.73794850  0.22304900  0.14318350  1
  H  333  1  0.60619550  0.14208800  0.98439050  1
  H  334  1  0.63921850  0.18111900  0.02195750  1
  H  335  1  0.52917800  0.04622450  0.99940450  1
  H  336  1  0.54322100  0.04927400  0.03929100  1
  H  337  1  0.70980150  0.32049000  0.19390550  1
  H  338  1  0.67280150  0.31878400  0.16683050  1
  H  345  1  0.90532600  0.45430150  0.10374550  1
  H  354  1  0.87034100  0.48007900  0.02051300  1
  H  357  1  0.81122450  0.40845650  0.98767100  1
  H  358  1  0.77800800  0.41289500  0.99302300  1
  H  359  1  0.90667900  0.38224300  0.04113200  1
  H  360  1  0.87855400  0.39194600  0.05290500  1
  H  361  1  0.95450150  0.43788150  0.97610400  1
  H  362  1  0.94461100  0.46748450  0.96956150  1
  H  363  1  0.80900350  0.49374750  0.11921500  1
  H  364  1  0.84620800  0.50345200  0.15410800  1
  H  371  1  0.15884950  0.04496400  0.44215550  1
  H  380  1  0.04811950  0.01880250  0.37906500  1
  H  383  1  0.08661400  0.08905500  0.39426000  1
  H  384  1  0.08770550  0.08572350  0.35688100  1
  H  385  1  0.16351050  0.11041650  0.51560200  1
  H  386  1  0.16571600  0.10715550  0.47864650  1
  H  387  1  0.05131100  0.01919650  0.49903950  1
  H  388  1  0.01369100  0.99489500  0.46013600  1
  H  389  1  0.13609900  0.00812550  0.30696850  1
  H  390  1  0.16157750  0.99847250  0.33423600  1
  H  397  1  0.35729100  0.29054800  0.39507700  1
  H  406  1  0.46828950  0.34124950  0.47952000  1
  H  409  1  0.43124150  0.31586800  0.51148050  1
  H  410  1  0.43075850  0.27758950  0.50701000  1
  H  411  1  0.34912900  0.35601600  0.45506600  1
  H  412  1  0.34921050  0.31794150  0.45074700  1
  H  413  1  0.46084500  0.45614350  0.47559350  1
  H  414  1  0.49639350  0.45117650  0.48400600  1
  H  415  1  0.38235650  0.17948250  0.38130900  1
  H  416  1  0.35658100  0.18094200  0.34606400  1
  H  423  1  0.40280850  0.84886750  0.79077100  1
  H  432  1  0.48792650  0.95964350  0.83987700  1
  H  435  1  0.51926350  0.92102450  0.81538600  1
  H  436  1  0.51488250  0.92020800  0.77701750  1
  H  437  1  0.46399900  0.84232950  0.85793150  1
  H  438  1  0.45811700  0.84089600  0.81893500  1
  H  439  1  0.48214400  0.95295650  0.95342050  1
  H  440  1  0.49320450  0.98984350  0.95044000  1
  H  441  1  0.38931800  0.87341900  0.67949400  1
  H  442  1  0.35401100  0.84803800  0.68117400  1
  H  449  1  0.45103250  0.64944700  0.54570050  1
  H  458  1  0.39026250  0.54043050  0.51991000  1
  H  461  1  0.40275900  0.57920250  0.59152650  1
  H  462  1  0.36510600  0.58011650  0.58708750  1
  H  463  1  0.52443500  0.65888300  0.61775800  1
  H  464  1  0.48660950  0.66095400  0.60805450  1
  H  465  1  0.51661950  0.53821800  0.56211650  1
  H  466  1  0.47712800  0.50207250  0.53250950  1
  H  467  1  0.31526700  0.62548200  0.50625300  1
  H  468  1  0.34277300  0.65067600  0.49655700  1
  H  475  1  0.11388900  0.39718750  0.95504550  1
  H  484  1  0.02932550  0.36025900  0.98121750  1
  H  487  1  0.99756700  0.30520550  0.91097250  1
  H  488  1  0.00199050  0.27115800  0.91430550  1
  H  489  1  0.05309150  0.40518700  0.88960250  1
  H  490  1  0.05855650  0.37148950  0.89286000  1
  H  491  1  0.03216950  0.47986450  0.98086400  1
  H  492  1  0.01885400  0.46526400  0.00516700  1
  H  493  1  0.12798850  0.29884300  0.99188350  1
  H  494  1  0.16311700  0.33576100  0.00153100  1
  H  501  1  0.06674300  0.10453400  0.70945100  1
  H  510  1  0.12702300  0.13824800  0.65873000  1
  H  513  1  0.11536750  0.19560100  0.68410850  1
  H  514  1  0.15316650  0.22941200  0.72238650  1
  H  515  1  0.99311050  0.09906550  0.64399200  1
  H  516  1  0.03127200  0.13282350  0.68205950  1
  H  517  1  0.00466000  0.01943100  0.54384400  1
  H  518  1  0.04518150  0.03277950  0.54883100  1
  H  519  1  0.20287500  0.20184000  0.82050900  1
  H  520  1  0.17564450  0.16513800  0.81905450  1
  H  527  1  0.55395650  0.94190700  0.15112250  1
  H  536  1  0.52838950  0.88029450  0.04037900  1
  H  539  1  0.59831750  0.89437900  0.07903150  1
  H  540  1  0.59472750  0.85681900  0.07983750  1
  H  541  1  0.62176450  0.01561600  0.15778550  1
  H  542  1  0.61725300  0.97803350  0.15919450  1
  H  543  1  0.52953500  0.00057600  0.04705700  1
  H  544  1  0.50392550  0.96082050  0.01004700  1
  H  545  1  0.51588000  0.80607250  0.12656150  1
  H  546  1  0.50595000  0.83313750  0.15193450  1
  H  553  1  0.80158700  0.89626500  0.35055300  1
  H  562  1  0.84982150  0.97948400  0.45956450  1
  H  565  1  0.82355100  0.01233450  0.42079150  1
  H  566  1  0.78498000  0.00697750  0.41987350  1
  H  567  1  0.86556000  0.95889350  0.34112450  1
  H  568  1  0.82565950  0.94710950  0.33904600  1
  H  569  1  0.97840300  0.02395750  0.46179850  1
  H  570  1  0.97505250  0.03047550  0.49794000  1
  H  571  1  0.68978350  0.88077750  0.37451500  1
  H  572  1  0.69209950  0.84589100  0.34932750  1
  H  579  1  0.71670300  0.55785650  0.60281750  1
  H  588  1  0.66906500  0.62095350  0.63974550  1
  H  591  1  0.69235900  0.60575650  0.69479850  1
  H  592  1  0.73082800  0.64313550  0.72884750  1
  H  593  1  0.64790500  0.48441100  0.59481200  1
  H  594  1  0.68706550  0.52136300  0.62851050  1
  H  595  1  0.55230500  0.50099550  0.52013550  1
  H  596  1  0.55359100  0.53989750  0.53473550  1
  H  597  1  0.82914150  0.69304200  0.70116650  1
  H  598  1  0.82735200  0.66577400  0.66424700  1
  H  605  1  0.96220800  0.60491350  0.89546650  1
  H  614  1  0.98876550  0.52047250  0.86172900  1
  H  617  1  0.91975450  0.48850700  0.80438450  1
  H  618  1  0.92374650  0.49298000  0.77057750  1
  H  619  1  0.89405600  0.54492400  0.90094500  1
  H  620  1  0.89845550  0.54924050  0.86718700  1
  H  621  1  0.98524650  0.52440200  0.98054950  1
  H  622  1  0.01238250  0.51598950  0.96717000  1
  H  623  1  0.00104150  0.61868050  0.79816800  1
  H  624  1  0.01050950  0.65392450  0.83487300  1
  H  1254  1  0.13393350  0.06607100  0.06567650  1
  H  1255  1  0.11934450  0.07223650  0.01331200  1
  H  1258  1  0.08737800  0.12451600  0.13132500  1
  H  1259  1  0.04837700  0.11369300  0.09311600  1
  H  1260  1  0.08871450  0.15732650  0.11801200  1
  H  1262  1  0.05510150  0.13736450  0.01699400  1
  H  1263  1  0.07346050  0.16336100  0.06424250  1
  H  1264  1  0.03282900  0.11981450  0.03808150  1
  H  1270  1  0.36646500  0.92821850  0.44069650  1
  H  1271  1  0.38590150  0.89547900  0.46651750  1
  H  1274  1  0.43648900  0.05311850  0.53535250  1
  H  1275  1  0.47532500  0.05147250  0.55958050  1
  H  1276  1  0.44170700  0.04739350  0.57320350  1
  H  1278  1  0.46879000  0.97825650  0.59186250  1
  H  1279  1  0.45529100  0.01132750  0.59946550  1
  H  1280  1  0.49108900  0.01703900  0.58887500  1
  H  1286  1  0.50324900  0.40945950  0.05332650  1
  H  1287  1  0.44509650  0.40356050  0.03839100  1
  H  1290  1  0.51414300  0.38723500  0.94825000  1
  H  1291  1  0.48991450  0.40704800  0.93071050  1
  H  1292  1  0.46794600  0.35908850  0.91408650  1
  H  1294  1  0.39103350  0.38222950  0.91699300  1
  H  1295  1  0.41105800  0.35915500  0.89908200  1
  H  1296  1  0.43188550  0.40755300  0.91868250  1
  H  1302  1  0.00790150  0.55865350  0.43542100  1
  H  1303  1  0.06619650  0.59604300  0.48819350  1
  H  1306  1  0.00007400  0.44601400  0.37004200  1
  H  1307  1  0.02676400  0.44494750  0.40838750  1
  H  1308  1  0.04622100  0.46021800  0.38385100  1
  H  1310  1  0.12668100  0.52714500  0.48516000  1
  H  1311  1  0.10572900  0.49831900  0.43794500  1
  H  1312  1  0.08767150  0.48399100  0.46377750  1
  H  1318  1  0.06841100  0.93441850  0.00050750  1
  H  1319  1  0.10607000  0.98678450  0.05903650  1
  H  1322  1  0.95611500  0.86859750  0.99308250  1
  H  1323  1  0.95525450  0.90677000  0.02043450  1
  H  1324  1  0.97069400  0.88188250  0.03919050  1
  H  1326  1  0.03797300  0.98288950  0.12029450  1
  H  1327  1  0.00913150  0.93562650  0.09901300  1
  H  1328  1  0.99463150  0.96176650  0.08161600  1
  H  1334  1  0.92577150  0.55931500  0.48753050  1
  H  1335  1  0.91938650  0.53349500  0.42896950  1
  H  1338  1  0.90113300  0.46465200  0.51776500  1
  H  1339  1  0.91574200  0.44042600  0.49189400  1
  H  1340  1  0.86850250  0.42680400  0.47419050  1
  H  1342  1  0.87692650  0.40814950  0.38639600  1
  H  1343  1  0.85582450  0.40054600  0.41186250  1
  H  1344  1  0.90221200  0.41113300  0.42816500  1
  H  1350  1  0.44990650  0.94665600  0.35611450  1
  H  1351  1  0.40669150  0.96159800  0.36514950  1
  H  1354  1  0.56588450  0.05170750  0.43900500  1
  H  1355  1  0.55918850  0.06923300  0.47635450  1
  H  1356  1  0.55386300  0.08588200  0.44503900  1
  H  1358  1  0.47403600  0.08297250  0.46525950  1
  H  1359  1  0.51198200  0.10088650  0.46011150  1
  H  1360  1  0.51318600  0.08126300  0.48888600  1
  H  1366  1  0.57246650  0.56456350  0.12321600  1
  H  1367  1  0.57793550  0.51176300  0.10778650  1
  H  1370  1  0.63007650  0.62996450  0.07601600  1
  H  1371  1  0.61840200  0.59162350  0.03658850  1
  H  1372  1  0.66239750  0.61613500  0.07639050  1
  H  1374  1  0.64149750  0.51480700  0.04196150  1
  H  1375  1  0.66778750  0.56202600  0.06038150  1
  H  1376  1  0.62390250  0.53622300  0.02021650  1
  H  1382  1  0.06788450  0.99952300  0.93378350  1
  H  1383  1  0.04710450  0.94099400  0.92761650  1
  H  1386  1  0.96291750  0.00684550  0.87551200  1
  H  1387  1  0.93476850  0.97948450  0.88637800  1
  H  1388  1  0.93139700  0.96073000  0.84270700  1
  H  1390  1  0.91773850  0.87965250  0.86263100  1
  H  1391  1  0.91008700  0.90092100  0.83665400  1
  H  1392  1  0.91306450  0.91831550  0.88023100  1
  H  1398  1  0.43825000  0.51245000  0.07177100  1
  H  1399  1  0.49043000  0.57100850  0.10451850  1
  H  1402  1  0.38337250  0.48223800  0.94688250  1
  H  1403  1  0.42385400  0.50810550  0.94852550  1
  H  1404  1  0.39432650  0.52581900  0.95261850  1
  H  1406  1  0.49055450  0.61359700  0.02175750  1
  H  1407  1  0.44398750  0.58813900  0.98868950  1
  H  1408  1  0.47406450  0.57182850  0.98296900  1
  H  1414  1  0.09379800  0.64387850  0.59054450  1
  H  1415  1  0.04155050  0.63485000  0.59645350  1
  H  1418  1  0.12687400  0.56097900  0.61270100  1
  H  1419  1  0.08282700  0.52363350  0.59287650  1
  H  1420  1  0.10881800  0.55494700  0.64084000  1
  H  1422  1  0.00877350  0.53473550  0.61771300  1
  H  1423  1  0.05186550  0.53988050  0.64077600  1
  H  1424  1  0.02429400  0.51110700  0.59237600  1
  H  1430  1  0.44924550  0.87676750  0.44135400  1
  H  1431  1  0.47014400  0.89214350  0.40395750  1
  H  1434  1  0.55407000  0.92403000  0.55398600  1
  H  1435  1  0.58182200  0.96343800  0.55504600  1
  H  1436  1  0.58600450  0.92362750  0.53977400  1
  H  1438  1  0.59952650  0.95800350  0.47283900  1
  H  1439  1  0.60740400  0.93961500  0.50166600  1
  H  1440  1  0.60367850  0.97977800  0.51599650  1
  H  1446  1  0.63422500  0.06574300  0.06631900  1
  H  1447  1  0.61955000  0.01338050  0.07248650  1
  H  1450  1  0.58745050  0.13135650  0.12444000  1
  H  1451  1  0.54841850  0.09313350  0.11354700  1
  H  1452  1  0.58868300  0.11806000  0.15724600  1
  H  1454  1  0.55508350  0.01707450  0.13737400  1
  H  1455  1  0.57340450  0.06432150  0.16332900  1
  H  1456  1  0.53282800  0.03813200  0.11973600  1
  H  1462  1  0.86647400  0.44067500  0.92822500  1
  H  1463  1  0.88590800  0.46648650  0.89547750  1
  H  1466  1  0.93648250  0.53535450  0.05311300  1
  H  1467  1  0.97532200  0.55957850  0.05147050  1
  H  1468  1  0.94170200  0.57319850  0.04737850  1
  H  1470  1  0.96879250  0.59183900  0.97823850  1
  H  1471  1  0.95528950  0.59944700  0.01130450  1
  H  1472  1  0.99108950  0.58885950  0.01702700  1
  H  1478  1  0.00324900  0.05333500  0.40945400  1
  H  1479  1  0.94509500  0.03839850  0.40354850  1
  H  1482  1  0.01417050  0.94828100  0.38729650  1
  H  1483  1  0.98994850  0.93075800  0.40712150  1
  H  1484  1  0.96797450  0.91410800  0.35915750  1
  H  1486  1  0.89105850  0.91702450  0.38228600  1
  H  1487  1  0.91108900  0.89910700  0.35922300  1
  H  1488  1  0.93191450  0.91873050  0.40762200  1
  H  1494  1  0.50790100  0.43542800  0.55864700  1
  H  1495  1  0.56617000  0.48822850  0.59601750  1
  H  1498  1  0.50010500  0.37002800  0.44604200  1
  H  1499  1  0.52677100  0.40836850  0.44495650  1
  H  1500  1  0.54625650  0.38385700  0.46024550  1
  H  1502  1  0.62668450  0.48518500  0.52714550  1
  H  1503  1  0.60575450  0.43796650  0.49834600  1
  H  1504  1  0.58767250  0.46376900  0.48398550  1
  H  1510  1  0.56817500  0.00033850  0.93420450  1
  H  1511  1  0.60604050  0.05886700  0.98656450  1
  H  1514  1  0.45600200  0.99326500  0.86875200  1
  H  1515  1  0.45527500  0.02066400  0.90700700  1
  H  1516  1  0.47068200  0.03939750  0.88208950  1
  H  1518  1  0.53821200  0.12042150  0.98310950  1
  H  1519  1  0.50925750  0.09918600  0.93587650  1
  H  1520  1  0.49485100  0.08180550  0.96206950  1
  H  1526  1  0.42579800  0.48754600  0.55931600  1
  H  1527  1  0.41941900  0.42898600  0.53350500  1
  H  1530  1  0.40113150  0.51775650  0.46463800  1
  H  1531  1  0.41574500  0.49188650  0.44041350  1
  H  1532  1  0.36850450  0.47417600  0.42679250  1
  H  1534  1  0.37695350  0.38639450  0.40815400  1
  H  1535  1  0.35584350  0.41185350  0.40054400  1
  H  1536  1  0.40223150  0.42816300  0.41113350  1
  H  1542  1  0.94992800  0.35613850  0.94667650  1
  H  1543  1  0.90670950  0.36517200  0.96161050  1
  H  1546  1  0.06589550  0.43899300  0.05175250  1
  H  1547  1  0.05920500  0.47634350  0.06929250  1
  H  1548  1  0.05385950  0.44500650  0.08591600  1
  H  1550  1  0.97404000  0.46524050  0.08300850  1
  H  1551  1  0.01197550  0.46007700  0.10091850  1
  H  1552  1  0.01320250  0.48887500  0.08132050  1
  H  1558  1  0.07247800  0.12323150  0.56458050  1
  H  1559  1  0.07799950  0.10784950  0.51180600  1
  H  1562  1  0.13003150  0.07596850  0.62995500  1
  H  1563  1  0.11837600  0.03655800  0.59160900  1
  H  1564  1  0.16237050  0.07636700  0.61614650  1
  H  1566  1  0.14151850  0.04198650  0.51483600  1
  H  1567  1  0.16778500  0.06037600  0.56205300  1
  H  1568  1  0.12389300  0.02021350  0.53621950  1
  H  1574  1  0.56790800  0.93402200  0.99951300  1
  H  1575  1  0.54701000  0.92786450  0.94098650  1
  H  1578  1  0.46306900  0.87551550  0.00694150  1
  H  1579  1  0.43482050  0.88630500  0.97958650  1
  H  1580  1  0.43155050  0.84268400  0.96083550  1
  H  1582  1  0.41765800  0.86259050  0.87972750  1
  H  1583  1  0.41013950  0.83660000  0.90100850  1
  H  1584  1  0.41298300  0.88011200  0.91840400  1
  H  1590  1  0.93823950  0.07178250  0.51247100  1
  H  1591  1  0.99041550  0.10452250  0.57103100  1
  H  1594  1  0.88336450  0.94688400  0.48223250  1
  H  1595  1  0.92384600  0.94852950  0.50810450  1
  H  1596  1  0.89431000  0.95260950  0.52580850  1
  H  1598  1  0.99052900  0.02174800  0.61360200  1
  H  1599  1  0.94396000  0.98867900  0.58813600  1
  H  1600  1  0.97404350  0.98296450  0.57183300  1
  H  1606  1  0.59378700  0.59053350  0.64386150  1
  H  1607  1  0.54153550  0.59643550  0.63482700  1
  H  1610  1  0.62690700  0.61275600  0.56101100  1
  H  1611  1  0.58286500  0.59294450  0.52365850  1
  H  1612  1  0.60885600  0.64090350  0.55499450  1
  H  1614  1  0.50880300  0.61776450  0.53475750  1
  H  1615  1  0.55190350  0.64083900  0.53992350  1
  H  1616  1  0.52433100  0.59244050  0.51112450  1
  H  1622  1  0.94925100  0.44134700  0.87678300  1
  H  1623  1  0.97015150  0.40397750  0.89221400  1
  H  1626  1  0.05405850  0.55395350  0.92398600  1
  H  1627  1  0.08181050  0.55504000  0.96341250  1
  H  1628  1  0.08600600  0.53975250  0.92361250  1
  H  1630  1  0.09953800  0.47285500  0.95804200  1
  H  1631  1  0.10740850  0.50165600  0.93962450  1
  H  1632  1  0.10368600  0.51601550  0.97978750  1
  H  2022  1  0.19387900  0.11643450  0.32370650  1
  H  2023  1  0.18297100  0.09780500  0.36329100  1
  H  2026  1  0.07746150  0.08142400  0.23127250  1
  H  2027  1  0.05136650  0.06948850  0.25113100  1
  H  2028  1  0.05462000  0.03518000  0.22010900  1
  H  2030  1  0.05641500  0.01243550  0.29994750  1
  H  2031  1  0.04604050  0.00269300  0.25522850  1
  H  2032  1  0.03974750  0.03685150  0.28237200  1
  H  2038  1  0.32409450  0.13750350  0.43135600  1
  H  2039  1  0.33489700  0.18817200  0.42399800  1
  H  2042  1  0.44059050  0.16069600  0.51155750  1
  H  2043  1  0.46680500  0.20669300  0.52597700  1
  H  2044  1  0.46300500  0.17252250  0.48788450  1
  H  2046  1  0.46130800  0.25158200  0.46495300  1
  H  2047  1  0.47160100  0.21702900  0.46486700  1
  H  2048  1  0.47815450  0.25013400  0.50570450  1
  H  2054  1  0.71609750  0.38535950  0.07031500  1
  H  2055  1  0.77422600  0.40363400  0.07778500  1
  H  2058  1  0.65818600  0.41880000  0.98747000  1
  H  2059  1  0.68979650  0.43017850  0.97300000  1
  H  2060  1  0.69324900  0.46495650  0.01030450  1
  H  2062  1  0.79567650  0.48717000  0.03442450  1
  H  2063  1  0.76074600  0.49708900  0.03351400  1
  H  2064  1  0.75353950  0.46225800  0.99341050  1
  H  2070  1  0.80153050  0.36255100  0.17645850  1
  H  2071  1  0.74324400  0.31196700  0.13698200  1
  H  2074  1  0.85942200  0.33869900  0.26880400  1
  H  2075  1  0.82783850  0.29264700  0.24886350  1
  H  2076  1  0.82436800  0.32669150  0.27994150  1
  H  2078  1  0.72189300  0.24847550  0.20026450  1
  H  2079  1  0.75687200  0.28285850  0.24496750  1
  H  2080  1  0.76400100  0.24959450  0.21774450  1
  H  2086  1  0.87017950  0.67630000  0.79273350  1
  H  2087  1  0.81967650  0.63671200  0.73452150  1
  H  2090  1  0.84622150  0.76875450  0.85016000  1
  H  2091  1  0.80026450  0.74889700  0.81837150  1
  H  2092  1  0.83453700  0.77991250  0.81507550  1
  H  2094  1  0.75647750  0.70006750  0.71249900  1
  H  2095  1  0.79082550  0.74478600  0.74746950  1
  H  2096  1  0.75739550  0.71765250  0.75449500  1
  H  2102  1  0.89273300  0.56863600  0.70614800  1
  H  2103  1  0.91088900  0.57598500  0.76417100  1
  H  2106  1  0.92903200  0.48844150  0.64913650  1
  H  2107  1  0.94082600  0.47401900  0.68071000  1
  H  2108  1  0.97511850  0.51211450  0.68463500  1
  H  2110  1  0.99635050  0.53503800  0.78662350  1
  H  2111  1  0.00673150  0.53512800  0.75215850  1
  H  2112  1  0.97244650  0.49428800  0.74442350  1
  H  2118  1  0.64577650  0.92967750  0.31503800  1
  H  2119  1  0.69644150  0.92222000  0.32584350  1
  H  2122  1  0.67070000  0.01251350  0.43132350  1
  H  2123  1  0.71678150  0.02698600  0.45717350  1
  H  2124  1  0.68293100  0.98967700  0.45464500  1
  H  2126  1  0.76124500  0.96556800  0.45273900  1
  H  2127  1  0.72722300  0.96647200  0.46356700  1
  H  2128  1  0.76011750  0.00658050  0.46884400  1
  H  2134  1  0.62506500  0.82354650  0.18607450  1
  H  2135  1  0.60624950  0.86301800  0.17496450  1
  H  2138  1  0.59060100  0.73119250  0.06987750  1
  H  2139  1  0.57895200  0.75112800  0.04376300  1
  H  2140  1  0.54440750  0.72005050  0.04673400  1
  H  2142  1  0.52160850  0.79972900  0.04819350  1
  H  2143  1  0.51188450  0.75502600  0.03787650  1
  H  2144  1  0.54623250  0.78224600  0.03182950  1
  H  2150  1  0.07744850  0.20727200  0.88356950  1
  H  2151  1  0.08516300  0.26548400  0.90220000  1
  H  2154  1  0.99606700  0.14984750  0.91860450  1
  H  2155  1  0.98191000  0.18164200  0.93054800  1
  H  2156  1  0.01947900  0.18493050  0.96485050  1
  H  2158  1  0.04400200  0.28751200  0.98759100  1
  H  2159  1  0.04337950  0.25253900  0.99733550  1
  H  2160  1  0.00292100  0.24551850  0.96318150  1
  H  2166  1  0.18657700  0.29385500  0.86247500  1
  H  2167  1  0.14671150  0.23582950  0.81180200  1
  H  2170  1  0.27989050  0.35086550  0.83929500  1
  H  2171  1  0.26011350  0.31929100  0.79329950  1
  H  2172  1  0.29048050  0.31536850  0.82747200  1
  H  2174  1  0.20972500  0.21337550  0.74840850  1
  H  2175  1  0.25457200  0.24784300  0.78296700  1
  H  2176  1  0.22802250  0.25557600  0.74985750  1
  H  2182  1  0.33073550  0.68494600  0.61463250  1
  H  2183  1  0.37059350  0.67414500  0.59636350  1
  H  2186  1  0.23937650  0.56865550  0.58117500  1
  H  2187  1  0.25961000  0.54280800  0.56979400  1
  H  2188  1  0.22828600  0.54534000  0.53501900  1
  H  2190  1  0.30850450  0.54725400  0.51281050  1
  H  2191  1  0.26365400  0.53642200  0.50288800  1
  H  2192  1  0.29127450  0.53114350  0.53771600  1
  H  2198  1  0.43901200  0.81392900  0.63749300  1
  H  2199  1  0.43130300  0.82503900  0.68807300  1
  H  2202  1  0.52073050  0.93012750  0.66132900  1
  H  2203  1  0.53518750  0.95624450  0.70737500  1
  H  2204  1  0.49766900  0.95326200  0.67331800  1
  H  2206  1  0.47339350  0.95180500  0.75152550  1
  H  2207  1  0.47398450  0.96211150  0.71713300  1
  H  2208  1  0.51438450  0.96817750  0.75041300  1
  H  2214  1  0.69387900  0.32369350  0.11641650  1
  H  2215  1  0.68295900  0.36327900  0.09779600  1
  H  2218  1  0.57746800  0.23122300  0.08137700  1
  H  2219  1  0.55136600  0.25107550  0.06944250  1
  H  2220  1  0.55463200  0.22006650  0.03513450  1
  H  2222  1  0.55640700  0.29991400  0.01240900  1
  H  2223  1  0.54604300  0.25519600  0.00265800  1
  H  2224  1  0.53973900  0.28232400  0.03681600  1
  H  2230  1  0.82410250  0.43138700  0.13752850  1
  H  2231  1  0.83491300  0.42403800  0.18820300  1
  H  2234  1  0.94059350  0.51157250  0.16070000  1
  H  2235  1  0.96681550  0.52599600  0.20669750  1
  H  2236  1  0.96300750  0.48789850  0.17252400  1
  H  2238  1  0.96132050  0.46497600  0.25159050  1
  H  2239  1  0.97160600  0.46488100  0.21703100  1
  H  2240  1  0.97816900  0.50572450  0.25013850  1
  H  2246  1  0.21610050  0.07031300  0.38536250  1
  H  2247  1  0.27422400  0.07777450  0.40362750  1
  H  2250  1  0.15819250  0.98747950  0.41881700  1
  H  2251  1  0.18980400  0.97301000  0.43019700  1
  H  2252  1  0.19325800  0.01031800  0.46497500  1
  H  2254  1  0.29568400  0.03443450  0.48718150  1
  H  2255  1  0.26075650  0.03352800  0.49710350  1
  H  2256  1  0.25354700  0.99341950  0.46227550  1
  H  2262  1  0.30151550  0.17644050  0.36251400  1
  H  2263  1  0.24322650  0.13697250  0.31193300  1
  H  2266  1  0.35940250  0.26880300  0.33867950  1
  H  2267  1  0.32781600  0.24887350  0.29263250  1
  H  2268  1  0.32435150  0.27994800  0.32668750  1
  H  2270  1  0.22187100  0.20028100  0.24847400  1
  H  2271  1  0.25685350  0.24498000  0.28286550  1
  H  2272  1  0.26397650  0.21776600  0.24958950  1
  H  2278  1  0.37017650  0.79272200  0.67629250  1
  H  2279  1  0.31968150  0.73450700  0.63670750  1
  H  2282  1  0.34618350  0.85014550  0.76871800  1
  H  2283  1  0.30023100  0.81834900  0.74885800  1
  H  2284  1  0.33450800  0.81506800  0.77988700  1
  H  2286  1  0.25646650  0.71248000  0.70004750  1
  H  2287  1  0.29080900  0.74745750  0.74476650  1
  H  2288  1  0.25737200  0.75446950  0.71761950  1
  H  2294  1  0.39273750  0.70615000  0.56863750  1
  H  2295  1  0.41090050  0.76417850  0.57599900  1
  H  2298  1  0.42903300  0.64914500  0.48843500  1
  H  2299  1  0.44083050  0.68072400  0.47401750  1
  H  2300  1  0.47512150  0.68464250  0.51211000  1
  H  2302  1  0.49636100  0.78663500  0.53504900  1
  H  2303  1  0.50673900  0.75216750  0.53513250  1
  H  2304  1  0.47245650  0.74443850  0.49429600  1
  H  2310  1  0.14578200  0.31504450  0.92968250  1
  H  2311  1  0.19644050  0.32584800  0.92221250  1
  H  2314  1  0.17072100  0.43133300  0.01253200  1
  H  2315  1  0.21680050  0.45718050  0.02699800  1
  H  2316  1  0.18294800  0.45465500  0.98969500  1
  H  2318  1  0.26125250  0.45274400  0.96557150  1
  H  2319  1  0.22723450  0.46357550  0.96648200  1
  H  2320  1  0.26013200  0.46884900  0.00658600  1
  H  2326  1  0.12507300  0.18608450  0.82354750  1
  H  2327  1  0.10625700  0.17497450  0.86301950  1
  H  2330  1  0.09061250  0.06988650  0.73119800  1
  H  2331  1  0.07896450  0.04377400  0.75113450  1
  H  2332  1  0.04441850  0.04674400  0.72005650  1
  H  2334  1  0.02161500  0.04820350  0.79973050  1
  H  2335  1  0.01189250  0.03788900  0.75502850  1
  H  2336  1  0.04624050  0.03183950  0.78224900  1
  H  2342  1  0.57743750  0.88355650  0.20726200  1
  H  2343  1  0.58514700  0.90217800  0.26547300  1
  H  2346  1  0.49604750  0.91858150  0.14983700  1
  H  2347  1  0.48187850  0.93050700  0.18162450  1
  H  2348  1  0.51944600  0.96482300  0.18492300  1
  H  2350  1  0.54396150  0.98754900  0.28749750  1
  H  2351  1  0.54333900  0.99729950  0.25252750  1
  H  2352  1  0.50288400  0.96313750  0.24550150  1
  H  2358  1  0.68658350  0.86248800  0.29384750  1
  H  2359  1  0.64671800  0.81181650  0.23582450  1
  H  2362  1  0.77989250  0.83930350  0.35085800  1
  H  2363  1  0.76011400  0.79330750  0.31928350  1
  H  2364  1  0.79048300  0.82747950  0.31535950  1
  H  2366  1  0.70972550  0.74841500  0.21336950  1
  H  2367  1  0.75457100  0.78296950  0.24783350  1
  H  2368  1  0.72802250  0.74986400  0.25556950  1
  H  2374  1  0.83074300  0.61464300  0.68495900  1
  H  2375  1  0.87059950  0.59637600  0.67415450  1
  H  2378  1  0.73938600  0.58120100  0.56867300  1
  H  2379  1  0.75961700  0.56982150  0.54282250  1
  H  2380  1  0.72829200  0.53504300  0.54535100  1
  H  2382  1  0.80851050  0.51283450  0.54725900  1
  H  2383  1  0.76366050  0.50291150  0.53642800  1
  H  2384  1  0.79128250  0.53774350  0.53115400  1
  H  2390  1  0.93898750  0.63746650  0.81392000  1
  H  2391  1  0.93128400  0.68804850  0.82503050  1
  H  2394  1  0.02071900  0.66130850  0.93011650  1
  H  2395  1  0.03518650  0.70735800  0.95623050  1
  H  2396  1  0.99766800  0.67331050  0.95325850  1
  H  2398  1  0.97341250  0.75152950  0.95180200  1
  H  2399  1  0.97400450  0.71714250  0.96211800  1
  H  2400  1  0.01440050  0.75041000  0.96816450  1
  N  8  1  0.19005000  0.16918950  0.30979950  1
  N  15  1  0.04941000  0.02322450  0.05650550  1
  N  17  1  0.21225350  0.12432750  0.20912300  1
  N  18  1  0.11922700  0.01099950  0.15642650  1
  N  34  1  0.32862250  0.12795300  0.48848650  1
  N  41  1  0.44218300  0.97979500  0.45158500  1
  N  43  1  0.30354250  0.00427900  0.41930650  1
  N  44  1  0.39600700  0.04451950  0.39795850  1
  N  60  1  0.64962850  0.33169800  0.01283350  1
  N  67  1  0.53815000  0.47491050  0.01559350  1
  N  69  1  0.59261000  0.37566050  0.07886750  1
  N  70  1  0.65166100  0.48900550  0.09739750  1
  N  86  1  0.86838250  0.37239250  0.19029200  1
  N  93  1  0.97318500  0.48350500  0.44397000  1
  N  95  1  0.92529150  0.49529650  0.29134900  1
  N  96  1  0.86219450  0.45476950  0.34245300  1
  N  112  1  0.88025600  0.69021650  0.85939450  1
  N  119  1  0.99321100  0.94359850  0.96676350  1
  N  121  1  0.00315050  0.79085500  0.91517650  1
  N  122  1  0.96282400  0.84355200  0.85454100  1
  N  138  1  0.84013400  0.51151350  0.63946250  1
  N  145  1  0.99059750  0.54841600  0.52821150  1
  N  147  1  0.88424550  0.58070700  0.58498550  1
  N  148  1  0.99805500  0.60204200  0.64656700  1
  N  164  1  0.63676850  0.98714250  0.31885200  1
  N  171  1  0.52251050  0.98434800  0.45929750  1
  N  173  1  0.51372150  0.92109300  0.29678850  1
  N  174  1  0.55426000  0.90257800  0.39160800  1
  N  190  1  0.67808000  0.80971150  0.18207850  1
  N  197  1  0.52924400  0.55602350  0.03956350  1
  N  199  1  0.63394450  0.70866700  0.20394550  1
  N  200  1  0.51974050  0.65753950  0.11229600  1
  N  216  1  0.02086800  0.14061100  0.83082300  1
  N  223  1  0.02632800  0.03319650  0.97675750  1
  N  225  1  0.08796800  0.08481950  0.87567550  1
  N  226  1  0.10826200  0.14542050  0.98900550  1
  N  242  1  0.20066800  0.36054000  0.87204400  1
  N  249  1  0.46238100  0.47176800  0.02016300  1
  N  251  1  0.29925850  0.41501400  0.99571250  1
  N  252  1  0.35147450  0.35342400  0.95545950  1
  N  268  1  0.31791600  0.68112700  0.66828200  1
  N  275  1  0.06321150  0.54069400  0.52505050  1
  N  277  1  0.21693500  0.70319450  0.62430050  1
  N  278  1  0.16265250  0.60837950  0.51097000  1
  N  294  1  0.49600800  0.81791950  0.62763750  1
  N  301  1  0.48968400  0.96046500  0.51649700  1
  N  303  1  0.43001050  0.79606700  0.50473150  1
  N  304  1  0.40744350  0.88769900  0.54525450  1
  N  320  1  0.69003550  0.30977850  0.16916100  1
  N  327  1  0.54974350  0.05635200  0.02321950  1
  N  329  1  0.71232450  0.20916100  0.12432250  1
  N  330  1  0.61928850  0.15641850  0.01099000  1
  N  346  1  0.82862050  0.48849800  0.12795250  1
  N  353  1  0.94221500  0.45160550  0.97983450  1
  N  355  1  0.80354200  0.41929700  0.00428400  1
  N  356  1  0.89601550  0.39796550  0.04454100  1
  N  372  1  0.14962600  0.01284550  0.33171050  1
  N  379  1  0.03815800  0.01564300  0.47494600  1
  N  381  1  0.09262850  0.07889550  0.37569600  1
  N  382  1  0.15168100  0.09741150  0.48902950  1
  N  398  1  0.36836750  0.19028350  0.37236300  1
  N  405  1  0.47321650  0.44396800  0.48353350  1
  N  407  1  0.42527050  0.29132450  0.49527300  1
  N  408  1  0.36219600  0.34245400  0.45475200  1
  N  424  1  0.38025300  0.85938100  0.69019500  1
  N  431  1  0.49273350  0.96671650  0.94343000  1
  N  433  1  0.50312950  0.91521950  0.79089000  1
  N  434  1  0.46281200  0.85460750  0.84360750  1
  N  450  1  0.34013550  0.63946900  0.51150650  1
  N  457  1  0.49061050  0.52822500  0.54838950  1
  N  459  1  0.38423850  0.58497650  0.58068600  1
  N  460  1  0.49805050  0.64657150  0.60203300  1
  N  476  1  0.13679300  0.31886300  0.98716100  1
  N  483  1  0.02255850  0.45932300  0.98441050  1
  N  485  1  0.01374150  0.29679850  0.92112900  1
  N  486  1  0.05426800  0.39161750  0.90260750  1
  N  502  1  0.17808700  0.18209250  0.80970950  1
  N  509  1  0.02921350  0.03953350  0.55602900  1
  N  511  1  0.13394200  0.20394200  0.70865400  1
  N  512  1  0.01974050  0.11231100  0.65754950  1
  N  528  1  0.52085500  0.83081300  0.14059700  1
  N  535  1  0.52644950  0.97687900  0.03329150  1
  N  537  1  0.58796750  0.87568250  0.08482200  1
  N  538  1  0.60827950  0.98901550  0.14548900  1
  N  554  1  0.70066650  0.87204600  0.36053050  1
  N  561  1  0.96238350  0.02020350  0.47178700  1
  N  563  1  0.79925600  0.99571900  0.41501600  1
  N  564  1  0.85148350  0.95547550  0.35343200  1
  N  580  1  0.81792550  0.66829950  0.68114500  1
  N  587  1  0.56323650  0.52508250  0.54067700  1
  N  589  1  0.71693950  0.62432100  0.70320550  1
  N  590  1  0.66265050  0.51098450  0.60838300  1
  N  606  1  0.99599900  0.62762550  0.81791450  1
  N  613  1  0.98967600  0.51646050  0.96043350  1
  N  615  1  0.92999250  0.50471500  0.79604850  1
  N  616  1  0.90743700  0.54523800  0.88769800  1
