# generated using pymatgen
data_Cd2SiH16(C7N4)4
_symmetry_space_group_name_H-M   'P 1'
_cell_length_a   32.02114876
_cell_length_b   32.02080000
_cell_length_c   32.02080000
_cell_angle_alpha   109.47100000
_cell_angle_beta   109.47144127
_cell_angle_gamma   109.47144127
_symmetry_Int_Tables_number   1
_chemical_formula_structural   Cd2SiH16(C7N4)4
_chemical_formula_sum   'Cd24 Si12 H192 C336 N192'
_cell_volume   25274.24499174
_cell_formula_units_Z   12
loop_
 _symmetry_equiv_pos_site_id
 _symmetry_equiv_pos_as_xyz
  1  'x, y, z'
loop_
 _atom_site_type_symbol
 _atom_site_label
 _atom_site_symmetry_multiplicity
 _atom_site_fract_x
 _atom_site_fract_y
 _atom_site_fract_z
 _atom_site_occupancy
  Cd  Cd1  1  0.62834000  0.12834000  0.62834000  1.0
  Cd  Cd2  1  0.12834000  0.62834000  0.12834000  1.0
  Cd  Cd3  1  0.50000000  0.37166000  0.00000000  1.0
  Cd  Cd4  1  0.00000000  0.00000000  0.50000000  1.0
  Cd  Cd5  1  0.12834000  0.50000000  0.50000000  1.0
  Cd  Cd6  1  0.50000000  0.62834000  0.00000000  1.0
  Cd  Cd7  1  0.50000000  0.50000000  0.50000000  1.0
  Cd  Cd8  1  0.37166000  0.87166000  0.37166000  1.0
  Cd  Cd9  1  0.50000000  0.00000000  0.00000000  1.0
  Cd  Cd10  1  0.87166000  0.50000000  0.50000000  1.0
  Cd  Cd11  1  0.62834000  0.50000000  0.50000000  1.0
  Cd  Cd12  1  1.00000000  1.00000000  0.37166000  1.0
  Cd  Cd13  1  0.37166000  0.50000000  0.50000000  1.0
  Cd  Cd14  1  1.00000000  0.50000000  0.50000000  1.0
  Cd  Cd15  1  1.00000000  1.00000000  0.12834000  1.0
  Cd  Cd16  1  0.50000000  0.50000000  0.00000000  1.0
  Cd  Cd17  1  1.00000000  1.00000000  0.62834000  1.0
  Cd  Cd18  1  1.00000000  0.50000000  1.00000000  1.0
  Cd  Cd19  1  0.50000000  0.00000000  0.50000000  1.0
  Cd  Cd20  1  0.00000000  0.00000000  0.87166000  1.0
  Cd  Cd21  1  0.50000000  0.87166000  0.00000000  1.0
  Cd  Cd22  1  0.87166000  0.37166000  0.87166000  1.0
  Cd  Cd23  1  0.00000000  0.00000000  0.00000000  1.0
  Cd  Cd24  1  0.50000000  0.12834000  0.00000000  1.0
  Si  Si1  1  0.87500000  0.25000000  0.12500000  1.0
  Si  Si2  1  0.75000000  0.12500000  0.37500000  1.0
  Si  Si3  1  0.25000000  0.37500000  0.12500000  1.0
  Si  Si4  1  0.75000000  0.62500000  0.87500000  1.0
  Si  Si5  1  0.25000000  0.87500000  0.62500000  1.0
  Si  Si6  1  0.12500000  0.37500000  0.75000000  1.0
  Si  Si7  1  0.12500000  0.75000000  0.87500000  1.0
  Si  Si8  1  0.62500000  0.75000000  0.37500000  1.0
  Si  Si9  1  0.37500000  0.12500000  0.25000000  1.0
  Si  Si10  1  0.87500000  0.62500000  0.25000000  1.0
  Si  Si11  1  0.62500000  0.87500000  0.75000000  1.0
  Si  Si12  1  0.37500000  0.25000000  0.62500000  1.0
  H  H1  1  0.44680000  0.11190000  0.40310000  1.0
  H  H2  1  0.88810000  0.33490000  0.29120000  1.0
  H  H3  1  0.02190000  0.63790000  0.23060000  1.0
  H  H4  1  0.86210000  0.59270000  0.38400000  1.0
  H  H5  1  0.59690000  0.05320000  0.38810000  1.0
  H  H6  1  0.15400000  0.72320000  0.79520000  1.0
  H  H7  1  0.20880000  0.04370000  0.09690000  1.0
  H  H8  1  0.72610000  0.52090000  0.84660000  1.0
  H  H9  1  0.45630000  0.40310000  0.79120000  1.0
  H  H10  1  0.88400000  0.79130000  0.02190000  1.0
  H  H11  1  0.47910000  0.20520000  0.32570000  1.0
  H  H12  1  0.70480000  0.92800000  0.85880000  1.0
  H  H13  1  0.26940000  0.86210000  0.47810000  1.0
  H  H14  1  0.44680000  0.33490000  0.54370000  1.0
  H  H15  1  0.16510000  0.95630000  0.55320000  1.0
  H  H16  1  0.34600000  0.20480000  0.27680000  1.0
  H  H17  1  0.26940000  0.40730000  0.29130000  1.0
  H  H18  1  0.87950000  0.70520000  0.22610000  1.0
  H  H19  1  0.29120000  0.90310000  0.95630000  1.0
  H  H20  1  0.09270000  0.88400000  0.86210000  1.0
  H  H21  1  0.97910000  0.32570000  0.20520000  1.0
  H  H22  1  0.64120000  0.57200000  0.79520000  1.0
  H  H23  1  0.85880000  0.20480000  0.42800000  1.0
  H  H24  1  0.82570000  0.70520000  0.97910000  1.0
  H  H25  1  0.40730000  0.26940000  0.79130000  1.0
  H  H26  1  0.57200000  0.93080000  0.77680000  1.0
  H  H27  1  0.34600000  0.14120000  0.56920000  1.0
  H  H28  1  0.43080000  0.15400000  0.35880000  1.0
  H  H29  1  0.09690000  0.70880000  0.54370000  1.0
  H  H30  1  0.15340000  0.37950000  0.67430000  1.0
  H  H31  1  0.45630000  0.05320000  0.16510000  1.0
  H  H32  1  0.22610000  0.84660000  0.52090000  1.0
  H  H33  1  0.07200000  0.29520000  0.64120000  1.0
  H  H34  1  0.92800000  0.22320000  0.06920000  1.0
  H  H35  1  0.47910000  0.27390000  0.65340000  1.0
  H  H36  1  0.42800000  0.35880000  0.70480000  1.0
  H  H37  1  0.40730000  0.13790000  0.11600000  1.0
  H  H38  1  0.79520000  0.65400000  0.22320000  1.0
  H  H39  1  0.22320000  0.29520000  0.15400000  1.0
  H  H40  1  0.20870000  0.11600000  0.47810000  1.0
  H  H41  1  0.23060000  0.52190000  0.13790000  1.0
  H  H42  1  0.62050000  0.84660000  0.82570000  1.0
  H  H43  1  0.67430000  0.65340000  0.87950000  1.0
  H  H44  1  0.59690000  0.54370000  0.70880000  1.0
  H  H45  1  0.90310000  0.61190000  0.94680000  1.0
  H  H46  1  0.84600000  0.27680000  0.20480000  1.0
  H  H47  1  0.56920000  0.84600000  0.64120000  1.0
  H  H48  1  0.76940000  0.29130000  0.40730000  1.0
  H  H49  1  0.35880000  0.42800000  0.20480000  1.0
  H  H50  1  0.13790000  0.40730000  0.61600000  1.0
  H  H51  1  0.70520000  0.82570000  0.47910000  1.0
  H  H52  1  0.90730000  0.11600000  0.13790000  1.0
  H  H53  1  0.04370000  0.20880000  0.59690000  1.0
  H  H54  1  0.72320000  0.15400000  0.29520000  1.0
  H  H55  1  0.84660000  0.22610000  0.02090000  1.0
  H  H56  1  0.23060000  0.70870000  0.59270000  1.0
  H  H57  1  0.20880000  0.16510000  0.61190000  1.0
  H  H58  1  0.63790000  0.02190000  0.73060000  1.0
  H  H59  1  0.59270000  0.73060000  0.20870000  1.0
  H  H60  1  0.47810000  0.70870000  0.61600000  1.0
  H  H61  1  0.02090000  0.34660000  0.72610000  1.0
  H  H62  1  0.65340000  0.97910000  0.77390000  1.0
  H  H63  1  0.54370000  0.59690000  0.20880000  1.0
  H  H64  1  0.05320000  0.45630000  0.66510000  1.0
  H  H65  1  0.20520000  0.47910000  0.82570000  1.0
  H  H66  1  0.55320000  0.88810000  0.59690000  1.0
  H  H67  1  0.38400000  0.36210000  0.09270000  1.0
  H  H68  1  0.90730000  0.79130000  0.26940000  1.0
  H  H69  1  0.77390000  0.62050000  0.79480000  1.0
  H  H70  1  0.95630000  0.79120000  0.40310000  1.0
  H  H71  1  0.54370000  0.94680000  0.83490000  1.0
  H  H72  1  0.37950000  0.22610000  0.70520000  1.0
  H  H73  1  0.20870000  0.09270000  0.23060000  1.0
  H  H74  1  0.17430000  0.29480000  0.02090000  1.0
  H  H75  1  0.38810000  0.09690000  0.55320000  1.0
  H  H76  1  0.11600000  0.90730000  0.63790000  1.0
  H  H77  1  0.29520000  0.22320000  0.65400000  1.0
  H  H78  1  0.36210000  0.38400000  0.59270000  1.0
  H  H79  1  0.77680000  0.07200000  0.43080000  1.0
  H  H80  1  0.27390000  0.47910000  0.15340000  1.0
  H  H81  1  0.22320000  0.92800000  0.56920000  1.0
  H  H82  1  0.07200000  0.77680000  0.93080000  1.0
  H  H83  1  0.70870000  0.47810000  0.11600000  1.0
  H  H84  1  0.40310000  0.45630000  0.29120000  1.0
  H  H85  1  0.56920000  0.72320000  0.42800000  1.0
  H  H86  1  0.34660000  0.32570000  0.62050000  1.0
  H  H87  1  0.61600000  0.63790000  0.90730000  1.0
  H  H88  1  0.97910000  0.65340000  0.27390000  1.0
  H  H89  1  0.06920000  0.42800000  0.72320000  1.0
  H  H90  1  0.09690000  0.38810000  0.05320000  1.0
  H  H91  1  0.79120000  0.83490000  0.38810000  1.0
  H  H92  1  0.93080000  0.57200000  0.27680000  1.0
  H  H93  1  0.36210000  0.97810000  0.26940000  1.0
  H  H94  1  0.90310000  0.29120000  0.45630000  1.0
  H  H95  1  0.29130000  0.76940000  0.90730000  1.0
  H  H96  1  0.88400000  0.09270000  0.36210000  1.0
  H  H97  1  0.92800000  0.70480000  0.35880000  1.0
  H  H98  1  0.20520000  0.72610000  0.87950000  1.0
  H  H99  1  0.15340000  0.77390000  0.97910000  1.0
  H  H100  1  0.66510000  0.55320000  0.95630000  1.0
  H  H101  1  0.82570000  0.12050000  0.34660000  1.0
  H  H102  1  0.79520000  0.14120000  0.07200000  1.0
  H  H103  1  0.85880000  0.65400000  0.93080000  1.0
  H  H104  1  0.20480000  0.34600000  0.77680000  1.0
  H  H105  1  0.33490000  0.88810000  0.79120000  1.0
  H  H106  1  0.33490000  0.44680000  0.04370000  1.0
  H  H107  1  0.95630000  0.16510000  0.05320000  1.0
  H  H108  1  0.83490000  0.79120000  0.88810000  1.0
  H  H109  1  0.66510000  0.11190000  0.20880000  1.0
  H  H110  1  0.32570000  0.34660000  0.12050000  1.0
  H  H111  1  0.12050000  0.29480000  0.77390000  1.0
  H  H112  1  0.13790000  0.73060000  0.02190000  1.0
  H  H113  1  0.77680000  0.70480000  0.84600000  1.0
  H  H114  1  0.79480000  0.52090000  0.17430000  1.0
  H  H115  1  0.52090000  0.79480000  0.67430000  1.0
  H  H116  1  0.76940000  0.47810000  0.86210000  1.0
  H  H117  1  0.70480000  0.77680000  0.34600000  1.0
  H  H118  1  0.34660000  0.02090000  0.22610000  1.0
  H  H119  1  0.11190000  0.44680000  0.90310000  1.0
  H  H120  1  0.61600000  0.97810000  0.20870000  1.0
  H  H121  1  0.65400000  0.85880000  0.43080000  1.0
  H  H122  1  0.02090000  0.67430000  0.79480000  1.0
  H  H123  1  0.61190000  0.90310000  0.44680000  1.0
  H  H124  1  0.29520000  0.07200000  0.14120000  1.0
  H  H125  1  0.87950000  0.17430000  0.15340000  1.0
  H  H126  1  0.65340000  0.67430000  0.37950000  1.0
  H  H127  1  0.70880000  0.61190000  0.16510000  1.0
  H  H128  1  0.94680000  0.54370000  0.33490000  1.0
  H  H129  1  0.12050000  0.82570000  0.84660000  1.0
  H  H130  1  0.84660000  0.62050000  0.32570000  1.0
  H  H131  1  0.97810000  0.61600000  0.70870000  1.0
  H  H132  1  0.84600000  0.56920000  0.14120000  1.0
  H  H133  1  0.73060000  0.13790000  0.52190000  1.0
  H  H134  1  0.20480000  0.85880000  0.92800000  1.0
  H  H135  1  0.88810000  0.55320000  0.09690000  1.0
  H  H136  1  0.97810000  0.36210000  0.76940000  1.0
  H  H137  1  0.29120000  0.38810000  0.83490000  1.0
  H  H138  1  0.06920000  0.64120000  0.84600000  1.0
  H  H139  1  0.17430000  0.87950000  0.65340000  1.0
  H  H140  1  0.70870000  0.23060000  0.09270000  1.0
  H  H141  1  0.37950000  0.15340000  0.17430000  1.0
  H  H142  1  0.83490000  0.04370000  0.44680000  1.0
  H  H143  1  0.59270000  0.86210000  0.88400000  1.0
  H  H144  1  0.05320000  0.59690000  0.88810000  1.0
  H  H145  1  0.04370000  0.83490000  0.94680000  1.0
  H  H146  1  0.94680000  0.40310000  0.11190000  1.0
  H  H147  1  0.67430000  0.02090000  0.29480000  1.0
  H  H148  1  0.52090000  0.72610000  0.34660000  1.0
  H  H149  1  0.52190000  0.29130000  0.38400000  1.0
  H  H150  1  0.43080000  0.27680000  0.57200000  1.0
  H  H151  1  0.79130000  0.90730000  0.76940000  1.0
  H  H152  1  0.38400000  0.02190000  0.79130000  1.0
  H  H153  1  0.14120000  0.79520000  0.57200000  1.0
  H  H154  1  0.93080000  0.35880000  0.15400000  1.0
  H  H155  1  0.55320000  0.66510000  0.45630000  1.0
  H  H156  1  0.15400000  0.43080000  0.85880000  1.0
  H  H157  1  0.27680000  0.84600000  0.70480000  1.0
  H  H158  1  0.79480000  0.27390000  0.12050000  1.0
  H  H159  1  0.72610000  0.20520000  0.37950000  1.0
  H  H160  1  0.42800000  0.06920000  0.22320000  1.0
  H  H161  1  0.40310000  0.94680000  0.61190000  1.0
  H  H162  1  0.77390000  0.15340000  0.47910000  1.0
  H  H163  1  0.27680000  0.43080000  0.07200000  1.0
  H  H164  1  0.35880000  0.93080000  0.65400000  1.0
  H  H165  1  0.79120000  0.95630000  0.90310000  1.0
  H  H166  1  0.72320000  0.56920000  0.92800000  1.0
  H  H167  1  0.65400000  0.79520000  0.72320000  1.0
  H  H168  1  0.11190000  0.66510000  0.70880000  1.0
  H  H169  1  0.38810000  0.29120000  0.33490000  1.0
  H  H170  1  0.86210000  0.26940000  0.97810000  1.0
  H  H171  1  0.02190000  0.38400000  0.29130000  1.0
  H  H172  1  0.57200000  0.64120000  0.29520000  1.0
  H  H173  1  0.29480000  0.12050000  0.27390000  1.0
  H  H174  1  0.52190000  0.23060000  0.63790000  1.0
  H  H175  1  0.27390000  0.79480000  0.62050000  1.0
  H  H176  1  0.11600000  0.20870000  0.97810000  1.0
  H  H177  1  0.32570000  0.97910000  0.70520000  1.0
  H  H178  1  0.22610000  0.37950000  0.20520000  1.0
  H  H179  1  0.73060000  0.59270000  0.70870000  1.0
  H  H180  1  0.62050000  0.77390000  0.29480000  1.0
  H  H181  1  0.47810000  0.76940000  0.36210000  1.0
  H  H182  1  0.63790000  0.61600000  0.40730000  1.0
  H  H183  1  0.29130000  0.52190000  0.88400000  1.0
  H  H184  1  0.61190000  0.70880000  0.66510000  1.0
  H  H185  1  0.79130000  0.88400000  0.52190000  1.0
  H  H186  1  0.29480000  0.17430000  0.52090000  1.0
  H  H187  1  0.64120000  0.06920000  0.34600000  1.0
  H  H188  1  0.70520000  0.87950000  0.72610000  1.0
  H  H189  1  0.70880000  0.09690000  0.04370000  1.0
  H  H190  1  0.14120000  0.34600000  0.06920000  1.0
  H  H191  1  0.09270000  0.20870000  0.73060000  1.0
  H  H192  1  0.16510000  0.20880000  0.11190000  1.0
  C  C1  1  0.63309000  0.55914000  0.72607000  1.0
  C  C2  1  0.73766000  0.60482000  0.77740000  1.0
  C  C3  1  0.42373000  0.08334000  0.20139000  1.0
  C  C4  1  0.60482000  0.73766000  0.27740000  1.0
  C  C5  1  0.77393000  0.83307000  0.40702000  1.0
  C  C6  1  0.63530000  0.04089000  0.19963000  1.0
  C  C7  1  0.22260000  0.76234000  0.89518000  1.0
  C  C8  1  0.79861000  0.72234000  0.88195000  1.0
  C  C9  1  0.45911000  0.15874000  0.59441000  1.0
  C  C10  1  0.29499000  0.90792000  0.69537000  1.0
  C  C11  1  0.54629000  0.63148000  0.14491000  1.0
  C  C12  1  0.13807000  0.91189000  0.62392000  1.0
  C  C13  1  0.90559000  0.56433000  0.36470000  1.0
  C  C14  1  0.85509000  0.95371000  0.86852000  1.0
  C  C15  1  0.21255000  0.80463000  0.59962000  1.0
  C  C16  1  0.56433000  0.90559000  0.86470000  1.0
  C  C17  1  0.88195000  0.58334000  0.15961000  1.0
  C  C18  1  0.44086000  0.36691000  0.77393000  1.0
  C  C19  1  0.56433000  0.65874000  0.19963000  1.0
  C  C20  1  0.28797000  0.41189000  0.27382000  1.0
  C  C21  1  0.41666000  0.11805000  0.34039000  1.0
  C  C22  1  0.28797000  0.87608000  0.51415000  1.0
  C  C23  1  0.40792000  0.19537000  0.29499000  1.0
  C  C24  1  0.77766000  0.61805000  0.20139000  1.0
  C  C25  1  0.09441000  0.65874000  0.95911000  1.0
  C  C26  1  0.77740000  0.53974000  0.17258000  1.0
  C  C27  1  0.58811000  0.87608000  0.86193000  1.0
  C  C28  1  0.30463000  0.09962000  0.21255000  1.0
  C  C29  1  0.59298000  0.72607000  0.66693000  1.0
  C  C30  1  0.40702000  0.13309000  0.57395000  1.0
  C  C31  1  0.38707000  0.09208000  0.28745000  1.0
  C  C32  1  0.48657000  0.35509000  0.40138000  1.0
  C  C33  1  0.59862000  0.58519000  0.95371000  1.0
  C  C34  1  0.86193000  0.77382000  0.98585000  1.0
  C  C35  1  0.96026000  0.63284000  0.23766000  1.0
  C  C36  1  0.62392000  0.98585000  0.71203000  1.0
  C  C37  1  0.86193000  0.08811000  0.37608000  1.0
  C  C38  1  0.36716000  0.03974000  0.26234000  1.0
  C  C39  1  0.63309000  0.07395000  0.40702000  1.0
  C  C40  1  0.41481000  0.40138000  0.54629000  1.0
  C  C41  1  0.57395000  0.90702000  0.63309000  1.0
  C  C42  1  0.58519000  0.98657000  0.63148000  1.0
  C  C43  1  0.92605000  0.36691000  0.09298000  1.0
  C  C44  1  0.91189000  0.77382000  0.28797000  1.0
  C  C45  1  0.92605000  0.55914000  0.33307000  1.0
  C  C46  1  0.09962000  0.30463000  0.71255000  1.0
  C  C47  1  0.51343000  0.64491000  0.59862000  1.0
  C  C48  1  0.45371000  0.36852000  0.85509000  1.0
  C  C49  1  0.65874000  0.56433000  0.69963000  1.0
  C  C50  1  0.85509000  0.90138000  0.48657000  1.0
  C  C51  1  0.77740000  0.23766000  0.10482000  1.0
  C  C52  1  0.92373000  0.20139000  0.08334000  1.0
  C  C53  1  0.57395000  0.66693000  0.44086000  1.0
  C  C54  1  0.36193000  0.37608000  0.08811000  1.0
  C  C55  1  0.78797000  0.27382000  0.41189000  1.0
  C  C56  1  0.40559000  0.36470000  0.56433000  1.0
  C  C57  1  0.89518000  0.72260000  0.26234000  1.0
  C  C58  1  0.65874000  0.09441000  0.45911000  1.0
  C  C59  1  0.22607000  0.05914000  0.13309000  1.0
  C  C60  1  0.90702000  0.57395000  0.13309000  1.0
  C  C61  1  0.80463000  0.59208000  0.20501000  1.0
  C  C62  1  0.66693000  0.57395000  0.94086000  1.0
  C  C63  1  0.40138000  0.41481000  0.04629000  1.0
  C  C64  1  0.36852000  0.91481000  0.51343000  1.0
  C  C65  1  0.57627000  0.65961000  0.27766000  1.0
  C  C66  1  0.90559000  0.34126000  0.04089000  1.0
  C  C67  1  0.40038000  0.28745000  0.69537000  1.0
  C  C68  1  0.11293000  0.40038000  0.70501000  1.0
  C  C69  1  0.44086000  0.07395000  0.16693000  1.0
  C  C70  1  0.54629000  0.91481000  0.90138000  1.0
  C  C71  1  0.33307000  0.90702000  0.77393000  1.0
  C  C72  1  0.94086000  0.16693000  0.07395000  1.0
  C  C73  1  0.59441000  0.63530000  0.43567000  1.0
  C  C74  1  0.63148000  0.54629000  0.64491000  1.0
  C  C75  1  0.90138000  0.85509000  0.98657000  1.0
  C  C76  1  0.65961000  0.08334000  0.38195000  1.0
  C  C77  1  0.80037000  0.86470000  0.45911000  1.0
  C  C78  1  0.79499000  0.09962000  0.38707000  1.0
  C  C79  1  0.37608000  0.01415000  0.28797000  1.0
  C  C80  1  0.40792000  0.21255000  0.61293000  1.0
  C  C81  1  0.09208000  0.38707000  0.78745000  1.0
  C  C82  1  0.84126000  0.30037000  0.43567000  1.0
  C  C83  1  0.26234000  0.86716000  0.53974000  1.0
  C  C84  1  0.48657000  0.13148000  0.58519000  1.0
  C  C85  1  0.27393000  0.86691000  0.94086000  1.0
  C  C86  1  0.79499000  0.69537000  0.90792000  1.0
  C  C87  1  0.09208000  0.70501000  0.80463000  1.0
  C  C88  1  0.07627000  0.27766000  0.65961000  1.0
  C  C89  1  0.78797000  0.51415000  0.87608000  1.0
  C  C90  1  0.33307000  0.42605000  0.05914000  1.0
  C  C91  1  0.86852000  0.35509000  0.45371000  1.0
  C  C92  1  0.42605000  0.33307000  0.55914000  1.0
  C  C93  1  0.59962000  0.71255000  0.30463000  1.0
  C  C94  1  0.96026000  0.32742000  0.22260000  1.0
  C  C95  1  0.70501000  0.09208000  0.30463000  1.0
  C  C96  1  0.08519000  0.45371000  0.59862000  1.0
  C  C97  1  0.86470000  0.80037000  0.95911000  1.0
  C  C98  1  0.30037000  0.84126000  0.93567000  1.0
  C  C99  1  0.55914000  0.92605000  0.83307000  1.0
  C  C100  1  0.72260000  0.82742000  0.46026000  1.0
  C  C101  1  0.90138000  0.04629000  0.41481000  1.0
  C  C102  1  0.95371000  0.09862000  0.08519000  1.0
  C  C103  1  0.65961000  0.57627000  0.77766000  1.0
  C  C104  1  0.27740000  0.17258000  0.53974000  1.0
  C  C105  1  0.17258000  0.27740000  0.03974000  1.0
  C  C106  1  0.77393000  0.94086000  0.86691000  1.0
  C  C107  1  0.92373000  0.72234000  0.34039000  1.0
  C  C108  1  0.46026000  0.23766000  0.63284000  1.0
  C  C109  1  0.15961000  0.77766000  0.57627000  1.0
  C  C110  1  0.48585000  0.27382000  0.36193000  1.0
  C  C111  1  0.48585000  0.21203000  0.62392000  1.0
  C  C112  1  0.36193000  0.98585000  0.77382000  1.0
  C  C113  1  0.41666000  0.29861000  0.57627000  1.0
  C  C114  1  0.34039000  0.91666000  0.61805000  1.0
  C  C115  1  0.39518000  0.26234000  0.72260000  1.0
  C  C116  1  0.17258000  0.89518000  0.63284000  1.0
  C  C117  1  0.93567000  0.13530000  0.09441000  1.0
  C  C118  1  0.67258000  0.63284000  0.89518000  1.0
  C  C119  1  0.86691000  0.27393000  0.44086000  1.0
  C  C120  1  0.42373000  0.34039000  0.72234000  1.0
  C  C121  1  0.71203000  0.58811000  0.72618000  1.0
  C  C122  1  0.59862000  0.01343000  0.14491000  1.0
  C  C123  1  0.09298000  0.66693000  0.72607000  1.0
  C  C124  1  0.88707000  0.59962000  0.29499000  1.0
  C  C125  1  0.71203000  0.12392000  0.48585000  1.0
  C  C126  1  0.13309000  0.72607000  0.55914000  1.0
  C  C127  1  0.08334000  0.65961000  0.88195000  1.0
  C  C128  1  0.95911000  0.36470000  0.30037000  1.0
  C  C129  1  0.36470000  0.95911000  0.80037000  1.0
  C  C130  1  0.09298000  0.42605000  0.86691000  1.0
  C  C131  1  0.27382000  0.48585000  0.86193000  1.0
  C  C132  1  0.01343000  0.59862000  0.64491000  1.0
  C  C133  1  0.57627000  0.91666000  0.79861000  1.0
  C  C134  1  0.84039000  0.61805000  0.91666000  1.0
  C  C135  1  0.22618000  0.08811000  0.21203000  1.0
  C  C136  1  0.27382000  0.78797000  0.91189000  1.0
  C  C137  1  0.72234000  0.92373000  0.84039000  1.0
  C  C138  1  0.90792000  0.29499000  0.19537000  1.0
  C  C139  1  0.34126000  0.43567000  0.30037000  1.0
  C  C140  1  0.10482000  0.82742000  0.86716000  1.0
  C  C141  1  0.84039000  0.22234000  0.42373000  1.0
  C  C142  1  0.05914000  0.22607000  0.63309000  1.0
  C  C143  1  0.70139000  0.58334000  0.92373000  1.0
  C  C144  1  0.83307000  0.05914000  0.42605000  1.0
  C  C145  1  0.13284000  0.73766000  0.96026000  1.0
  C  C146  1  0.01343000  0.41481000  0.86852000  1.0
  C  C147  1  0.13309000  0.40702000  0.07395000  1.0
  C  C148  1  0.27766000  0.07627000  0.15961000  1.0
  C  C149  1  0.62392000  0.63807000  0.41189000  1.0
  C  C150  1  0.69963000  0.54089000  0.13530000  1.0
  C  C151  1  0.77382000  0.91189000  0.78797000  1.0
  C  C152  1  0.76234000  0.22260000  0.39518000  1.0
  C  C153  1  0.91666000  0.57627000  0.29861000  1.0
  C  C154  1  0.72234000  0.79861000  0.38195000  1.0
  C  C155  1  0.15874000  0.45911000  0.09441000  1.0
  C  C156  1  0.86716000  0.26234000  0.03974000  1.0
  C  C157  1  0.82742000  0.72260000  0.96026000  1.0
  C  C158  1  0.64491000  0.51343000  0.09862000  1.0
  C  C159  1  0.63807000  0.62392000  0.91189000  1.0
  C  C160  1  0.61805000  0.84039000  0.41666000  1.0
  C  C161  1  0.16693000  0.94086000  0.57395000  1.0
  C  C162  1  0.13807000  0.22618000  0.01415000  1.0
  C  C163  1  0.08519000  0.63148000  0.98657000  1.0
  C  C164  1  0.77382000  0.86193000  0.48585000  1.0
  C  C165  1  0.63530000  0.59441000  0.93567000  1.0
  C  C166  1  0.04629000  0.14491000  0.63148000  1.0
  C  C167  1  0.32742000  0.36716000  0.10482000  1.0
  C  C168  1  0.95911000  0.59441000  0.15874000  1.0
  C  C169  1  0.22618000  0.13807000  0.51415000  1.0
  C  C170  1  0.12392000  0.41189000  0.63807000  1.0
  C  C171  1  0.13148000  0.64491000  0.54629000  1.0
  C  C172  1  0.11805000  0.70139000  0.77766000  1.0
  C  C173  1  0.41481000  0.01343000  0.36852000  1.0
  C  C174  1  0.04089000  0.40559000  0.84126000  1.0
  C  C175  1  0.72260000  0.89518000  0.76234000  1.0
  C  C176  1  0.42605000  0.09298000  0.36691000  1.0
  C  C177  1  0.61805000  0.77766000  0.70139000  1.0
  C  C178  1  0.53974000  0.77740000  0.67258000  1.0
  C  C179  1  0.70501000  0.61293000  0.90038000  1.0
  C  C180  1  0.07627000  0.79861000  0.91666000  1.0
  C  C181  1  0.38195000  0.22234000  0.29861000  1.0
  C  C182  1  0.13284000  0.39518000  0.67258000  1.0
  C  C183  1  0.37608000  0.36193000  0.58811000  1.0
  C  C184  1  0.38195000  0.15961000  0.58334000  1.0
  C  C185  1  0.03974000  0.36716000  0.76234000  1.0
  C  C186  1  0.61293000  0.70501000  0.40038000  1.0
  C  C187  1  0.15874000  0.69963000  0.56433000  1.0
  C  C188  1  0.61293000  0.90792000  0.71255000  1.0
  C  C189  1  0.67258000  0.03974000  0.27740000  1.0
  C  C190  1  0.43567000  0.34126000  0.80037000  1.0
  C  C191  1  0.20139000  0.92373000  0.58334000  1.0
  C  C192  1  0.13530000  0.19963000  0.04089000  1.0
  C  C193  1  0.91189000  0.13807000  0.12392000  1.0
  C  C194  1  0.39518000  0.13284000  0.17258000  1.0
  C  C195  1  0.08811000  0.22618000  0.71203000  1.0
  C  C196  1  0.91481000  0.54629000  0.40138000  1.0
  C  C197  1  0.22234000  0.38195000  0.79861000  1.0
  C  C198  1  0.19963000  0.13530000  0.54089000  1.0
  C  C199  1  0.72618000  0.51415000  0.13807000  1.0
  C  C200  1  0.79861000  0.07627000  0.41666000  1.0
  C  C201  1  0.86716000  0.60482000  0.32742000  1.0
  C  C202  1  0.23766000  0.77740000  0.60482000  1.0
  C  C203  1  0.30037000  0.45911000  0.86470000  1.0
  C  C204  1  0.63148000  0.08519000  0.48657000  1.0
  C  C205  1  0.59441000  0.95911000  0.65874000  1.0
  C  C206  1  0.09862000  0.14491000  0.01343000  1.0
  C  C207  1  0.51415000  0.72618000  0.63807000  1.0
  C  C208  1  0.29861000  0.41666000  0.07627000  1.0
  C  C209  1  0.01415000  0.37608000  0.78797000  1.0
  C  C210  1  0.40702000  0.27393000  0.33307000  1.0
  C  C211  1  0.14491000  0.04629000  0.13148000  1.0
  C  C212  1  0.63284000  0.67258000  0.39518000  1.0
  C  C213  1  0.93567000  0.80037000  0.34126000  1.0
  C  C214  1  0.54089000  0.69963000  0.63530000  1.0
  C  C215  1  0.83307000  0.77393000  0.90702000  1.0
  C  C216  1  0.98657000  0.40138000  0.35509000  1.0
  C  C217  1  0.77766000  0.15961000  0.07627000  1.0
  C  C218  1  0.69963000  0.15874000  0.06433000  1.0
  C  C219  1  0.41189000  0.12392000  0.13807000  1.0
  C  C220  1  0.98585000  0.36193000  0.27382000  1.0
  C  C221  1  0.29499000  0.38707000  0.09962000  1.0
  C  C222  1  0.06433000  0.86470000  0.90559000  1.0
  C  C223  1  0.13148000  0.48657000  0.08519000  1.0
  C  C224  1  0.36691000  0.92605000  0.59298000  1.0
  C  C225  1  0.01415000  0.63807000  0.72618000  1.0
  C  C226  1  0.90038000  0.69537000  0.28745000  1.0
  C  C227  1  0.53974000  0.76234000  0.36716000  1.0
  C  C228  1  0.34126000  0.90559000  0.54089000  1.0
  C  C229  1  0.11293000  0.71255000  0.90792000  1.0
  C  C230  1  0.40559000  0.04089000  0.34126000  1.0
  C  C231  1  0.90702000  0.33307000  0.27393000  1.0
  C  C232  1  0.58811000  0.71203000  0.22618000  1.0
  C  C233  1  0.20139000  0.27766000  0.11805000  1.0
  C  C234  1  0.69537000  0.90038000  0.78745000  1.0
  C  C235  1  0.66693000  0.09298000  0.22607000  1.0
  C  C236  1  0.87608000  0.58811000  0.36193000  1.0
  C  C237  1  0.27393000  0.40702000  0.83307000  1.0
  C  C238  1  0.70139000  0.11805000  0.27766000  1.0
  C  C239  1  0.35509000  0.48657000  0.90138000  1.0
  C  C240  1  0.40038000  0.11293000  0.20501000  1.0
  C  C241  1  0.76234000  0.53974000  0.86716000  1.0
  C  C242  1  0.07395000  0.44086000  0.66693000  1.0
  C  C243  1  0.80463000  0.21255000  0.09962000  1.0
  C  C244  1  0.21203000  0.48585000  0.12392000  1.0
  C  C245  1  0.04629000  0.90138000  0.91481000  1.0
  C  C246  1  0.27766000  0.20139000  0.61805000  1.0
  C  C247  1  0.12392000  0.71203000  0.98585000  1.0
  C  C248  1  0.15961000  0.38195000  0.08334000  1.0
  C  C249  1  0.54089000  0.84126000  0.40559000  1.0
  C  C250  1  0.07395000  0.63309000  0.90702000  1.0
  C  C251  1  0.71255000  0.11293000  0.40792000  1.0
  C  C252  1  0.46026000  0.22260000  0.32742000  1.0
  C  C253  1  0.10482000  0.27740000  0.73766000  1.0
  C  C254  1  0.29861000  0.88195000  0.72234000  1.0
  C  C255  1  0.36470000  0.40559000  0.06433000  1.0
  C  C256  1  0.06433000  0.19963000  0.65874000  1.0
  C  C257  1  0.90792000  0.61293000  0.21255000  1.0
  C  C258  1  0.14491000  0.09862000  0.51343000  1.0
  C  C259  1  0.84126000  0.54089000  0.90559000  1.0
  C  C260  1  0.51415000  0.78797000  0.37608000  1.0
  C  C261  1  0.34039000  0.42373000  0.22234000  1.0
  C  C262  1  0.78745000  0.59208000  0.88707000  1.0
  C  C263  1  0.55914000  0.63309000  0.22607000  1.0
  C  C264  1  0.20501000  0.30463000  0.09208000  1.0
  C  C265  1  0.41189000  0.28797000  0.77382000  1.0
  C  C266  1  0.63807000  0.01415000  0.22618000  1.0
  C  C267  1  0.20501000  0.90038000  0.61293000  1.0
  C  C268  1  0.98585000  0.62392000  0.21203000  1.0
  C  C269  1  0.22260000  0.46026000  0.82742000  1.0
  C  C270  1  0.09962000  0.79499000  0.88707000  1.0
  C  C271  1  0.26234000  0.39518000  0.22260000  1.0
  C  C272  1  0.86691000  0.59298000  0.92605000  1.0
  C  C273  1  0.58519000  0.59862000  0.45371000  1.0
  C  C274  1  0.89518000  0.17258000  0.13284000  1.0
  C  C275  1  0.58334000  0.88195000  0.65961000  1.0
  C  C276  1  0.90038000  0.20501000  0.11293000  1.0
  C  C277  1  0.88707000  0.28745000  0.09208000  1.0
  C  C278  1  0.19537000  0.40792000  0.79499000  1.0
  C  C279  1  0.05914000  0.83307000  0.92605000  1.0
  C  C280  1  0.40138000  0.98657000  0.85509000  1.0
  C  C281  1  0.28745000  0.88707000  0.59208000  1.0
  C  C282  1  0.36691000  0.44086000  0.27393000  1.0
  C  C283  1  0.28745000  0.40038000  0.19537000  1.0
  C  C284  1  0.95371000  0.85509000  0.36852000  1.0
  C  C285  1  0.36852000  0.45371000  0.35509000  1.0
  C  C286  1  0.58334000  0.70139000  0.42373000  1.0
  C  C287  1  0.91481000  0.36852000  0.01343000  1.0
  C  C288  1  0.19963000  0.06433000  0.15874000  1.0
  C  C289  1  0.35509000  0.86852000  0.95371000  1.0
  C  C290  1  0.59208000  0.78745000  0.38707000  1.0
  C  C291  1  0.19537000  0.78745000  0.90038000  1.0
  C  C292  1  0.21203000  0.72618000  0.58811000  1.0
  C  C293  1  0.87608000  0.28797000  0.01415000  1.0
  C  C294  1  0.30463000  0.20501000  0.59208000  1.0
  C  C295  1  0.22234000  0.84039000  0.92373000  1.0
  C  C296  1  0.72607000  0.59298000  0.16693000  1.0
  C  C297  1  0.23766000  0.46026000  0.13284000  1.0
  C  C298  1  0.86470000  0.06433000  0.40559000  1.0
  C  C299  1  0.27740000  0.10482000  0.23766000  1.0
  C  C300  1  0.60482000  0.86716000  0.82742000  1.0
  C  C301  1  0.45371000  0.08519000  0.09862000  1.0
  C  C302  1  0.03974000  0.67258000  0.77740000  1.0
  C  C303  1  0.32742000  0.96026000  0.72260000  1.0
  C  C304  1  0.63284000  0.96026000  0.73766000  1.0
  C  C305  1  0.86852000  0.51343000  0.91481000  1.0
  C  C306  1  0.11805000  0.41666000  0.84039000  1.0
  C  C307  1  0.72607000  0.13309000  0.05914000  1.0
  C  C308  1  0.36716000  0.32742000  0.60482000  1.0
  C  C309  1  0.59298000  0.86691000  0.42605000  1.0
  C  C310  1  0.13530000  0.93567000  0.59441000  1.0
  C  C311  1  0.51343000  0.86852000  0.41481000  1.0
  C  C312  1  0.21255000  0.40792000  0.11293000  1.0
  C  C313  1  0.04089000  0.63530000  0.69963000  1.0
  C  C314  1  0.80037000  0.93567000  0.84126000  1.0
  C  C315  1  0.43567000  0.09441000  0.13530000  1.0
  C  C316  1  0.69537000  0.79499000  0.40792000  1.0
  C  C317  1  0.88195000  0.29861000  0.22234000  1.0
  C  C318  1  0.09441000  0.43567000  0.63530000  1.0
  C  C319  1  0.38707000  0.29499000  0.59962000  1.0
  C  C320  1  0.94086000  0.77393000  0.36691000  1.0
  C  C321  1  0.64491000  0.13148000  0.04629000  1.0
  C  C322  1  0.09862000  0.95371000  0.58519000  1.0
  C  C323  1  0.08334000  0.42373000  0.70139000  1.0
  C  C324  1  0.78745000  0.19537000  0.40038000  1.0
  C  C325  1  0.72618000  0.21203000  0.08811000  1.0
  C  C326  1  0.59962000  0.88707000  0.79499000  1.0
  C  C327  1  0.82742000  0.10482000  0.36716000  1.0
  C  C328  1  0.59208000  0.80463000  0.70501000  1.0
  C  C329  1  0.08811000  0.86193000  0.87608000  1.0
  C  C330  1  0.22607000  0.16693000  0.59298000  1.0
  C  C331  1  0.91666000  0.34039000  0.11805000  1.0
  C  C332  1  0.73766000  0.13284000  0.46026000  1.0
  C  C333  1  0.16693000  0.22607000  0.09298000  1.0
  C  C334  1  0.98657000  0.58519000  0.13148000  1.0
  C  C335  1  0.45911000  0.30037000  0.36470000  1.0
  C  C336  1  0.71255000  0.59962000  0.80463000  1.0
  N  N1  1  0.88160000  0.96405000  0.91683000  1.0
  N  N2  1  0.44609000  0.44995000  0.52072000  1.0
  N  N3  1  0.53697000  0.15252000  0.61459000  1.0
  N  N4  1  0.54727000  0.95330000  0.06903000  1.0
  N  N5  1  0.57077000  0.49614000  0.05005000  1.0
  N  N6  1  0.03523000  0.45278000  0.91683000  1.0
  N  N7  1  0.45273000  0.40603000  0.02176000  1.0
  N  N8  1  0.88160000  0.91755000  0.46477000  1.0
  N  N9  1  0.46207000  0.34748000  0.88445000  1.0
  N  N10  1  0.93097000  0.95273000  0.54670000  1.0
  N  N11  1  0.03595000  0.11840000  0.58317000  1.0
  N  N12  1  0.03697000  0.61459000  0.15252000  1.0
  N  N13  1  0.97928000  0.92923000  0.42537000  1.0
  N  N14  1  0.96477000  0.41755000  0.38160000  1.0
  N  N15  1  0.57762000  0.96303000  0.11555000  1.0
  N  N16  1  0.96477000  0.54722000  0.08317000  1.0
  N  N17  1  0.61573000  0.09397000  0.54670000  1.0
  N  N18  1  0.46477000  0.38160000  0.41755000  1.0
  N  N19  1  0.53523000  0.61840000  0.58245000  1.0
  N  N20  1  0.59397000  0.54727000  0.47824000  1.0
  N  N21  1  0.94995000  0.02072000  0.44609000  1.0
  N  N22  1  0.96207000  0.07762000  0.11459000  1.0
  N  N23  1  0.34748000  0.88541000  0.46303000  1.0
  N  N24  1  0.47928000  0.42537000  0.92923000  1.0
  N  N25  1  0.04727000  0.06903000  0.95330000  1.0
  N  N26  1  0.45330000  0.56903000  0.54727000  1.0
  N  N27  1  0.96303000  0.38541000  0.84748000  1.0
  N  N28  1  0.03793000  0.11555000  0.65252000  1.0
  N  N29  1  0.61459000  0.03697000  0.65252000  1.0
  N  N30  1  0.45278000  0.41755000  0.53595000  1.0
  N  N31  1  0.88541000  0.34748000  0.96303000  1.0
  N  N32  1  0.52072000  0.57463000  0.07077000  1.0
  N  N33  1  0.57077000  0.07463000  0.02072000  1.0
  N  N34  1  0.92537000  0.42923000  0.47928000  1.0
  N  N35  1  0.02176000  0.95273000  0.90603000  1.0
  N  N36  1  0.38445000  0.53697000  0.92238000  1.0
  N  N37  1  0.58245000  0.03523000  0.11840000  1.0
  N  N38  1  0.55005000  0.99614000  0.07077000  1.0
  N  N39  1  0.88427000  0.45330000  0.90603000  1.0
  N  N40  1  0.96405000  0.08245000  0.04722000  1.0
  N  N41  1  0.15252000  0.61555000  0.53793000  1.0
  N  N42  1  0.11573000  0.54670000  0.09397000  1.0
  N  N43  1  0.45278000  0.03523000  0.41683000  1.0
  N  N44  1  0.38160000  0.91683000  0.96405000  1.0
  N  N45  1  0.42923000  0.50386000  0.94995000  1.0
  N  N46  1  0.91755000  0.03595000  0.45278000  1.0
  N  N47  1  0.07762000  0.11555000  0.96303000  1.0
  N  N48  1  0.55391000  0.55005000  0.47928000  1.0
  N  N49  1  0.07463000  0.57077000  0.52072000  1.0
  N  N50  1  0.59397000  0.04670000  0.61573000  1.0
  N  N51  1  0.58317000  0.04722000  0.46477000  1.0
  N  N52  1  0.08317000  0.61840000  0.53595000  1.0
  N  N53  1  0.38160000  0.46477000  0.91755000  1.0
  N  N54  1  0.08245000  0.11840000  0.03523000  1.0
  N  N55  1  0.03793000  0.92238000  0.88541000  1.0
  N  N56  1  0.88445000  0.96207000  0.84748000  1.0
  N  N57  1  0.94609000  0.52072000  0.44995000  1.0
  N  N58  1  0.93097000  0.97824000  0.88427000  1.0
  N  N59  1  0.57463000  0.05391000  0.50386000  1.0
  N  N60  1  0.02176000  0.06903000  0.61573000  1.0
  N  N61  1  0.46477000  0.08317000  0.54722000  1.0
  N  N62  1  0.07762000  0.96207000  0.61459000  1.0
  N  N63  1  0.61573000  0.52176000  0.56903000  1.0
  N  N64  1  0.38427000  0.47824000  0.43097000  1.0
  N  N65  1  0.52072000  0.94609000  0.94995000  1.0
  N  N66  1  0.04670000  0.45273000  0.43097000  1.0
  N  N67  1  0.40603000  0.45273000  0.52176000  1.0
  N  N68  1  0.56903000  0.11573000  0.02176000  1.0
  N  N69  1  0.45330000  0.88427000  0.40603000  1.0
  N  N70  1  0.49614000  0.57077000  0.55005000  1.0
  N  N71  1  0.42537000  0.47928000  0.42923000  1.0
  N  N72  1  0.58245000  0.54722000  0.96405000  1.0
  N  N73  1  0.95330000  0.54727000  0.56903000  1.0
  N  N74  1  0.11555000  0.03793000  0.15252000  1.0
  N  N75  1  0.97824000  0.04727000  0.09397000  1.0
  N  N76  1  0.02072000  0.94995000  0.94609000  1.0
  N  N77  1  0.47928000  0.05391000  0.05005000  1.0
  N  N78  1  0.54722000  0.58245000  0.46405000  1.0
  N  N79  1  0.47824000  0.09397000  0.04727000  1.0
  N  N80  1  0.38541000  0.42238000  0.53793000  1.0
  N  N81  1  0.04727000  0.97824000  0.59397000  1.0
  N  N82  1  0.88445000  0.92238000  0.53697000  1.0
  N  N83  1  0.95330000  0.40603000  0.88427000  1.0
  N  N84  1  0.53523000  0.91683000  0.45278000  1.0
  N  N85  1  0.04722000  0.58317000  0.96477000  1.0
  N  N86  1  0.07463000  0.50386000  0.05391000  1.0
  N  N87  1  0.95273000  0.02176000  0.40603000  1.0
  N  N88  1  0.08245000  0.96405000  0.54722000  1.0
  N  N89  1  0.11459000  0.65252000  0.03697000  1.0
  N  N90  1  0.88541000  0.53793000  0.42238000  1.0
  N  N91  1  0.92923000  0.97928000  0.92537000  1.0
  N  N92  1  0.61555000  0.15252000  0.03793000  1.0
  N  N93  1  0.97824000  0.93097000  0.38427000  1.0
  N  N94  1  0.94995000  0.92923000  0.00386000  1.0
  N  N95  1  0.57463000  0.52072000  0.57077000  1.0
  N  N96  1  0.42238000  0.03697000  0.88445000  1.0
  N  N97  1  0.54670000  0.11573000  0.59397000  1.0
  N  N98  1  0.55005000  0.55391000  0.97928000  1.0
  N  N99  1  0.90603000  0.38427000  0.95330000  1.0
  N  N100  1  0.04722000  0.46405000  0.58245000  1.0
  N  N101  1  0.38445000  0.84748000  0.96207000  1.0
  N  N102  1  0.54670000  0.43097000  0.45273000  1.0
  N  N103  1  0.46303000  0.84748000  0.38541000  1.0
  N  N104  1  0.43097000  0.54670000  0.95273000  1.0
  N  N105  1  0.90603000  0.52176000  0.45273000  1.0
  N  N106  1  0.94609000  0.42537000  0.99614000  1.0
  N  N107  1  0.84748000  0.46303000  0.88541000  1.0
  N  N108  1  0.46207000  0.11459000  0.07762000  1.0
  N  N109  1  0.40603000  0.95330000  0.38427000  1.0
  N  N110  1  0.95278000  0.41683000  0.03523000  1.0
  N  N111  1  0.05391000  0.47928000  0.55005000  1.0
  N  N112  1  0.52176000  0.90603000  0.95273000  1.0
  N  N113  1  0.41683000  0.95278000  0.53523000  1.0
  N  N114  1  0.99614000  0.55005000  0.57077000  1.0
  N  N115  1  0.65252000  0.53793000  0.61555000  1.0
  N  N116  1  0.65252000  0.11459000  0.53697000  1.0
  N  N117  1  0.09397000  0.61573000  0.04670000  1.0
  N  N118  1  0.15252000  0.53697000  0.11459000  1.0
  N  N119  1  0.08317000  0.46477000  0.04722000  1.0
  N  N120  1  0.07077000  0.02072000  0.07463000  1.0
  N  N121  1  0.11555000  0.07762000  0.46303000  1.0
  N  N122  1  0.91683000  0.38160000  0.46405000  1.0
  N  N123  1  0.56903000  0.45330000  0.04727000  1.0
  N  N124  1  0.61459000  0.57762000  0.46207000  1.0
  N  N125  1  0.53595000  0.95278000  0.91755000  1.0
  N  N126  1  0.46303000  0.61555000  0.57762000  1.0
  N  N127  1  0.44995000  0.00386000  0.92923000  1.0
  N  N128  1  0.38541000  0.96303000  0.34748000  1.0
  N  N129  1  0.50386000  0.42923000  0.44995000  1.0
  N  N130  1  0.54722000  0.96477000  0.58317000  1.0
  N  N131  1  0.41755000  0.45278000  0.03595000  1.0
  N  N132  1  0.53697000  0.38445000  0.42238000  1.0
  N  N133  1  0.99614000  0.44609000  0.92537000  1.0
  N  N134  1  0.03595000  0.91755000  0.95278000  1.0
  N  N135  1  0.53595000  0.58317000  0.11840000  1.0
  N  N136  1  0.05005000  0.07077000  0.99614000  1.0
  N  N137  1  0.41683000  0.46405000  0.38160000  1.0
  N  N138  1  0.91683000  0.53523000  0.95278000  1.0
  N  N139  1  0.95278000  0.53595000  0.41755000  1.0
  N  N140  1  0.97928000  0.05005000  0.05391000  1.0
  N  N141  1  0.09397000  0.47824000  0.54727000  1.0
  N  N142  1  0.03697000  0.42238000  0.38445000  1.0
  N  N143  1  0.92238000  0.88445000  0.03697000  1.0
  N  N144  1  0.61840000  0.08317000  0.03595000  1.0
  N  N145  1  0.92923000  0.94995000  0.50386000  1.0
  N  N146  1  0.44609000  0.99614000  0.42537000  1.0
  N  N147  1  0.61555000  0.46303000  0.07762000  1.0
  N  N148  1  0.43097000  0.88427000  0.97824000  1.0
  N  N149  1  0.54727000  0.59397000  0.97824000  1.0
  N  N150  1  0.53793000  0.88541000  0.92238000  1.0
  N  N151  1  0.61840000  0.53523000  0.08245000  1.0
  N  N152  1  0.91755000  0.88160000  0.96477000  1.0
  N  N153  1  0.04670000  0.59397000  0.11573000  1.0
  N  N154  1  0.03523000  0.58245000  0.61840000  1.0
  N  N155  1  0.42238000  0.38541000  0.03793000  1.0
  N  N156  1  0.34748000  0.46207000  0.38445000  1.0
  N  N157  1  0.05005000  0.97928000  0.55391000  1.0
  N  N158  1  0.06903000  0.04727000  0.45330000  1.0
  N  N159  1  0.53793000  0.65252000  0.11555000  1.0
  N  N160  1  0.50386000  0.07463000  0.55391000  1.0
  N  N161  1  0.00386000  0.44995000  0.42923000  1.0
  N  N162  1  0.46405000  0.41683000  0.88160000  1.0
  N  N163  1  0.06903000  0.02176000  0.11573000  1.0
  N  N164  1  0.46405000  0.04722000  0.08245000  1.0
  N  N165  1  0.05391000  0.57463000  0.00386000  1.0
  N  N166  1  0.02072000  0.07077000  0.57463000  1.0
  N  N167  1  0.88427000  0.43097000  0.47824000  1.0
  N  N168  1  0.52176000  0.61573000  0.06903000  1.0
  N  N169  1  0.47824000  0.38427000  0.93097000  1.0
  N  N170  1  0.92238000  0.03793000  0.38541000  1.0
  N  N171  1  0.11459000  0.46207000  0.57762000  1.0
  N  N172  1  0.44995000  0.44609000  0.02072000  1.0
  N  N173  1  0.38427000  0.90603000  0.45330000  1.0
  N  N174  1  0.00386000  0.55391000  0.07463000  1.0
  N  N175  1  0.45273000  0.04670000  0.93097000  1.0
  N  N176  1  0.41755000  0.96477000  0.88160000  1.0
  N  N177  1  0.96405000  0.88160000  0.41683000  1.0
  N  N178  1  0.92537000  0.49614000  0.94609000  1.0
  N  N179  1  0.42537000  0.94609000  0.49614000  1.0
  N  N180  1  0.96207000  0.88445000  0.34748000  1.0
  N  N181  1  0.11573000  0.56903000  0.52176000  1.0
  N  N182  1  0.55391000  0.00386000  0.57463000  1.0
  N  N183  1  0.96303000  0.57762000  0.61555000  1.0
  N  N184  1  0.57762000  0.61459000  0.96207000  1.0
  N  N185  1  0.49614000  0.92537000  0.44609000  1.0
  N  N186  1  0.11840000  0.03595000  0.08317000  1.0
  N  N187  1  0.84748000  0.38445000  0.46207000  1.0
  N  N188  1  0.58317000  0.53595000  0.61840000  1.0
  N  N189  1  0.07077000  0.05005000  0.49614000  1.0
  N  N190  1  0.11840000  0.08245000  0.53523000  1.0
  N  N191  1  0.95273000  0.93097000  0.04670000  1.0
  N  N192  1  0.42923000  0.92537000  0.97928000  1.0
