# generated using pymatgen
data_H6C6N
_symmetry_space_group_name_H-M   'P 1'
_cell_length_a   54.03380000
_cell_length_b   64.18670000
_cell_length_c   64.18670000
_cell_angle_alpha   120.00000000
_cell_angle_beta   90.00000000
_cell_angle_gamma   90.00000000
_symmetry_Int_Tables_number   1
_chemical_formula_structural   H6C6N
_chemical_formula_sum   'H864 C864 N144'
_cell_volume   192790.77041184
_cell_formula_units_Z   144
loop_
 _symmetry_equiv_pos_site_id
 _symmetry_equiv_pos_as_xyz
  1  'x, y, z'
loop_
 _atom_site_type_symbol
 _atom_site_label
 _atom_site_symmetry_multiplicity
 _atom_site_fract_x
 _atom_site_fract_y
 _atom_site_fract_z
 _atom_site_occupancy
  H  7  1  0.86347300  0.62832400  0.10942300  1
  H  16  1  0.93545100  0.64131500  0.09675300  1
  H  17  1  0.94134900  0.54547200  0.06129100  1
  H  18  1  0.95691900  0.55941100  0.04990100  1
  H  19  1  0.85379100  0.71827000  0.18442100  1
  H  20  1  0.82996300  0.70151300  0.16942500  1
  H  21  1  0.92445000  0.67051400  0.14769300  1
  H  22  1  0.89326300  0.60454600  0.12331900  1
  H  33  1  0.86347800  0.39572300  0.36611000  1
  H  42  1  0.93545900  0.37009200  0.35316300  1
  H  43  1  0.94124300  0.43051100  0.44900400  1
  H  44  1  0.95681500  0.40518300  0.43509500  1
  H  45  1  0.85379300  0.38079100  0.27617000  1
  H  46  1  0.82996600  0.38254100  0.29292300  1
  H  47  1  0.92445200  0.39183800  0.32393000  1
  H  48  1  0.89323100  0.43340800  0.38985600  1
  H  59  1  0.86349800  0.88502300  0.59868200  1
  H  68  1  0.93553900  0.89763100  0.62424800  1
  H  69  1  0.94141400  0.93308900  0.56384100  1
  H  70  1  0.95701600  0.94446500  0.58914300  1
  H  71  1  0.85383700  0.80997100  0.61354800  1
  H  72  1  0.83000600  0.82497800  0.61181400  1
  H  73  1  0.92448500  0.84672800  0.60253700  1
  H  74  1  0.89321400  0.87115000  0.56100700  1
  H  85  1  0.36347500  0.31113600  0.94003700  1
  H  94  1  0.43545400  0.29813800  0.95272400  1
  H  95  1  0.44143500  0.39397500  0.98812800  1
  H  96  1  0.45701400  0.38005700  0.99953300  1
  H  97  1  0.35382000  0.22116800  0.86506700  1
  H  98  1  0.32998800  0.23792200  0.88005600  1
  H  99  1  0.42446800  0.26894100  0.90181400  1
  H  100  1  0.39327300  0.33490600  0.92615600  1
  H  111  1  0.36347800  0.54364100  0.68332500  1
  H  120  1  0.43545500  0.56928900  0.69629700  1
  H  121  1  0.44127200  0.50893100  0.60044800  1
  H  122  1  0.45682700  0.53426800  0.61437700  1
  H  123  1  0.35379700  0.55860100  0.77327600  1
  H  124  1  0.32997000  0.55684500  0.75652000  1
  H  125  1  0.42445500  0.54754900  0.72551000  1
  H  126  1  0.39326700  0.50595200  0.65955100  1
  H  137  1  0.36343400  0.05437700  0.45081800  1
  H  146  1  0.43542000  0.04171300  0.42515100  1
  H  147  1  0.44134100  0.00627400  0.48555100  1
  H  148  1  0.45691200  0.99488300  0.46022100  1
  H  149  1  0.35374700  0.12937900  0.43587500  1
  H  150  1  0.32992000  0.11438600  0.43764100  1
  H  151  1  0.42440900  0.09264600  0.44688700  1
  H  152  1  0.39321000  0.06826400  0.48847100  1
  H  163  1  0.16154900  0.54310700  0.94078900  1
  H  172  1  0.09223300  0.57085000  0.95580100  1
  H  173  1  0.08742700  0.51075500  0.99122400  1
  H  174  1  0.07584000  0.53798800  0.00467500  1
  H  175  1  0.17188000  0.55795600  0.86575600  1
  H  176  1  0.19559100  0.55624100  0.88090500  1
  H  177  1  0.10089300  0.54713400  0.90224200  1
  H  178  1  0.12974500  0.50452300  0.92485400  1
  H  189  1  0.16161800  0.05367200  0.68209600  1
  H  198  1  0.09228300  0.03865100  0.69483800  1
  H  199  1  0.08758600  0.00316400  0.59933900  1
  H  200  1  0.07594000  0.98970400  0.61310300  1
  H  201  1  0.17189100  0.12866700  0.77200600  1
  H  202  1  0.19561100  0.11353800  0.75514800  1
  H  203  1  0.10093000  0.09215000  0.72465900  1
  H  204  1  0.12978400  0.06957600  0.65943300  1
  H  215  1  0.16153300  0.31236700  0.45137000  1
  H  224  1  0.09220700  0.29962500  0.42363000  1
  H  225  1  0.08752700  0.39510900  0.48362700  1
  H  226  1  0.07593600  0.38128900  0.45637700  1
  H  227  1  0.17183500  0.22246000  0.43645700  1
  H  228  1  0.19555200  0.23932000  0.43817600  1
  H  229  1  0.10086500  0.26980100  0.44733500  1
  H  230  1  0.12971000  0.33504000  0.48995900  1
  H  241  1  0.66156000  0.39634900  0.10871100  1
  H  250  1  0.59224600  0.36856400  0.09367500  1
  H  251  1  0.58759900  0.42860200  0.05824400  1
  H  252  1  0.57602700  0.40134500  0.04479400  1
  H  253  1  0.67189800  0.38133700  0.18363900  1
  H  254  1  0.69560500  0.38308700  0.16851100  1
  H  255  1  0.60090700  0.39223300  0.14721300  1
  H  256  1  0.62974100  0.43490000  0.12464500  1
  H  267  1  0.66151900  0.88574300  0.36740500  1
  H  276  1  0.59221800  0.90076600  0.35470000  1
  H  277  1  0.58736600  0.93609100  0.45020500  1
  H  278  1  0.57579500  0.94957100  0.43644500  1
  H  279  1  0.67184800  0.81072200  0.27751500  1
  H  280  1  0.69555900  0.82587400  0.29437500  1
  H  281  1  0.60086500  0.84718200  0.32483800  1
  H  282  1  0.62971900  0.86976700  0.39003800  1
  H  293  1  0.66163200  0.62707000  0.59818000  1
  H  302  1  0.59229100  0.63980500  0.62594000  1
  H  303  1  0.58754200  0.54431200  0.56586800  1
  H  304  1  0.57588200  0.55806500  0.59308700  1
  H  305  1  0.67190000  0.71697900  0.61308800  1
  H  306  1  0.69562200  0.70012300  0.61136100  1
  H  307  1  0.60094300  0.66963200  0.60226000  1
  H  308  1  0.62980200  0.60441600  0.55961400  1
  H  319  1  0.16258600  0.31349200  0.93958800  1
  H  328  1  0.08925200  0.30042300  0.95283400  1
  H  329  1  0.09170000  0.39665300  0.99657400  1
  H  330  1  0.07409300  0.38223900  0.00590300  1
  H  331  1  0.17045100  0.21981600  0.87394700  1
  H  332  1  0.19438800  0.23718700  0.88675100  1
  H  333  1  0.10056700  0.27087200  0.90508300  1
  H  334  1  0.13390700  0.33855000  0.92948300  1
  H  345  1  0.16255000  0.54076800  0.68092800  1
  H  354  1  0.08936500  0.56728900  0.69401300  1
  H  355  1  0.09178000  0.51467900  0.59779400  1
  H  356  1  0.07428500  0.53850700  0.61218600  1
  H  357  1  0.17047100  0.56884700  0.77461200  1
  H  358  1  0.19439900  0.56424600  0.75722200  1
  H  359  1  0.10055400  0.54898000  0.72360600  1
  H  360  1  0.13376800  0.50561200  0.65595000  1
  H  371  1  0.16251900  0.05485200  0.45372200  1
  H  380  1  0.08929400  0.04150000  0.42727700  1
  H  381  1  0.09142800  0.99793100  0.48000300  1
  H  382  1  0.07395400  0.98851700  0.45618300  1
  H  383  1  0.17045800  0.12061100  0.42582400  1
  H  384  1  0.19437500  0.10779200  0.43039300  1
  H  385  1  0.10051900  0.08934400  0.44555600  1
  H  386  1  0.13377000  0.06500500  0.48888900  1
  H  397  1  0.66256300  0.62589900  0.10988500  1
  H  406  1  0.58932400  0.63897700  0.09653500  1
  H  407  1  0.59162600  0.54273400  0.05293100  1
  H  408  1  0.57406300  0.55709100  0.04351800  1
  H  409  1  0.67046900  0.71957200  0.17558100  1
  H  410  1  0.69438800  0.70218400  0.16276700  1
  H  411  1  0.60055000  0.66854000  0.14436600  1
  H  412  1  0.63381500  0.60088300  0.12004300  1
  H  423  1  0.66258200  0.39866500  0.36856200  1
  H  432  1  0.58923500  0.37236500  0.35549600  1
  H  433  1  0.59166500  0.42487200  0.45172600  1
  H  434  1  0.57403700  0.40114600  0.43731400  1
  H  435  1  0.67044900  0.37061800  0.27488300  1
  H  436  1  0.69438400  0.37518100  0.29225300  1
  H  437  1  0.60056500  0.39055200  0.32594100  1
  H  438  1  0.63391100  0.43382700  0.39361800  1
  H  449  1  0.66258900  0.88452200  0.59578700  1
  H  458  1  0.58934800  0.89791400  0.62225000  1
  H  459  1  0.59178500  0.94156600  0.56967900  1
  H  460  1  0.57423900  0.95096200  0.59347000  1
  H  461  1  0.67047100  0.81893000  0.62388300  1
  H  462  1  0.69440600  0.83171200  0.61928400  1
  H  463  1  0.60057600  0.85007400  0.60399400  1
  H  464  1  0.63384800  0.87439100  0.56064800  1
  H  475  1  0.86280800  0.39834100  0.10907000  1
  H  484  1  0.93456100  0.37116400  0.09412900  1
  H  485  1  0.93479000  0.42819600  0.05516300  1
  H  486  1  0.94916700  0.40240600  0.04356800  1
  H  487  1  0.85444800  0.36925900  0.17393200  1
  H  488  1  0.83058700  0.37382800  0.16103100  1
  H  489  1  0.92453200  0.38983200  0.14362400  1
  H  490  1  0.89198400  0.43434600  0.12142000  1
  H  501  1  0.86274600  0.88538200  0.36901900  1
  H  510  1  0.93456100  0.90030300  0.35679900  1
  H  511  1  0.93460300  0.93939700  0.45278400  1
  H  512  1  0.94909900  0.95094700  0.43859800  1
  H  513  1  0.85446200  0.82058900  0.27505800  1
  H  514  1  0.83059100  0.83348000  0.29252000  1
  H  515  1  0.92450400  0.85087000  0.32599400  1
  H  516  1  0.89188900  0.87310500  0.39271800  1
  H  527  1  0.86284700  0.62544600  0.59623000  1
  H  536  1  0.93470000  0.63754700  0.62322100  1
  H  537  1  0.93449600  0.54157700  0.56627600  1
  H  538  1  0.94905200  0.55573400  0.59198500  1
  H  539  1  0.85461300  0.71940300  0.62543300  1
  H  540  1  0.83072700  0.70196400  0.62089300  1
  H  541  1  0.92461200  0.66841900  0.60460400  1
  H  542  1  0.89191200  0.60174400  0.56016900  1
  H  553  1  0.36279200  0.54110400  0.94040500  1
  H  562  1  0.43458400  0.56828500  0.95535500  1
  H  563  1  0.43451900  0.51144400  0.99447900  1
  H  564  1  0.44900400  0.53718900  0.00600400  1
  H  565  1  0.35448600  0.57032100  0.87566400  1
  H  566  1  0.33060800  0.56573700  0.88854300  1
  H  567  1  0.42452900  0.54962600  0.90587400  1
  H  568  1  0.39194200  0.50514400  0.92812200  1
  H  579  1  0.36284900  0.05405600  0.68046900  1
  H  588  1  0.43461200  0.03911200  0.69269300  1
  H  589  1  0.43486500  0.00018200  0.59669400  1
  H  590  1  0.44924300  0.98858000  0.61088400  1
  H  591  1  0.35451000  0.11889100  0.77442000  1
  H  592  1  0.33064500  0.10599500  0.75695500  1
  H  593  1  0.42458100  0.08861100  0.72352000  1
  H  594  1  0.39201800  0.06640100  0.65680900  1
  H  605  1  0.36275500  0.31398200  0.45337600  1
  H  614  1  0.43454700  0.30171900  0.42620500  1
  H  615  1  0.43466700  0.39770100  0.48307300  1
  H  616  1  0.44913900  0.38349300  0.45732600  1
  H  617  1  0.35443800  0.22002000  0.42420300  1
  H  618  1  0.33057300  0.23749100  0.42878100  1
  H  619  1  0.42449600  0.27093600  0.44485500  1
  H  620  1  0.39192300  0.33767700  0.48935100  1
  H  632  1  0.89768800  0.80993500  0.22046000  1
  H  633  1  0.88664600  0.82034100  0.24923200  1
  H  634  1  0.86901600  0.79912700  0.22488400  1
  H  636  1  0.90198800  0.74497900  0.16922000  1
  H  637  1  0.90610600  0.77593500  0.18422200  1
  H  638  1  0.87729300  0.76348100  0.18589900  1
  H  640  1  0.93008800  0.78448800  0.29083000  1
  H  641  1  0.95287000  0.76422000  0.27313300  1
  H  642  1  0.92437100  0.75352700  0.27806900  1
  H  644  1  0.94325700  0.70747000  0.21122500  1
  H  645  1  0.93124400  0.71709800  0.23989900  1
  H  646  1  0.95951700  0.72901200  0.23617600  1
  H  648  1  0.93374800  0.71440800  0.17703500  1
  H  650  1  0.88346700  0.79300300  0.28030500  1
  H  658  1  0.89764000  0.32523200  0.18450500  1
  H  659  1  0.88659300  0.34362300  0.17413200  1
  H  660  1  0.86898000  0.34047900  0.19534800  1
  H  662  1  0.90197500  0.33889100  0.24944200  1
  H  663  1  0.90606600  0.32295700  0.21848300  1
  H  664  1  0.87726900  0.33710500  0.23096900  1
  H  666  1  0.93011600  0.42104200  0.21000800  1
  H  667  1  0.95290200  0.42357800  0.23025800  1
  H  668  1  0.92441600  0.43923000  0.24097400  1
  H  670  1  0.94328600  0.41838300  0.28698700  1
  H  671  1  0.93128300  0.43745500  0.27738600  1
  H  672  1  0.95954600  0.42180400  0.26545300  1
  H  674  1  0.93374100  0.37723800  0.28001900  1
  H  676  1  0.88349400  0.40203700  0.20148700  1
  H  684  1  0.89784300  0.77399200  0.66923700  1
  H  685  1  0.88684600  0.74519800  0.65090400  1
  H  686  1  0.86914600  0.76950800  0.65403000  1
  H  688  1  0.90199700  0.82519900  0.65547500  1
  H  689  1  0.90618200  0.81022200  0.67144300  1
  H  690  1  0.87734800  0.80849300  0.65732500  1
  H  692  1  0.93010200  0.70358700  0.57336300  1
  H  693  1  0.95289900  0.72126300  0.57077300  1
  H  694  1  0.92438200  0.71636400  0.55517800  1
  H  696  1  0.94332100  0.78320700  0.57598500  1
  H  697  1  0.93129400  0.75454000  0.55693000  1
  H  698  1  0.95957000  0.75824300  0.57255800  1
  H  700  1  0.93378900  0.81739800  0.61711400  1
  H  702  1  0.88349300  0.71416100  0.59251900  1
  H  710  1  0.39773500  0.12949400  0.82901300  1
  H  711  1  0.38668000  0.11910500  0.80024800  1
  H  712  1  0.36906000  0.14031200  0.82460800  1
  H  714  1  0.40205600  0.19444200  0.88027500  1
  H  715  1  0.40617400  0.16348600  0.86525400  1
  H  716  1  0.37735500  0.17594700  0.86360400  1
  H  718  1  0.43013100  0.15498500  0.75866900  1
  H  719  1  0.45288900  0.17528400  0.77636900  1
  H  720  1  0.42437000  0.18593900  0.77142100  1
  H  722  1  0.44321700  0.23202400  0.83827700  1
  H  723  1  0.43121600  0.22237300  0.80959500  1
  H  724  1  0.45950700  0.21049900  0.81333800  1
  H  726  1  0.43381200  0.22509800  0.87241100  1
  H  728  1  0.38351600  0.14646600  0.76920500  1
  H  736  1  0.39771800  0.61421200  0.86493600  1
  H  737  1  0.38667100  0.59585200  0.87534700  1
  H  738  1  0.36903600  0.59899300  0.85413900  1
  H  740  1  0.40200200  0.60049000  0.79997800  1
  H  741  1  0.40613300  0.61644300  0.83093300  1
  H  742  1  0.37731200  0.60232400  0.81848800  1
  H  744  1  0.43005300  0.51837200  0.83947900  1
  H  745  1  0.45283700  0.51579100  0.81920900  1
  H  746  1  0.42432900  0.50017700  0.80851900  1
  H  748  1  0.44323800  0.52095700  0.76246200  1
  H  749  1  0.43121000  0.50191500  0.77209000  1
  H  750  1  0.45949200  0.51753800  0.78400000  1
  H  752  1  0.43375500  0.56209000  0.76940300  1
  H  754  1  0.38344500  0.53745000  0.84801700  1
  H  762  1  0.39765700  0.16542300  0.38024200  1
  H  763  1  0.38661400  0.19419200  0.39861600  1
  H  764  1  0.36898400  0.16984100  0.39547300  1
  H  766  1  0.40195100  0.11416700  0.39393600  1
  H  767  1  0.40606500  0.12917800  0.37799000  1
  H  768  1  0.37725500  0.13085200  0.39212600  1
  H  770  1  0.43007000  0.23576500  0.47606300  1
  H  771  1  0.45285200  0.21806100  0.47862000  1
  H  772  1  0.42435700  0.22299500  0.49425600  1
  H  774  1  0.44323400  0.15614200  0.47344100  1
  H  775  1  0.43122300  0.18481600  0.49249900  1
  H  776  1  0.45949400  0.18109600  0.47685900  1
  H  778  1  0.43370100  0.12195500  0.43230100  1
  H  780  1  0.38344700  0.22525200  0.45703000  1
  H  788  1  0.12790500  0.61331800  0.82912400  1
  H  789  1  0.13839300  0.59485100  0.80017100  1
  H  790  1  0.15646200  0.59779400  0.82420500  1
  H  792  1  0.12436700  0.59972100  0.88044700  1
  H  793  1  0.12004200  0.61569000  0.86549000  1
  H  794  1  0.14878100  0.60125900  0.86333900  1
  H  796  1  0.09428000  0.51776600  0.75929400  1
  H  797  1  0.07167400  0.51546200  0.77730400  1
  H  798  1  0.10004000  0.49955800  0.77204300  1
  H  800  1  0.08197900  0.52071300  0.83917600  1
  H  801  1  0.09352000  0.50148500  0.81034500  1
  H  802  1  0.06540200  0.51745600  0.81444100  1
  H  804  1  0.09194500  0.56189600  0.87312700  1
  H  806  1  0.14124200  0.53633200  0.76931500  1
  H  814  1  0.12782000  0.16535600  0.86399200  1
  H  815  1  0.13834300  0.19429700  0.87444800  1
  H  816  1  0.15639300  0.17023100  0.85337800  1
  H  818  1  0.12426000  0.11399300  0.79908300  1
  H  819  1  0.11992000  0.12898300  0.83000800  1
  H  820  1  0.14868100  0.13107900  0.81773200  1
  H  822  1  0.09426000  0.23514600  0.83819400  1
  H  823  1  0.07171100  0.21712400  0.81781500  1
  H  824  1  0.10011400  0.22241900  0.80725600  1
  H  826  1  0.08214000  0.15527800  0.76120900  1
  H  827  1  0.09367500  0.18411900  0.77086200  1
  H  828  1  0.06551100  0.17999400  0.78264900  1
  H  830  1  0.09190600  0.12138000  0.76845000  1
  H  832  1  0.14122100  0.22511200  0.84672900  1
  H  840  1  0.12791500  0.13049200  0.38120600  1
  H  841  1  0.13842300  0.12005200  0.39970700  1
  H  842  1  0.15645200  0.14115700  0.39675300  1
  H  844  1  0.12429800  0.19539800  0.39474900  1
  H  845  1  0.12001200  0.16446600  0.37879900  1
  H  846  1  0.14873500  0.17678500  0.39323900  1
  H  848  1  0.09414300  0.15622900  0.47670900  1
  H  849  1  0.07157200  0.17656100  0.47899500  1
  H  850  1  0.09992500  0.18718000  0.49492800  1
  H  852  1  0.08196600  0.23318600  0.47378600  1
  H  853  1  0.09347700  0.22356200  0.49300700  1
  H  854  1  0.06535600  0.21171800  0.47703200  1
  H  856  1  0.09190000  0.22593400  0.43259600  1
  H  858  1  0.14112100  0.14772100  0.45825600  1
  H  866  1  0.62778500  0.32612500  0.22043700  1
  H  867  1  0.63833800  0.34461200  0.24936500  1
  H  868  1  0.65637100  0.34158800  0.22528000  1
  H  870  1  0.62423400  0.33963000  0.16904700  1
  H  871  1  0.61988800  0.32371300  0.18405500  1
  H  872  1  0.64865900  0.33806900  0.18613300  1
  H  874  1  0.59427800  0.42172600  0.29019200  1
  H  875  1  0.57173100  0.42407300  0.27216200  1
  H  876  1  0.60013600  0.43992300  0.27745000  1
  H  878  1  0.58216900  0.41881700  0.21031200  1
  H  879  1  0.59371400  0.43800400  0.23914900  1
  H  880  1  0.56553900  0.42211300  0.23503600  1
  H  882  1  0.59189800  0.37769600  0.17644300  1
  H  884  1  0.64122300  0.40315300  0.28019600  1
  H  892  1  0.62791100  0.77405900  0.18553200  1
  H  893  1  0.63839900  0.74510700  0.17506100  1
  H  894  1  0.65645600  0.76914600  0.19616100  1
  H  896  1  0.62434300  0.82539300  0.25044700  1
  H  897  1  0.62003800  0.81042900  0.21951700  1
  H  898  1  0.64876400  0.80828300  0.23181700  1
  H  900  1  0.59421700  0.70425300  0.21125900  1
  H  901  1  0.57161100  0.72227200  0.23156600  1
  H  902  1  0.59996700  0.71700100  0.24221600  1
  H  904  1  0.58192300  0.78414300  0.28818600  1
  H  905  1  0.59345100  0.75530900  0.27859000  1
  H  906  1  0.56534400  0.75941100  0.26670600  1
  H  908  1  0.59191500  0.81808600  0.28095600  1
  H  910  1  0.64119100  0.71425600  0.20273400  1
  H  918  1  0.62783300  0.80896300  0.66838700  1
  H  919  1  0.63836900  0.81941600  0.64990400  1
  H  920  1  0.65640800  0.79834200  0.65290200  1
  H  922  1  0.62425800  0.74405400  0.65484100  1
  H  923  1  0.61992100  0.77497900  0.67077500  1
  H  924  1  0.64868500  0.76270000  0.65640700  1
  H  926  1  0.59428600  0.78317100  0.57279900  1
  H  927  1  0.57173700  0.76278800  0.57043400  1
  H  928  1  0.60014100  0.75223300  0.55458500  1
  H  930  1  0.58216200  0.70618000  0.57567100  1
  H  931  1  0.59370100  0.71583600  0.55648800  1
  H  932  1  0.56553300  0.72762100  0.57239300  1
  H  934  1  0.59191500  0.71342200  0.61681300  1
  H  936  1  0.64123400  0.79170900  0.59136800  1
  H  944  1  0.74354400  0.67009100  0.08718800  1
  H  945  1  0.72136500  0.67790500  0.10966300  1
  H  946  1  0.72189500  0.64858000  0.08406100  1
  H  948  1  0.80846100  0.66673800  0.09901300  1
  H  949  1  0.78226600  0.68451000  0.10439000  1
  H  950  1  0.78408500  0.65535400  0.07835500  1
  H  952  1  0.71717700  0.62965200  0.15287900  1
  H  953  1  0.74308500  0.63908100  0.17144900  1
  H  954  1  0.74183000  0.60959600  0.14604700  1
  H  956  1  0.81101700  0.62849600  0.14961500  1
  H  957  1  0.78606400  0.60926200  0.14450600  1
  H  958  1  0.78662300  0.63865000  0.17009700  1
  H  960  1  0.82101900  0.62845500  0.10650100  1
  H  962  1  0.70495100  0.62514500  0.11036000  1
  H  970  1  0.74351400  0.33175300  0.32437700  1
  H  971  1  0.72135000  0.34642200  0.31655300  1
  H  972  1  0.72187100  0.35015400  0.34588300  1
  H  974  1  0.80843900  0.34688500  0.32768100  1
  H  975  1  0.78222900  0.33450900  0.30992700  1
  H  976  1  0.78406500  0.33762900  0.33908200  1
  H  978  1  0.71721800  0.43789600  0.36479100  1
  H  979  1  0.74314100  0.44702000  0.35536400  1
  H  980  1  0.74187300  0.45110800  0.38485000  1
  H  982  1  0.81105700  0.43573100  0.36595700  1
  H  983  1  0.78610400  0.44987200  0.38518600  1
  H  984  1  0.78668000  0.44607300  0.35579800  1
  H  986  1  0.82103000  0.39260700  0.36595500  1
  H  988  1  0.70496400  0.39991000  0.36931600  1
  H  996  1  0.74357500  0.90722800  0.66270100  1
  H  997  1  0.72139900  0.88475200  0.64803200  1
  H  998  1  0.72192400  0.91036400  0.64432400  1
  H  1000  1  0.80849400  0.89543200  0.64751400  1
  H  1001  1  0.78230500  0.89004300  0.65990900  1
  H  1002  1  0.78410900  0.91608100  0.65679300  1
  H  1004  1  0.71719900  0.84156200  0.55657200  1
  H  1005  1  0.74310700  0.82298800  0.54742300  1
  H  1006  1  0.74185100  0.84839400  0.54334600  1
  H  1008  1  0.81104100  0.84482700  0.55867000  1
  H  1009  1  0.78608200  0.84993400  0.54454700  1
  H  1010  1  0.78664800  0.82434200  0.54834300  1
  H  1012  1  0.82104400  0.88794600  0.60175100  1
  H  1014  1  0.70497700  0.88414800  0.59469100  1
  H  1022  1  0.24355200  0.26933800  0.96230500  1
  H  1023  1  0.22138200  0.26149900  0.93981500  1
  H  1024  1  0.22189300  0.29083200  0.96540800  1
  H  1026  1  0.30847000  0.27267800  0.95047300  1
  H  1027  1  0.28227200  0.25490800  0.94510100  1
  H  1028  1  0.28409500  0.28406700  0.97113200  1
  H  1030  1  0.21719400  0.30971400  0.89655800  1
  H  1031  1  0.24311700  0.30030600  0.87800800  1
  H  1032  1  0.24183200  0.32979100  0.90340600  1
  H  1034  1  0.31103300  0.31093800  0.89988700  1
  H  1035  1  0.28606600  0.33015000  0.90497000  1
  H  1036  1  0.28665600  0.30075700  0.87938500  1
  H  1038  1  0.32102500  0.31095200  0.94301300  1
  H  1040  1  0.20496500  0.31425700  0.93906300  1
  H  1048  1  0.24355200  0.60766600  0.72511700  1
  H  1049  1  0.22136900  0.59300200  0.73292600  1
  H  1050  1  0.22190200  0.58928900  0.70360500  1
  H  1052  1  0.30846800  0.59247900  0.72174300  1
  H  1053  1  0.28227700  0.60487900  0.73952500  1
  H  1054  1  0.28408900  0.60175800  0.71036800  1
  H  1056  1  0.21717200  0.50153800  0.68465900  1
  H  1057  1  0.24307400  0.49239400  0.69409300  1
  H  1058  1  0.24182900  0.48831100  0.66460700  1
  H  1060  1  0.31101300  0.50363700  0.68351300  1
  H  1061  1  0.28606000  0.48951400  0.66427600  1
  H  1062  1  0.28661300  0.49331100  0.69366400  1
  H  1064  1  0.32102000  0.54670700  0.68346300  1
  H  1066  1  0.20494600  0.53962500  0.68018500  1
  H  1074  1  0.24347600  0.03214000  0.38682500  1
  H  1075  1  0.22130800  0.05462600  0.40149500  1
  H  1076  1  0.22183200  0.02902500  0.40521900  1
  H  1078  1  0.30839800  0.04397700  0.40196900  1
  H  1079  1  0.28218800  0.04935400  0.38959200  1
  H  1080  1  0.28402800  0.02331300  0.39270100  1
  H  1082  1  0.21716300  0.09783800  0.49296800  1
  H  1083  1  0.24308000  0.11639400  0.50209900  1
  H  1084  1  0.24181700  0.09099100  0.50617900  1
  H  1086  1  0.31100200  0.09452500  0.49081500  1
  H  1087  1  0.28604900  0.08942800  0.50494900  1
  H  1088  1  0.28661900  0.11502200  0.50115900  1
  H  1090  1  0.32098300  0.05140400  0.44767800  1
  H  1092  1  0.20491100  0.05532600  0.45495800  1
  H  1100  1  0.28093400  0.60860500  0.96352800  1
  H  1101  1  0.30329000  0.59400100  0.94122800  1
  H  1102  1  0.30279800  0.59061900  0.96703200  1
  H  1104  1  0.21617800  0.59258400  0.95189800  1
  H  1105  1  0.24209000  0.60520600  0.94636100  1
  H  1106  1  0.24060300  0.60226400  0.97251400  1
  H  1108  1  0.30861800  0.50266500  0.89880000  1
  H  1109  1  0.28282000  0.49306700  0.88008100  1
  H  1110  1  0.28414100  0.48929900  0.90567300  1
  H  1112  1  0.21476200  0.50365600  0.90160500  1
  H  1113  1  0.23993700  0.48995200  0.90695500  1
  H  1114  1  0.23924300  0.49350000  0.88121600  1
  H  1116  1  0.20407100  0.54701100  0.94439100  1
  H  1118  1  0.32045500  0.54164900  0.94144300  1
  H  1126  1  0.28101500  0.03091300  0.72482100  1
  H  1127  1  0.30336400  0.05322400  0.73253500  1
  H  1128  1  0.30287400  0.02743700  0.70333600  1
  H  1130  1  0.21625400  0.04258800  0.72050900  1
  H  1131  1  0.24218400  0.04810300  0.73864000  1
  H  1132  1  0.24066600  0.02195600  0.70954300  1
  H  1134  1  0.30864800  0.09570600  0.68366700  1
  H  1135  1  0.28284000  0.11441300  0.69279500  1
  H  1136  1  0.28416900  0.08883100  0.66343100  1
  H  1138  1  0.21479400  0.09287200  0.68186600  1
  H  1139  1  0.23996300  0.08753400  0.66280900  1
  H  1140  1  0.23926900  0.11326600  0.69209800  1
  H  1142  1  0.20413000  0.05006700  0.68243200  1
  H  1144  1  0.32050300  0.05312200  0.67994300  1
  H  1152  1  0.28091000  0.26960900  0.38585800  1
  H  1153  1  0.30326400  0.26190400  0.40045700  1
  H  1154  1  0.30277400  0.29109600  0.40385100  1
  H  1156  1  0.21615400  0.27397700  0.40186900  1
  H  1157  1  0.24206900  0.25582500  0.38924700  1
  H  1158  1  0.24057400  0.28492200  0.39219400  1
  H  1160  1  0.30858100  0.31079000  0.49179700  1
  H  1161  1  0.28277500  0.30167400  0.50139000  1
  H  1162  1  0.28411000  0.33103400  0.50516400  1
  H  1164  1  0.21472700  0.31262400  0.49080100  1
  H  1165  1  0.23990400  0.33167100  0.50450500  1
  H  1166  1  0.23920200  0.30238600  0.50095800  1
  H  1168  1  0.20404500  0.31204600  0.44743900  1
  H  1170  1  0.32042400  0.31449300  0.45290400  1
  H  1178  1  0.78098500  0.33085900  0.08590500  1
  H  1179  1  0.80332700  0.34545400  0.10822500  1
  H  1180  1  0.80284400  0.34887800  0.08244400  1
  H  1182  1  0.71622200  0.34682600  0.09757800  1
  H  1183  1  0.74215800  0.33421600  0.10309300  1
  H  1184  1  0.74063700  0.33717100  0.07694900  1
  H  1186  1  0.80859000  0.43680500  0.15073800  1
  H  1187  1  0.78277300  0.44637400  0.16943300  1
  H  1188  1  0.78411500  0.45016700  0.14385600  1
  H  1190  1  0.71473600  0.43575400  0.14785300  1
  H  1191  1  0.73991100  0.44948000  0.14253400  1
  H  1192  1  0.73920000  0.44591900  0.16826400  1
  H  1194  1  0.70407400  0.39235100  0.10505100  1
  H  1196  1  0.82046500  0.39796600  0.10815300  1
  H  1204  1  0.78088700  0.90850000  0.32460900  1
  H  1205  1  0.80324900  0.88620300  0.31691600  1
  H  1206  1  0.80275500  0.91201100  0.34610100  1
  H  1208  1  0.71613500  0.89686800  0.32901500  1
  H  1209  1  0.74204300  0.89133000  0.31085000  1
  H  1210  1  0.74055900  0.91748700  0.33994300  1
  H  1212  1  0.80859400  0.84378100  0.36582600  1
  H  1213  1  0.78279500  0.82506400  0.35671600  1
  H  1214  1  0.78412600  0.85065800  0.38607300  1
  H  1216  1  0.71474000  0.84659000  0.36766700  1
  H  1217  1  0.73992000  0.85194000  0.38671300  1
  H  1218  1  0.73921900  0.82619900  0.35742800  1
  H  1220  1  0.70403700  0.88937200  0.36708000  1
  H  1222  1  0.82041700  0.88642100  0.36949500  1
  H  1230  1  0.78102200  0.66977300  0.66367200  1
  H  1231  1  0.80337100  0.67751100  0.64909400  1
  H  1232  1  0.80288800  0.64830100  0.64565400  1
  H  1234  1  0.71626500  0.66548100  0.64768200  1
  H  1235  1  0.74219700  0.68360700  0.66031000  1
  H  1236  1  0.74067200  0.65450000  0.65733800  1
  H  1238  1  0.80866800  0.62871700  0.55774400  1
  H  1239  1  0.78285100  0.63783300  0.54816600  1
  H  1240  1  0.78420400  0.60846200  0.54436600  1
  H  1242  1  0.71481400  0.62685800  0.55875600  1
  H  1243  1  0.73999400  0.60781900  0.54503300  1
  H  1244  1  0.73928200  0.63711600  0.54861000  1
  H  1246  1  0.70414800  0.62741000  0.60212300  1
  H  1248  1  0.82050900  0.62490800  0.59650700  1
  H  1256  1  0.99356100  0.64105200  0.02121600  1
  H  1257  1  0.99512600  0.65056000  0.05192800  1
  H  1258  1  0.96958200  0.63338400  0.03432100  1
  H  1260  1  0.04060300  0.59974600  0.98150200  1
  H  1261  1  0.03418300  0.62812400  0.00596400  1
  H  1262  1  0.01039400  0.61092500  0.98521700  1
  H  1264  1  0.00373500  0.59203700  0.08075800  1
  H  1265  1  0.03001500  0.57515300  0.06670200  1
  H  1266  1  0.00048200  0.56140700  0.05896100  1
  H  1268  1  0.03156600  0.53069600  0.99645300  1
  H  1269  1  0.00782100  0.53484900  0.01637100  1
  H  1270  1  0.03877800  0.54102500  0.02685900  1
  H  1272  1  0.03569100  0.54903900  0.97186000  1
  H  1274  1  0.98139100  0.63291900  0.07777000  1
  H  1282  1  0.99358800  0.29486900  0.35330200  1
  H  1283  1  0.99517700  0.31613100  0.34386900  1
  H  1284  1  0.96960800  0.31564300  0.36099000  1
  H  1286  1  0.04063400  0.29636300  0.39455800  1
  H  1287  1  0.03421800  0.29253600  0.36621400  1
  H  1288  1  0.01043500  0.28889100  0.38335500  1
  H  1290  1  0.00367000  0.40346800  0.40262600  1
  H  1291  1  0.02994300  0.40626000  0.41950400  1
  H  1292  1  0.00040000  0.41218800  0.43322800  1
  H  1294  1  0.03154200  0.38026100  0.46377700  1
  H  1295  1  0.00777900  0.39605300  0.45968800  1
  H  1296  1  0.03873000  0.40040500  0.45352900  1
  H  1298  1  0.03563600  0.33729000  0.44531800  1
  H  1300  1  0.98139000  0.35955500  0.36159100  1
  H  1308  1  0.99357800  0.97313400  0.69956800  1
  H  1309  1  0.99521300  0.94242900  0.67834300  1
  H  1310  1  0.96963600  0.95999700  0.67876000  1
  H  1312  1  0.04074500  0.01279400  0.69807400  1
  H  1313  1  0.03426000  0.98828800  0.70190000  1
  H  1314  1  0.01052500  0.00912000  0.70554900  1
  H  1316  1  0.00381300  0.91379500  0.59097600  1
  H  1317  1  0.03009100  0.92790300  0.58823000  1
  H  1318  1  0.00056300  0.93565700  0.58222700  1
  H  1320  1  0.03162100  0.99817500  0.61419300  1
  H  1321  1  0.00783400  0.97831300  0.59841500  1
  H  1322  1  0.03877400  0.96777800  0.59402900  1
  H  1324  1  0.03572400  0.02264600  0.65713100  1
  H  1326  1  0.98126500  0.91683600  0.63511700  1
  H  1334  1  0.49348200  0.29841900  0.02830500  1
  H  1335  1  0.49505700  0.28889200  0.99758800  1
  H  1336  1  0.46952100  0.30609600  0.01518600  1
  H  1338  1  0.54054900  0.33969800  0.06800600  1
  H  1339  1  0.53411000  0.31131800  0.04355300  1
  H  1340  1  0.51032900  0.32854400  0.06429600  1
  H  1342  1  0.50377000  0.34735100  0.96869600  1
  H  1343  1  0.53007000  0.36420400  0.98273700  1
  H  1344  1  0.50055700  0.37799200  0.99047300  1
  H  1346  1  0.53166400  0.40870800  0.05297200  1
  H  1347  1  0.50798000  0.40458100  0.03300800  1
  H  1348  1  0.53895000  0.39830500  0.02256600  1
  H  1350  1  0.53564600  0.39038900  0.07759800  1
  H  1352  1  0.48137100  0.30652500  0.97172000  1
  H  1360  1  0.49372500  0.64450500  0.69628800  1
  H  1361  1  0.49526200  0.62318600  0.70565000  1
  H  1362  1  0.46970300  0.62376500  0.68856600  1
  H  1364  1  0.54075400  0.64303700  0.65502900  1
  H  1365  1  0.53434900  0.64681500  0.68335700  1
  H  1366  1  0.51056600  0.65053100  0.66626200  1
  H  1368  1  0.50362900  0.53588400  0.64676300  1
  H  1369  1  0.52992600  0.53311500  0.62992000  1
  H  1370  1  0.50039800  0.52721500  0.61617200  1
  H  1372  1  0.53156600  0.55920900  0.58571600  1
  H  1373  1  0.50773800  0.54345500  0.58977700  1
  H  1374  1  0.53866500  0.53898900  0.59589100  1
  H  1376  1  0.53573700  0.60217300  0.60424700  1
  H  1378  1  0.48149000  0.57968000  0.68783800  1
  H  1386  1  0.49350400  0.96604200  0.34986000  1
  H  1387  1  0.49508300  0.99677200  0.37100700  1
  H  1388  1  0.46953800  0.97919500  0.37063900  1
  H  1390  1  0.54056900  0.92639400  0.35154100  1
  H  1391  1  0.53414200  0.95081500  0.34755800  1
  H  1392  1  0.51035900  0.93008200  0.34406300  1
  H  1394  1  0.50375900  0.02579900  0.45839600  1
  H  1395  1  0.53001700  0.01174500  0.46127000  1
  H  1396  1  0.50046700  0.00405400  0.46729400  1
  H  1398  1  0.53152300  0.94151600  0.43559600  1
  H  1399  1  0.50782700  0.96149500  0.45137100  1
  H  1400  1  0.53880400  0.97192300  0.45560900  1
  H  1402  1  0.53567600  0.91684400  0.39262500  1
  H  1404  1  0.48126600  0.02260600  0.41437900  1
  H  1412  1  0.02910300  0.29688300  0.02418400  1
  H  1413  1  0.02802000  0.29015400  0.99419400  1
  H  1414  1  0.05390600  0.30531400  0.01262500  1
  H  1416  1  0.98265000  0.33754200  0.06550300  1
  H  1417  1  0.98859200  0.31020500  0.03946500  1
  H  1418  1  0.01237200  0.32517900  0.06114700  1
  H  1420  1  0.02574700  0.35612600  0.97398600  1
  H  1421  1  0.99981500  0.37328300  0.98844300  1
  H  1422  1  0.02977400  0.38542000  0.99850600  1
  H  1424  1  0.99396500  0.41099800  0.05860100  1
  H  1425  1  0.01956400  0.40889300  0.04121500  1
  H  1426  1  0.98950100  0.40363600  0.02856400  1
  H  1428  1  0.98937200  0.38815700  0.08049100  1
  H  1430  1  0.04220900  0.31095000  0.97098000  1
  H  1438  1  0.02914300  0.64200200  0.69793900  1
  H  1439  1  0.02815500  0.61856200  0.70441600  1
  H  1440  1  0.05399100  0.62204300  0.68934100  1
  H  1442  1  0.98260900  0.64295100  0.65748300  1
  H  1443  1  0.98861600  0.64403100  0.68470900  1
  H  1444  1  0.01233900  0.65093900  0.66983800  1
  H  1446  1  0.02610300  0.53258100  0.63791700  1
  H  1447  1  0.00006300  0.52998900  0.62091600  1
  H  1448  1  0.02995200  0.52809200  0.60871400  1
  H  1450  1  0.99394700  0.56293200  0.58366100  1
  H  1451  1  0.01963800  0.54764000  0.58557700  1
  H  1452  1  0.98963900  0.54005200  0.59076200  1
  H  1454  1  0.98925300  0.60827100  0.60725400  1
  H  1456  1  0.04190400  0.57403200  0.68306900  1
  H  1464  1  0.02914500  0.97019700  0.35247800  1
  H  1465  1  0.02814200  0.00018400  0.37575500  1
  H  1466  1  0.05397800  0.98168800  0.37244600  1
  H  1468  1  0.98277300  0.92880700  0.35181000  1
  H  1469  1  0.98868500  0.95483100  0.35047500  1
  H  1470  1  0.01250000  0.93319800  0.34384400  1
  H  1472  1  0.02585100  0.02045900  0.46190900  1
  H  1473  1  0.99982300  0.00611100  0.46461700  1
  H  1474  1  0.02971700  0.99596100  0.46673700  1
  H  1476  1  0.99386400  0.93593200  0.43228800  1
  H  1477  1  0.01947300  0.95330000  0.44756000  1
  H  1478  1  0.98942500  0.96599100  0.45491500  1
  H  1480  1  0.98933100  0.91393500  0.38757500  1
  H  1482  1  0.04195400  0.02363200  0.42021500  1
  H  1490  1  0.52913400  0.64260500  0.02541200  1
  H  1491  1  0.52813600  0.64923900  0.05537500  1
  H  1492  1  0.55397200  0.63408900  0.03685900  1
  H  1494  1  0.48276100  0.60193200  0.98397400  1
  H  1495  1  0.48867200  0.62925700  0.01004000  1
  H  1496  1  0.51248300  0.61430400  0.98838700  1
  H  1498  1  0.52592500  0.58318700  0.07542200  1
  H  1499  1  0.49989500  0.56614000  0.06106400  1
  H  1500  1  0.52979100  0.55389800  0.05085800  1
  H  1502  1  0.49384700  0.52846500  0.99089100  1
  H  1503  1  0.51945500  0.53050000  0.00823300  1
  H  1504  1  0.48940900  0.53583800  0.02093100  1
  H  1506  1  0.48939200  0.55134400  0.96898100  1
  H  1508  1  0.54194100  0.62813000  0.07874000  1
  H  1516  1  0.52915200  0.29745200  0.35214400  1
  H  1517  1  0.52804700  0.32064600  0.34532100  1
  H  1518  1  0.55393900  0.31745800  0.36052700  1
  H  1520  1  0.48277600  0.29688100  0.39290300  1
  H  1521  1  0.48867400  0.29548500  0.36551400  1
  H  1522  1  0.51250000  0.28890000  0.38054400  1
  H  1524  1  0.52566600  0.40689600  0.41104900  1
  H  1525  1  0.49974300  0.40964400  0.42823700  1
  H  1526  1  0.52970900  0.41179400  0.44038800  1
  H  1528  1  0.49391900  0.37744100  0.46616700  1
  H  1529  1  0.51947500  0.39273200  0.46400600  1
  H  1530  1  0.48939000  0.40000000  0.45865800  1
  H  1532  1  0.48941200  0.33296000  0.44369000  1
  H  1534  1  0.54222900  0.36463500  0.36598200  1
  H  1542  1  0.52903600  0.96906100  0.69696300  1
  H  1543  1  0.52805500  0.93909600  0.67363600  1
  H  1544  1  0.55391100  0.95760600  0.67704300  1
  H  1546  1  0.48272600  0.01050800  0.69764300  1
  H  1547  1  0.48859100  0.98444200  0.69891600  1
  H  1548  1  0.51242000  0.00608400  0.70565000  1
  H  1550  1  0.52600100  0.91902700  0.58753400  1
  H  1551  1  0.50001300  0.93340600  0.58480300  1
  H  1552  1  0.52993900  0.94358000  0.58280100  1
  H  1554  1  0.49400600  0.00357100  0.61726800  1
  H  1555  1  0.51962500  0.98622000  0.60200200  1
  H  1556  1  0.48957900  0.97352800  0.59459900  1
  H  1558  1  0.48943600  0.02545700  0.66196000  1
  H  1560  1  0.54195500  0.91573400  0.62920800  1
  H  1568  1  0.90155200  0.55221700  0.16159700  1
  H  1569  1  0.88093900  0.56202100  0.14734900  1
  H  1570  1  0.91329100  0.56622300  0.14636100  1
  H  1572  1  0.91236000  0.48898900  0.14037700  1
  H  1573  1  0.89284900  0.51382200  0.15431300  1
  H  1574  1  0.92534400  0.51781400  0.15301600  1
  H  1576  1  0.88957600  0.52855100  0.05701500  1
  H  1577  1  0.87550200  0.50061600  0.04592900  1
  H  1578  1  0.90787200  0.50270700  0.04237700  1
  H  1580  1  0.90045400  0.44840300  0.05319600  1
  H  1581  1  0.91605400  0.46393900  0.04094600  1
  H  1582  1  0.88323500  0.46393500  0.04281200  1
  H  1584  1  0.93786900  0.46706200  0.09671800  1
  H  1586  1  0.87886100  0.56238100  0.10623000  1
  H  1594  1  0.90153300  0.52406100  0.44221800  1
  H  1595  1  0.88090600  0.50001500  0.43237900  1
  H  1596  1  0.91326000  0.49481500  0.42821700  1
  H  1598  1  0.91223200  0.56605000  0.50546900  1
  H  1599  1  0.89277000  0.55515500  0.48060300  1
  H  1600  1  0.92527000  0.54987900  0.47666600  1
  H  1602  1  0.88939600  0.44311800  0.46582500  1
  H  1603  1  0.87527300  0.45996500  0.49373500  1
  H  1604  1  0.90764000  0.45431400  0.49170100  1
  H  1606  1  0.90018000  0.51943500  0.54599800  1
  H  1607  1  0.91580000  0.49165600  0.53049000  1
  H  1608  1  0.88298200  0.49351000  0.53043500  1
  H  1610  1  0.93773000  0.54427200  0.52736500  1
  H  1612  1  0.87879100  0.45852000  0.43198700  1
  H  1620  1  0.90152300  0.83288400  0.47033500  1
  H  1621  1  0.88088300  0.84709900  0.49436900  1
  H  1622  1  0.91323000  0.84810400  0.49958900  1
  H  1624  1  0.91229200  0.85416400  0.42837400  1
  H  1625  1  0.89279300  0.84020800  0.43925600  1
  H  1626  1  0.92528900  0.84150900  0.44453900  1
  H  1628  1  0.88945300  0.93742800  0.55132000  1
  H  1629  1  0.87539300  0.94853000  0.53448000  1
  H  1630  1  0.90775900  0.95209400  0.54014900  1
  H  1632  1  0.90037900  0.94134000  0.47504600  1
  H  1633  1  0.91596400  0.95357000  0.50283700  1
  H  1634  1  0.88314600  0.95169700  0.50095000  1
  H  1636  1  0.93779100  0.89783400  0.45013300  1
  H  1638  1  0.87882000  0.88810000  0.53584300  1
  H  1646  1  0.40158800  0.38730600  0.88791800  1
  H  1647  1  0.38097500  0.37747200  0.90214200  1
  H  1648  1  0.41332900  0.37328100  0.90313700  1
  H  1650  1  0.41243700  0.45053900  0.90920100  1
  H  1651  1  0.39291900  0.42571400  0.89522900  1
  H  1652  1  0.42540600  0.42171000  0.89655400  1
  H  1654  1  0.38959300  0.41086700  0.99247100  1
  H  1655  1  0.37546500  0.43878000  0.00355800  1
  H  1656  1  0.40783900  0.43674300  0.00713900  1
  H  1658  1  0.40032700  0.49105500  0.99635000  1
  H  1659  1  0.41598600  0.47554800  0.00860100  1
  H  1660  1  0.38316600  0.47548200  0.00672400  1
  H  1662  1  0.43785000  0.47248600  0.95293700  1
  H  1664  1  0.37887100  0.37707600  0.94324800  1
  H  1672  1  0.40158000  0.41530700  0.60716900  1
  H  1673  1  0.38095600  0.43935000  0.61698400  1
  H  1674  1  0.41330500  0.44455500  0.62119500  1
  H  1676  1  0.41243800  0.37334200  0.54394100  1
  H  1677  1  0.39291200  0.38420500  0.56876000  1
  H  1678  1  0.42539900  0.38952800  0.57277500  1
  H  1680  1  0.38953100  0.49626600  0.58357500  1
  H  1681  1  0.37546500  0.47941900  0.55563700  1
  H  1682  1  0.40783000  0.48509100  0.55773600  1
  H  1684  1  0.40045700  0.41998100  0.50340100  1
  H  1685  1  0.41604200  0.44777200  0.51895500  1
  H  1686  1  0.38322500  0.44588400  0.51894500  1
  H  1688  1  0.43787200  0.39509600  0.52198800  1
  H  1690  1  0.37886100  0.48084000  0.61739100  1
  H  1698  1  0.40153400  0.10658000  0.57910000  1
  H  1699  1  0.38090800  0.09232700  0.55506000  1
  H  1700  1  0.41325600  0.09134000  0.54985300  1
  H  1702  1  0.41231800  0.08537700  0.62112100  1
  H  1703  1  0.39281000  0.09929400  0.61020500  1
  H  1704  1  0.42530800  0.09801700  0.60494000  1
  H  1706  1  0.38954300  0.00199200  0.49820000  1
  H  1707  1  0.37550000  0.99090700  0.51506200  1
  H  1708  1  0.40786700  0.98736200  0.50939600  1
  H  1710  1  0.40051600  0.99818500  0.57452700  1
  H  1711  1  0.41609200  0.98594200  0.54673000  1
  H  1712  1  0.38327300  0.98779200  0.54862300  1
  H  1714  1  0.43788900  0.04176200  0.59940900  1
  H  1716  1  0.37883500  0.05121800  0.51358600  1
  H  1724  1  0.12485600  0.41301800  0.88777000  1
  H  1725  1  0.14544500  0.43703800  0.90252900  1
  H  1726  1  0.11330400  0.44230100  0.90173100  1
  H  1728  1  0.11334600  0.37196200  0.90998800  1
  H  1729  1  0.13397600  0.38308500  0.89709600  1
  H  1730  1  0.10147000  0.38685900  0.89558100  1
  H  1732  1  0.13846200  0.49414500  0.99112500  1
  H  1733  1  0.14476700  0.47710600  0.00469000  1
  H  1734  1  0.11422000  0.48780600  0.00532000  1
  H  1736  1  0.12349300  0.42608100  0.99999400  1
  H  1737  1  0.09237600  0.43444100  0.99850500  1
  H  1738  1  0.11491700  0.45628300  0.01350000  1
  H  1740  1  0.08522700  0.39211600  0.95157400  1
  H  1742  1  0.14470400  0.47886400  0.94142100  1
  H  1750  1  0.12463300  0.10668900  0.60506000  1
  H  1751  1  0.14527600  0.09198300  0.61433600  1
  H  1752  1  0.11313300  0.09267900  0.62035500  1
  H  1754  1  0.11313000  0.08446500  0.54178300  1
  H  1755  1  0.13373100  0.09741600  0.56581600  1
  H  1756  1  0.10122800  0.09881600  0.57107700  1
  H  1758  1  0.13856000  0.00335600  0.58281000  1
  H  1759  1  0.14493900  0.98982800  0.55222200  1
  H  1760  1  0.11438100  0.98909600  0.56221600  1
  H  1762  1  0.12357300  0.99451200  0.50583200  1
  H  1763  1  0.09249800  0.99584000  0.51571900  1
  H  1764  1  0.11519700  0.98093300  0.52250600  1
  H  1766  1  0.08516000  0.04283500  0.52033200  1
  H  1768  1  0.14472500  0.05299900  0.61719800  1
  H  1776  1  0.12463900  0.38947000  0.58148300  1
  H  1777  1  0.14524300  0.38017900  0.55747100  1
  H  1778  1  0.11309800  0.37415400  0.55219300  1
  H  1780  1  0.11311500  0.45274800  0.62251300  1
  H  1781  1  0.13373500  0.42872700  0.61142900  1
  H  1782  1  0.10123100  0.42344700  0.60759300  1
  H  1784  1  0.13842900  0.41165000  0.50034300  1
  H  1785  1  0.14479100  0.44224300  0.51738400  1
  H  1786  1  0.11423400  0.43222700  0.50667100  1
  H  1788  1  0.12354300  0.48861200  0.56839900  1
  H  1789  1  0.09241700  0.47882100  0.56000900  1
  H  1790  1  0.11499700  0.47193400  0.53819100  1
  H  1792  1  0.08512700  0.47424200  0.60230400  1
  H  1794  1  0.14463200  0.37728800  0.51561700  1
  H  1802  1  0.62469100  0.52643600  0.16176200  1
  H  1803  1  0.64529800  0.50242600  0.14703900  1
  H  1804  1  0.61315300  0.49714400  0.14778300  1
  H  1806  1  0.61319400  0.56747300  0.13951700  1
  H  1807  1  0.63380300  0.55637700  0.15245000  1
  H  1808  1  0.60129800  0.55256000  0.15390000  1
  H  1810  1  0.63849100  0.44530800  0.05843700  1
  H  1811  1  0.64485200  0.46235400  0.04489000  1
  H  1812  1  0.61429700  0.45163600  0.04418700  1
  H  1814  1  0.62354700  0.51338200  0.04954400  1
  H  1815  1  0.59243900  0.50493900  0.05094100  1
  H  1816  1  0.61505400  0.48316100  0.03600800  1
  H  1818  1  0.58516900  0.54729200  0.09787800  1
  H  1820  1  0.64467800  0.46056600  0.10806800  1
  H  1828  1  0.62486500  0.83268700  0.44451400  1
  H  1829  1  0.64544200  0.84744400  0.43524000  1
  H  1830  1  0.61330000  0.84662700  0.42917300  1
  H  1832  1  0.61333500  0.85493900  0.50779100  1
  H  1833  1  0.63397400  0.84204400  0.48378400  1
  H  1834  1  0.60147000  0.84051600  0.47848300  1
  H  1836  1  0.63844900  0.93602100  0.46667400  1
  H  1837  1  0.64474700  0.94960500  0.49728400  1
  H  1838  1  0.61420300  0.95022500  0.48720000  1
  H  1840  1  0.62348400  0.94494800  0.54361900  1
  H  1841  1  0.59235500  0.94343700  0.53378400  1
  H  1842  1  0.61487500  0.95842700  0.52690700  1
  H  1844  1  0.58521000  0.89655000  0.52921600  1
  H  1846  1  0.64468200  0.88631900  0.43227100  1
  H  1854  1  0.62469200  0.55005400  0.46811600  1
  H  1855  1  0.64531700  0.55932800  0.49211100  1
  H  1856  1  0.61317200  0.56534600  0.49741500  1
  H  1858  1  0.61318500  0.48678000  0.42705000  1
  H  1859  1  0.63379200  0.51081000  0.43814400  1
  H  1860  1  0.60128700  0.51607600  0.44199200  1
  H  1862  1  0.63854300  0.52778700  0.54919600  1
  H  1863  1  0.64490900  0.49719700  0.53213900  1
  H  1864  1  0.61435100  0.50720500  0.54285300  1
  H  1866  1  0.62361500  0.45083300  0.48108000  1
  H  1867  1  0.59251100  0.46066700  0.48954300  1
  H  1868  1  0.61513900  0.46749900  0.51130700  1
  H  1870  1  0.58521400  0.46530000  0.44722000  1
  H  1872  1  0.64474100  0.56217500  0.53395400  1
  C  1  1  0.89639500  0.64667500  0.12590700  1
  C  2  1  0.87044200  0.64428100  0.12272800  1
  C  3  1  0.85387300  0.66285100  0.13768800  1
  C  4  1  0.86354500  0.68484200  0.15665100  1
  C  5  1  0.88970600  0.68767800  0.15998500  1
  C  6  1  0.90579400  0.66871900  0.14455000  1
  C  9  1  0.91172400  0.62608700  0.11185100  1
  C  10  1  0.90636900  0.60446400  0.11174900  1
  C  11  1  0.91839400  0.58265200  0.09597400  1
  C  12  1  0.93637000  0.58213600  0.07953900  1
  C  13  1  0.94334000  0.60411700  0.08065000  1
  C  14  1  0.93107800  0.62584100  0.09682400  1
  C  27  1  0.89640000  0.39384400  0.34775000  1
  C  28  1  0.87044800  0.39304600  0.35014400  1
  C  29  1  0.85387800  0.38943600  0.33157300  1
  C  30  1  0.86354900  0.38642300  0.30958800  1
  C  31  1  0.88971100  0.38692300  0.30675300  1
  C  32  1  0.90580300  0.39042600  0.32570200  1
  C  35  1  0.91172000  0.40040900  0.36835100  1
  C  36  1  0.90634300  0.42193500  0.38996000  1
  C  37  1  0.91833800  0.42798800  0.41179000  1
  C  38  1  0.93631000  0.41208100  0.41233400  1
  C  39  1  0.94330100  0.39120400  0.39036900  1
  C  40  1  0.93107000  0.38564000  0.36862800  1
  C  53  1  0.89642600  0.86853100  0.60052700  1
  C  54  1  0.87047200  0.87172000  0.60133600  1
  C  55  1  0.85390700  0.85674700  0.60493200  1
  C  56  1  0.86358400  0.83777400  0.60793900  1
  C  57  1  0.88974600  0.83443400  0.60742100  1
  C  58  1  0.90583000  0.84987300  0.60390100  1
  C  61  1  0.91174100  0.88258300  0.59397700  1
  C  62  1  0.90634400  0.88270200  0.57247100  1
  C  63  1  0.91835500  0.89847700  0.56642400  1
  C  64  1  0.93635900  0.91489100  0.58231700  1
  C  65  1  0.94337300  0.91376200  0.60316600  1
  C  66  1  0.93111200  0.89760300  0.60873500  1
  C  79  1  0.39640200  0.29277900  0.92357000  1
  C  80  1  0.37045000  0.29516900  0.92675200  1
  C  81  1  0.35388600  0.27658600  0.91180500  1
  C  82  1  0.36356500  0.25459500  0.89284800  1
  C  83  1  0.38972900  0.25176500  0.88952200  1
  C  84  1  0.40581700  0.27071600  0.90497400  1
  C  87  1  0.41172400  0.31337000  0.93763500  1
  C  88  1  0.40637700  0.33498900  0.93772700  1
  C  89  1  0.41840700  0.35680100  0.95350000  1
  C  90  1  0.43638100  0.35731600  0.96993600  1
  C  91  1  0.44334500  0.33533800  0.96883100  1
  C  92  1  0.43106900  0.31361800  0.95267000  1
  C  105  1  0.39640000  0.54550200  0.70167200  1
  C  106  1  0.37044800  0.54629200  0.69928100  1
  C  107  1  0.35387900  0.54991000  0.71785400  1
  C  108  1  0.36355000  0.55293700  0.73984500  1
  C  109  1  0.38971200  0.55243000  0.74267700  1
  C  110  1  0.40580000  0.54890000  0.72371500  1
  C  113  1  0.41172800  0.53896300  0.68108000  1
  C  114  1  0.40636800  0.51744100  0.65946300  1
  C  115  1  0.41837900  0.51140400  0.63764300  1
  C  116  1  0.43633800  0.52733000  0.63711700  1
  C  117  1  0.44332500  0.54819500  0.65909600  1
  C  118  1  0.43107900  0.55374200  0.68082500  1
  C  131  1  0.39635600  0.07085000  0.44892500  1
  C  132  1  0.37040400  0.06766700  0.44814000  1
  C  133  1  0.35383300  0.08262600  0.44453000  1
  C  134  1  0.36350400  0.10159300  0.44150700  1
  C  135  1  0.38966600  0.10492100  0.44199600  1
  C  136  1  0.40575600  0.08948400  0.44551300  1
  C  139  1  0.41168300  0.05680300  0.45546900  1
  C  140  1  0.40632400  0.05670000  0.47698800  1
  C  141  1  0.41835500  0.04093300  0.48303400  1
  C  142  1  0.43634000  0.02450500  0.46712000  1
  C  143  1  0.44330200  0.02560800  0.44624500  1
  C  144  1  0.43104000  0.04177800  0.44069300  1
  C  157  1  0.12879400  0.54515500  0.92418400  1
  C  158  1  0.15471600  0.54582400  0.92747600  1
  C  159  1  0.17141200  0.54943700  0.91260100  1
  C  160  1  0.16189700  0.55240000  0.89353900  1
  C  161  1  0.13576200  0.55187400  0.89003200  1
  C  162  1  0.11953900  0.54844500  0.90543600  1
  C  165  1  0.11332600  0.53877100  0.93822000  1
  C  166  1  0.11756900  0.51656600  0.93726800  1
  C  167  1  0.10629500  0.51097700  0.95369800  1
  C  168  1  0.09033500  0.52809400  0.97177200  1
  C  169  1  0.08370000  0.54938800  0.97132600  1
  C  170  1  0.09563700  0.55471500  0.95486900  1
  C  183  1  0.12885500  0.07025800  0.70073800  1
  C  184  1  0.15477800  0.06697700  0.69812600  1
  C  185  1  0.17145800  0.08184300  0.71663200  1
  C  186  1  0.16193000  0.10089300  0.73865500  1
  C  187  1  0.13578900  0.10437900  0.74162500  1
  C  188  1  0.11957700  0.08896200  0.72279000  1
  C  191  1  0.11339600  0.05619500  0.68031400  1
  C  192  1  0.11762900  0.05714500  0.65906100  1
  C  193  1  0.10634300  0.04071400  0.63704800  1
  C  194  1  0.09039600  0.02263300  0.63609700  1
  C  195  1  0.08375700  0.02310000  0.65784500  1
  C  196  1  0.09569200  0.03956800  0.67962900  1
  C  209  1  0.12877500  0.29372500  0.44933200  1
  C  210  1  0.15469600  0.29634100  0.44866400  1
  C  211  1  0.17138400  0.27784100  0.44502600  1
  C  212  1  0.16186600  0.25581500  0.44205500  1
  C  213  1  0.13572700  0.25284100  0.44258400  1
  C  214  1  0.11951300  0.27168400  0.44602600  1
  C  217  1  0.11330900  0.31414500  0.45570600  1
  C  218  1  0.11755300  0.33540700  0.47790100  1
  C  219  1  0.10623800  0.35741200  0.48349800  1
  C  220  1  0.09027400  0.35835900  0.46637500  1
  C  221  1  0.08365400  0.33660600  0.44508600  1
  C  222  1  0.09559400  0.31482600  0.43977100  1
  C  235  1  0.62880700  0.39425400  0.12529300  1
  C  236  1  0.65472900  0.39360100  0.12200600  1
  C  237  1  0.67142400  0.38995000  0.13685600  1
  C  238  1  0.66191200  0.38695900  0.15590000  1
  C  239  1  0.63577400  0.38746500  0.15939800  1
  C  240  1  0.61955100  0.39091300  0.14400700  1
  C  243  1  0.61333100  0.40064800  0.11126700  1
  C  244  1  0.61756400  0.42285900  0.11223200  1
  C  245  1  0.60626700  0.42846000  0.09581900  1
  C  246  1  0.59030500  0.41134700  0.07774200  1
  C  247  1  0.58367400  0.39005200  0.07819100  1
  C  248  1  0.59562600  0.38471400  0.09463500  1
  C  261  1  0.62876600  0.86913100  0.34875300  1
  C  262  1  0.65468700  0.87243000  0.35137400  1
  C  263  1  0.67138000  0.85756200  0.33287900  1
  C  264  1  0.66186700  0.83849800  0.31085600  1
  C  265  1  0.63573000  0.83498600  0.30788000  1
  C  266  1  0.61950900  0.85038300  0.32671600  1
  C  269  1  0.61329800  0.88315700  0.36917800  1
  C  270  1  0.61754100  0.88218500  0.39042000  1
  C  271  1  0.60626100  0.89859900  0.41244100  1
  C  272  1  0.59029900  0.91667900  0.41341300  1
  C  273  1  0.58367400  0.91625900  0.39168400  1
  C  274  1  0.59561600  0.89981700  0.36989500  1
  C  287  1  0.62886800  0.64571500  0.60024200  1
  C  288  1  0.65479000  0.64310200  0.60090800  1
  C  289  1  0.67147100  0.66160900  0.60454900  1
  C  290  1  0.66194100  0.68363000  0.60751900  1
  C  291  1  0.63580000  0.68660000  0.60700400  1
  C  292  1  0.61958600  0.66777200  0.60360400  1
  C  295  1  0.61340900  0.62528800  0.59387400  1
  C  296  1  0.61764100  0.60404000  0.57166500  1
  C  297  1  0.60634700  0.58202800  0.56606900  1
  C  298  1  0.59038600  0.58107100  0.58318800  1
  C  299  1  0.58375500  0.60281600  0.60448000  1
  C  300  1  0.59569800  0.62459900  0.60980900  1
  C  313  1  0.12916000  0.29528100  0.92466700  1
  C  314  1  0.15519600  0.29737300  0.92706000  1
  C  315  1  0.17131900  0.27795900  0.91315800  1
  C  316  1  0.16113700  0.25517000  0.89629500  1
  C  317  1  0.13486400  0.25283400  0.89286300  1
  C  318  1  0.11934600  0.27267200  0.90752700  1
  C  321  1  0.11417000  0.31613500  0.93911300  1
  C  322  1  0.12048400  0.33828000  0.94064600  1
  C  323  1  0.10939900  0.36020600  0.95746300  1
  C  324  1  0.09194700  0.36035300  0.97416400  1
  C  325  1  0.08333900  0.33801400  0.97118400  1
  C  326  1  0.09443400  0.31616700  0.95369500  1
  C  339  1  0.12913400  0.54413000  0.69917800  1
  C  340  1  0.15517000  0.54438300  0.69705800  1
  C  341  1  0.17130400  0.54989700  0.71646600  1
  C  342  1  0.16113500  0.55583800  0.73926300  1
  C  343  1  0.13486000  0.55477400  0.74162200  1
  C  344  1  0.11932900  0.54963200  0.72180100  1
  C  347  1  0.11412500  0.53772800  0.67833500  1
  C  348  1  0.12038600  0.51707100  0.65620700  1
  C  349  1  0.10933900  0.51198400  0.63426900  1
  C  350  1  0.09198500  0.52860100  0.63410100  1
  C  351  1  0.08341900  0.54801200  0.65642700  1
  C  352  1  0.09448000  0.55235300  0.67828300  1
  C  365  1  0.12910300  0.06976800  0.45040500  1
  C  366  1  0.15513700  0.06738300  0.45013200  1
  C  367  1  0.17126900  0.08128300  0.44462500  1
  C  368  1  0.16109600  0.09815400  0.43870500  1
  C  369  1  0.13482500  0.10157700  0.43977300  1
  C  370  1  0.11929600  0.08690900  0.44493100  1
  C  373  1  0.11409600  0.05531800  0.45679800  1
  C  374  1  0.12036900  0.05382100  0.47743900  1
  C  375  1  0.10930400  0.03698100  0.48252900  1
  C  376  1  0.09191300  0.02023300  0.46593400  1
  C  377  1  0.08335000  0.02316200  0.44653200  1
  C  378  1  0.09444300  0.04065200  0.44217500  1
  C  391  1  0.62914200  0.64412500  0.12479400  1
  C  392  1  0.65517500  0.64202200  0.12241000  1
  C  393  1  0.67130400  0.66143400  0.13631000  1
  C  394  1  0.66112300  0.68422400  0.15317300  1
  C  395  1  0.63485100  0.68657000  0.15659800  1
  C  396  1  0.61932700  0.66674100  0.14192100  1
  C  399  1  0.61414900  0.62327500  0.11033600  1
  C  400  1  0.62042100  0.60114300  0.10885000  1
  C  401  1  0.60935900  0.57921100  0.09201100  1
  C  402  1  0.59195600  0.57905400  0.07526800  1
  C  403  1  0.58337900  0.60138300  0.07820200  1
  C  404  1  0.59447800  0.62323200  0.09568700  1
  C  417  1  0.62915800  0.39537500  0.35035200  1
  C  418  1  0.65519200  0.39507100  0.35244200  1
  C  419  1  0.67131700  0.38955300  0.33302700  1
  C  420  1  0.66113300  0.38362800  0.31023900  1
  C  421  1  0.63486200  0.38472800  0.30790200  1
  C  422  1  0.61934200  0.38990500  0.32774100  1
  C  425  1  0.61416600  0.40178700  0.37120600  1
  C  426  1  0.62048400  0.42240000  0.39335000  1
  C  427  1  0.60939100  0.42751900  0.41527700  1
  C  428  1  0.59192600  0.41097400  0.41542500  1
  C  429  1  0.58331800  0.39161600  0.39308500  1
  C  430  1  0.59442100  0.38724600  0.37123800  1
  C  443  1  0.62916600  0.86963900  0.59913800  1
  C  444  1  0.65520100  0.87201000  0.59940100  1
  C  445  1  0.67133000  0.85811400  0.60491700  1
  C  446  1  0.66114900  0.84126200  0.61086000  1
  C  447  1  0.63487700  0.83784600  0.60979400  1
  C  448  1  0.61935300  0.85251700  0.60463400  1
  C  451  1  0.61416400  0.88408400  0.59273500  1
  C  452  1  0.62044700  0.88557600  0.57209400  1
  C  453  1  0.60939500  0.90242000  0.56700100  1
  C  454  1  0.59200400  0.91917500  0.58359400  1
  C  455  1  0.58342200  0.91623800  0.60298600  1
  C  456  1  0.59448700  0.89872900  0.60733300  1
  C  469  1  0.89606500  0.39470700  0.12397600  1
  C  470  1  0.87006200  0.39438200  0.12139100  1
  C  471  1  0.85382700  0.38854700  0.13497800  1
  C  472  1  0.86389500  0.38245600  0.15177000  1
  C  473  1  0.89013900  0.38361900  0.15539000  1
  C  474  1  0.90577500  0.38905200  0.14100400  1
  C  477  1  0.91119300  0.40174300  0.11015600  1
  C  478  1  0.90529200  0.42308300  0.10988000  1
  C  479  1  0.91617700  0.42887200  0.09346200  1
  C  480  1  0.93314100  0.41234000  0.07600000  1
  C  481  1  0.94131300  0.39206300  0.07765500  1
  C  482  1  0.93007900  0.38682900  0.09447200  1
  C  495  1  0.89601800  0.87050200  0.35050000  1
  C  496  1  0.87001400  0.87307700  0.35274000  1
  C  497  1  0.85379200  0.85949200  0.33330700  1
  C  498  1  0.86387700  0.84271000  0.31043000  1
  C  499  1  0.89012300  0.83909800  0.30798900  1
  C  500  1  0.90574700  0.85350500  0.32781300  1
  C  503  1  0.91112100  0.88434600  0.37137200  1
  C  504  1  0.90519600  0.88464600  0.39299600  1
  C  505  1  0.91604900  0.90109400  0.41520600  1
  C  506  1  0.93307500  0.91850900  0.41612200  1
  C  507  1  0.94128500  0.91680900  0.39418000  1
  C  508  1  0.93004900  0.89998800  0.37213000  1
  C  521  1  0.89612400  0.64393600  0.59979800  1
  C  522  1  0.87012000  0.64171600  0.60017500  1
  C  523  1  0.85390400  0.66115100  0.60601900  1
  C  524  1  0.86399500  0.68402200  0.61210000  1
  C  525  1  0.89024000  0.68644600  0.61088500  1
  C  526  1  0.90585500  0.66660500  0.60542700  1
  C  529  1  0.91121700  0.62304700  0.59271900  1
  C  530  1  0.90522800  0.60143600  0.57141100  1
  C  531  1  0.91606400  0.57920500  0.56559400  1
  C  532  1  0.93309000  0.57823800  0.58206400  1
  C  533  1  0.94134100  0.60016000  0.60231300  1
  C  534  1  0.93017500  0.62224600  0.60755500  1
  C  547  1  0.39605600  0.54476200  0.92552700  1
  C  548  1  0.37005200  0.54507800  0.92809700  1
  C  549  1  0.35382100  0.55091500  0.91451000  1
  C  550  1  0.36389700  0.55701300  0.89772600  1
  C  551  1  0.39014100  0.55585200  0.89411300  1
  C  552  1  0.40577400  0.55044000  0.90851600  1
  C  555  1  0.41118000  0.53772700  0.93935300  1
  C  556  1  0.40525800  0.51640300  0.93965400  1
  C  557  1  0.41611200  0.51063400  0.95609700  1
  C  558  1  0.43312000  0.52714500  0.97352700  1
  C  559  1  0.44133100  0.54739000  0.97182800  1
  C  560  1  0.43010300  0.55261400  0.95499900  1
  C  573  1  0.39611000  0.06896000  0.69900500  1
  C  574  1  0.37010700  0.06637600  0.69674800  1
  C  575  1  0.35387500  0.07995900  0.71617200  1
  C  576  1  0.36394700  0.09674800  0.73905600  1
  C  577  1  0.39019100  0.10037200  0.74150700  1
  C  578  1  0.40582200  0.08598800  0.72168500  1
  C  581  1  0.41123700  0.05513900  0.67814400  1
  C  582  1  0.40533200  0.05486500  0.65652900  1
  C  583  1  0.41622100  0.03845600  0.63432200  1
  C  584  1  0.43319600  0.02100000  0.63339000  1
  C  585  1  0.44136800  0.02264800  0.65531900  1
  C  586  1  0.43012700  0.03945800  0.67737100  1
  C  599  1  0.39601900  0.29545200  0.44973800  1
  C  600  1  0.37001700  0.29770100  0.44940500  1
  C  601  1  0.35378800  0.27827200  0.44355600  1
  C  602  1  0.36386500  0.25539200  0.43745900  1
  C  603  1  0.39011000  0.25294200  0.43862500  1
  C  604  1  0.40574100  0.27276100  0.44404200  1
  C  607  1  0.41113200  0.31631400  0.45675300  1
  C  608  1  0.40522800  0.33794200  0.47807800  1
  C  609  1  0.41609900  0.36014300  0.48383200  1
  C  610  1  0.43312200  0.36104400  0.46732400  1
  C  611  1  0.44131100  0.33909400  0.44707900  1
  C  612  1  0.43005100  0.31705500  0.44185400  1
  C  625  1  0.91744000  0.74201900  0.20792000  1
  C  626  1  0.90562400  0.76225800  0.20856800  1
  C  627  1  0.90092900  0.78342100  0.23125200  1
  C  628  1  0.90822100  0.78420200  0.25303500  1
  C  629  1  0.92259200  0.76506800  0.25207500  1
  C  630  1  0.92702200  0.74375200  0.22946500  1
  C  631  1  0.88785400  0.80430100  0.23164700  1
  C  635  1  0.89735300  0.76145100  0.18574900  1
  C  639  1  0.93289500  0.76701600  0.27476800  1
  C  643  1  0.94092000  0.72319500  0.22899600  1
  C  647  1  0.91815800  0.72003000  0.18643500  1
  C  649  1  0.89648400  0.80006900  0.27470800  1
  C  651  1  0.91744300  0.38056100  0.25243200  1
  C  652  1  0.90561300  0.36098500  0.23219100  1
  C  653  1  0.90091100  0.36252800  0.21104200  1
  C  654  1  0.90822000  0.38353200  0.21027300  1
  C  655  1  0.92260600  0.40169100  0.22940800  1
  C  656  1  0.92703700  0.40037600  0.25071200  1
  C  657  1  0.88781500  0.34206000  0.19016200  1
  C  661  1  0.89733000  0.33896800  0.23298300  1
  C  665  1  0.93292600  0.42243500  0.22747100  1
  C  669  1  0.94094900  0.42044500  0.27127200  1
  C  673  1  0.91815800  0.38104500  0.27441200  1
  C  675  1  0.89649600  0.38935700  0.19441500  1
  C  677  1  0.91749500  0.78650300  0.61382800  1
  C  678  1  0.90568900  0.78585300  0.63342600  1
  C  679  1  0.90102300  0.76317100  0.63191900  1
  C  680  1  0.90830800  0.74139400  0.61090200  1
  C  681  1  0.92265600  0.74234700  0.59271700  1
  C  682  1  0.92708000  0.76496000  0.59401600  1
  C  683  1  0.88800100  0.76277800  0.65242900  1
  C  687  1  0.89740400  0.80866900  0.65543200  1
  C  691  1  0.93292400  0.71964900  0.57195700  1
  C  695  1  0.94097600  0.76543400  0.57393100  1
  C  699  1  0.91820400  0.80799000  0.61332600  1
  C  701  1  0.89655500  0.71973800  0.60514100  1
  C  703  1  0.41747400  0.19743300  0.84158000  1
  C  704  1  0.40566900  0.17718300  0.84092600  1
  C  705  1  0.40097000  0.15602300  0.81824200  1
  C  706  1  0.40827800  0.15526500  0.79647600  1
  C  707  1  0.42262300  0.17440200  0.79742000  1
  C  708  1  0.42703700  0.19571900  0.82003400  1
  C  709  1  0.38789600  0.13513900  0.81783800  1
  C  713  1  0.39741400  0.17797600  0.86374200  1
  C  717  1  0.43291800  0.17246300  0.77472800  1
  C  721  1  0.44090400  0.21629100  0.82050800  1
  C  725  1  0.41819000  0.21941300  0.86307400  1
  C  727  1  0.39653700  0.13940000  0.77480000  1
  C  729  1  0.41743900  0.55882300  0.79701600  1
  C  730  1  0.40563300  0.57842100  0.81725800  1
  C  731  1  0.40093600  0.57690300  0.83842100  1
  C  732  1  0.40821500  0.55589700  0.83920300  1
  C  733  1  0.42257500  0.53771300  0.82006300  1
  C  734  1  0.42700900  0.53900700  0.79874800  1
  C  735  1  0.38787600  0.59739700  0.85930700  1
  C  739  1  0.39737000  0.60043400  0.81645100  1
  C  743  1  0.43286300  0.51696200  0.82200800  1
  C  747  1  0.44089600  0.51891300  0.77818800  1
  C  751  1  0.41816300  0.55832300  0.77502900  1
  C  753  1  0.39647600  0.55010100  0.85507500  1
  C  755  1  0.41740900  0.15285700  0.43560100  1
  C  756  1  0.40559300  0.15351300  0.41601300  1
  C  757  1  0.40089700  0.17620000  0.41754300  1
  C  758  1  0.40819500  0.19797800  0.43854900  1
  C  759  1  0.42256900  0.19701100  0.45671800  1
  C  760  1  0.42699600  0.17439700  0.45541600  1
  C  761  1  0.38782200  0.17660400  0.39706300  1
  C  765  1  0.39731600  0.13070000  0.39400100  1
  C  769  1  0.43287700  0.21969900  0.47746500  1
  C  773  1  0.44089800  0.17391700  0.47549500  1
  C  777  1  0.41811800  0.13136700  0.43609700  1
  C  779  1  0.39646300  0.21965400  0.44436200  1
  C  781  1  0.10807500  0.55823300  0.84203000  1
  C  782  1  0.12001200  0.57765800  0.84116100  1
  C  783  1  0.12439500  0.57604300  0.81838600  1
  C  784  1  0.11673300  0.55508000  0.79673200  1
  C  785  1  0.10228800  0.53709000  0.79794400  1
  C  786  1  0.09812000  0.53850200  0.82064400  1
  C  787  1  0.13750700  0.59639800  0.81777000  1
  C  791  1  0.12872000  0.59959300  0.86382900  1
  C  795  1  0.09163600  0.51642000  0.77541200  1
  C  799  1  0.08409000  0.51860700  0.82135900  1
  C  803  1  0.10745900  0.55787000  0.86359100  1
  C  805  1  0.12831100  0.54907700  0.77492700  1
  C  807  1  0.10807500  0.15241100  0.79595500  1
  C  808  1  0.11996600  0.15328300  0.81627000  1
  C  809  1  0.12435200  0.17605800  0.83742500  1
  C  810  1  0.11670500  0.19770200  0.83810000  1
  C  811  1  0.10231000  0.19650400  0.81887200  1
  C  812  1  0.09816700  0.17380200  0.79757700  1
  C  813  1  0.13744200  0.17668800  0.85841000  1
  C  817  1  0.12862500  0.13061400  0.81556500  1
  C  821  1  0.09166500  0.21903300  0.82071900  1
  C  825  1  0.08421100  0.17308900  0.77693300  1
  C  829  1  0.10746300  0.13084100  0.77404200  1
  C  831  1  0.12828500  0.21952000  0.85387500  1
  C  833  1  0.10803100  0.19849600  0.43625500  1
  C  834  1  0.11996600  0.17819800  0.41683500  1
  C  835  1  0.12435800  0.15705100  0.41846700  1
  C  836  1  0.11668300  0.15634700  0.43941900  1
  C  837  1  0.10222700  0.17555700  0.45740000  1
  C  838  1  0.09807000  0.19684800  0.45598800  1
  C  839  1  0.13750500  0.13609100  0.39813800  1
  C  843  1  0.12867400  0.17892200  0.39489600  1
  C  847  1  0.09153000  0.17369700  0.47805800  1
  C  851  1  0.08405300  0.21746800  0.47588500  1
  C  855  1  0.10741600  0.22041600  0.43661100  1
  C  857  1  0.12822900  0.14056900  0.44547100  1
  C  859  1  0.60808100  0.38120000  0.20745800  1
  C  860  1  0.61995500  0.36175500  0.20833800  1
  C  861  1  0.62434500  0.36339000  0.23111800  1
  C  862  1  0.61672700  0.38437100  0.25277600  1
  C  863  1  0.60232900  0.40238600  0.25154900  1
  C  864  1  0.59818100  0.40097300  0.22884500  1
  C  865  1  0.63742300  0.34303200  0.23175300  1
  C  869  1  0.62860100  0.33977900  0.18567300  1
  C  873  1  0.59168400  0.42307800  0.27407200  1
  C  877  1  0.58424000  0.42090800  0.22812600  1
  C  881  1  0.60746600  0.38152600  0.18587800  1
  C  883  1  0.62828800  0.39040900  0.27459400  1
  C  885  1  0.60804000  0.78698300  0.25352300  1
  C  886  1  0.61998800  0.78610800  0.23323000  1
  C  887  1  0.62437400  0.76333200  0.21207600  1
  C  888  1  0.61669900  0.74168100  0.21138700  1
  C  889  1  0.60224000  0.74289900  0.23058400  1
  C  890  1  0.59807400  0.76560200  0.25186900  1
  C  891  1  0.63750300  0.76270800  0.19111000  1
  C  895  1  0.62870300  0.80877400  0.23396300  1
  C  899  1  0.59157200  0.72037200  0.22872200  1
  C  903  1  0.58403300  0.76632500  0.27247600  1
  C  907  1  0.60742700  0.80854400  0.27544500  1
  C  909  1  0.62827400  0.71987200  0.19559400  1
  C  911  1  0.60808800  0.74092500  0.61328900  1
  C  912  1  0.61997700  0.76124100  0.63273600  1
  C  913  1  0.62436900  0.78239500  0.63111900  1
  C  914  1  0.61672300  0.78307300  0.61015000  1
  C  915  1  0.60233100  0.76384700  0.59211700  1
  C  916  1  0.59818700  0.74255000  0.59352100  1
  C  917  1  0.63746000  0.80337700  0.65147500  1
  C  921  1  0.62862700  0.76053500  0.65470300  1
  C  925  1  0.59168900  0.76569400  0.57143300  1
  C  929  1  0.58423400  0.72190700  0.57358700  1
  C  933  1  0.60747400  0.71901200  0.61294600  1
  C  935  1  0.62830100  0.79885400  0.60411300  1
  C  937  1  0.78906500  0.64610500  0.12339400  1
  C  938  1  0.77538100  0.65551000  0.11087600  1
  C  939  1  0.74892000  0.65470000  0.11087800  1
  C  940  1  0.73658000  0.64519600  0.12400800  1
  C  941  1  0.75024700  0.63725100  0.13778400  1
  C  942  1  0.77671200  0.63738300  0.13720400  1
  C  943  1  0.73338700  0.66331300  0.09716700  1
  C  947  1  0.78837900  0.66599600  0.09750300  1
  C  951  1  0.73727900  0.62844700  0.15271400  1
  C  955  1  0.79097500  0.62800100  0.15097800  1
  C  959  1  0.81457000  0.64345500  0.12038600  1
  C  961  1  0.71106800  0.64162100  0.12157800  1
  C  963  1  0.78907500  0.39191500  0.34833800  1
  C  964  1  0.77537600  0.37000000  0.33893300  1
  C  965  1  0.74891700  0.37082800  0.33975200  1
  C  966  1  0.73659100  0.39347100  0.34925500  1
  C  967  1  0.75027100  0.41518400  0.35719700  1
  C  968  1  0.77673600  0.41445400  0.35706300  1
  C  969  1  0.73336900  0.34851600  0.33114800  1
  C  973  1  0.78835700  0.34613100  0.32843800  1
  C  977  1  0.73732000  0.43892300  0.36599800  1
  C  981  1  0.79101800  0.43760100  0.36644800  1
  C  985  1  0.81457900  0.39153300  0.35097500  1
  C  987  1  0.71107900  0.39463200  0.35283600  1
  C  989  1  0.78909500  0.87104400  0.60250000  1
  C  990  1  0.77541100  0.88355800  0.62442500  1
  C  991  1  0.74895000  0.88355300  0.62361900  1
  C  992  1  0.73660800  0.87041800  0.60098400  1
  C  993  1  0.75027100  0.85664800  0.57926100  1
  C  994  1  0.77673600  0.85723300  0.57997100  1
  C  995  1  0.73341900  0.89725500  0.64594400  1
  C  999  1  0.78841000  0.89693500  0.64828400  1
  C  1003  1  0.73730200  0.84172300  0.55552800  1
  C  1007  1  0.79099900  0.84346000  0.55681300  1
  C  1011  1  0.81459900  0.87405700  0.60286000  1
  C  1013  1  0.71109600  0.87285300  0.59984800  1
  C  1015  1  0.28907700  0.29331100  0.92609200  1
  C  1016  1  0.27539100  0.28390500  0.93860800  1
  C  1017  1  0.24893000  0.28470600  0.93859800  1
  C  1018  1  0.23659500  0.29419700  0.92545200  1
  C  1019  1  0.25026000  0.30214500  0.91168000  1
  C  1020  1  0.27672500  0.30202700  0.91227600  1
  C  1021  1  0.23339500  0.27610000  0.95231200  1
  C  1025  1  0.28838800  0.27342100  0.95198400  1
  C  1029  1  0.23729400  0.31093600  0.89673900  1
  C  1033  1  0.29099200  0.31141400  0.89850600  1
  C  1037  1  0.31458100  0.29596600  0.92910900  1
  C  1039  1  0.21108300  0.29777300  0.92788100  1
  C  1041  1  0.28906800  0.54746900  0.70111700  1
  C  1042  1  0.27538500  0.56939300  0.71052400  1
  C  1043  1  0.24892400  0.56858600  0.70971900  1
  C  1044  1  0.23658000  0.54595100  0.70021400  1
  C  1045  1  0.25024400  0.52422900  0.69226600  1
  C  1046  1  0.27670900  0.52493900  0.69239700  1
  C  1047  1  0.23339300  0.59091000  0.71833600  1
  C  1051  1  0.28838600  0.59325200  0.72100900  1
  C  1055  1  0.23727400  0.50049700  0.68346000  1
  C  1059  1  0.29097200  0.50178100  0.68301700  1
  C  1063  1  0.31457400  0.54782500  0.69846500  1
  C  1065  1  0.21106600  0.54481100  0.69664300  1
  C  1067  1  0.28902900  0.06833300  0.44699500  1
  C  1068  1  0.27533200  0.05582600  0.42507700  1
  C  1069  1  0.24887200  0.05583100  0.42590300  1
  C  1070  1  0.23654100  0.06896300  0.44854400  1
  C  1071  1  0.25022000  0.08272900  0.47025800  1
  C  1072  1  0.27668500  0.08214000  0.46953200  1
  C  1073  1  0.23332800  0.04212600  0.40358600  1
  C  1077  1  0.28831600  0.04246100  0.40121000  1
  C  1081  1  0.23726500  0.09766400  0.49399900  1
  C  1085  1  0.29096100  0.09590100  0.49268200  1
  C  1089  1  0.31453300  0.06531800  0.44661700  1
  C  1091  1  0.21102900  0.06654000  0.44969900  1
  C  1093  1  0.23614000  0.54779100  0.92762800  1
  C  1094  1  0.24955200  0.56988900  0.94009700  1
  C  1095  1  0.27602600  0.56941300  0.94016100  1
  C  1096  1  0.28865700  0.54692300  0.92718600  1
  C  1097  1  0.27526300  0.52500500  0.91354000  1
  C  1098  1  0.24878900  0.52539500  0.91400900  1
  C  1099  1  0.29128800  0.59194300  0.95376100  1
  C  1103  1  0.23626000  0.59359900  0.95336600  1
  C  1107  1  0.28853100  0.50139800  0.89886100  1
  C  1111  1  0.23482400  0.50204500  0.90032600  1
  C  1115  1  0.21060700  0.54788300  0.93039800  1
  C  1117  1  0.31420200  0.54615100  0.92969300  1
  C  1119  1  0.23619500  0.06685000  0.69997100  1
  C  1120  1  0.24961600  0.05437400  0.70958600  1
  C  1121  1  0.27608900  0.05431000  0.70903300  1
  C  1122  1  0.28870800  0.06729200  0.69951900  1
  C  1123  1  0.27530600  0.08094500  0.69126000  1
  C  1124  1  0.24883200  0.08047000  0.69118800  1
  C  1125  1  0.29136200  0.04069700  0.71794100  1
  C  1129  1  0.23633600  0.04110600  0.72003400  1
  C  1133  1  0.28856000  0.09563800  0.68234000  1
  C  1137  1  0.23485500  0.09415500  0.68153000  1
  C  1141  1  0.21066300  0.06406800  0.69729000  1
  C  1143  1  0.31425400  0.06478800  0.69622300  1
  C  1145  1  0.23611200  0.29450300  0.44666300  1
  C  1146  1  0.24952400  0.28487700  0.42456700  1
  C  1147  1  0.27599800  0.28541900  0.42504600  1
  C  1148  1  0.28862700  0.29493700  0.44753900  1
  C  1149  1  0.27523000  0.30320100  0.46945400  1
  C  1150  1  0.24875600  0.30328200  0.46906100  1
  C  1151  1  0.29126200  0.27649700  0.40251900  1
  C  1155  1  0.23623600  0.27443600  0.40085600  1
  C  1159  1  0.28849400  0.31212300  0.49306400  1
  C  1163  1  0.23478900  0.31295100  0.49241200  1
  C  1167  1  0.21058100  0.29718400  0.44657100  1
  C  1169  1  0.31417000  0.29821900  0.44831800  1
  C  1171  1  0.73614900  0.39163200  0.12184200  1
  C  1172  1  0.74957700  0.36954500  0.10937000  1
  C  1173  1  0.77605000  0.37004100  0.10931000  1
  C  1174  1  0.78866600  0.39253800  0.12229800  1
  C  1175  1  0.77525400  0.41444600  0.13595400  1
  C  1176  1  0.74878100  0.41403700  0.13546900  1
  C  1177  1  0.79132900  0.34752500  0.09569700  1
  C  1181  1  0.73630400  0.34582500  0.09609900  1
  C  1185  1  0.78850300  0.43806000  0.15065900  1
  C  1189  1  0.73479800  0.43737900  0.14915100  1
  C  1193  1  0.71061600  0.39152200  0.11906400  1
  C  1195  1  0.81421100  0.39333800  0.11980800  1
  C  1197  1  0.73610800  0.87260500  0.34953900  1
  C  1198  1  0.74951400  0.88507300  0.33990700  1
  C  1199  1  0.77598800  0.88513800  0.34044100  1
  C  1200  1  0.78862300  0.87216700  0.34995800  1
  C  1201  1  0.77523500  0.85852000  0.35823300  1
  C  1202  1  0.74876100  0.85899100  0.35831900  1
  C  1203  1  0.79124600  0.89873700  0.33150700  1
  C  1207  1  0.73621700  0.89833800  0.32946300  1
  C  1211  1  0.78850800  0.84384400  0.36716100  1
  C  1215  1  0.73480100  0.84531000  0.36799200  1
  C  1219  1  0.71057600  0.87537500  0.35222300  1
  C  1221  1  0.81416800  0.87468000  0.35323900  1
  C  1223  1  0.73621200  0.64495700  0.60288600  1
  C  1224  1  0.74962900  0.65456600  0.62497800  1
  C  1225  1  0.77610300  0.65401500  0.62449200  1
  C  1226  1  0.78872500  0.64451700  0.60199800  1
  C  1227  1  0.77532400  0.63627000  0.58008600  1
  C  1228  1  0.74885000  0.63618900  0.58048500  1
  C  1229  1  0.79137300  0.66290800  0.64701200  1
  C  1233  1  0.73634700  0.66500300  0.64868900  1
  C  1237  1  0.78858200  0.62737300  0.55647900  1
  C  1241  1  0.73487500  0.62653600  0.55714000  1
  C  1245  1  0.71067900  0.64226900  0.60298100  1
  C  1247  1  0.81426800  0.64121300  0.60120300  1
  C  1249  1  0.02847000  0.57716200  0.00595400  1
  C  1250  1  0.01932000  0.60004200  0.01073500  1
  C  1251  1  0.00224300  0.61298300  0.03019900  1
  C  1252  1  0.99721000  0.60465900  0.04669000  1
  C  1253  1  0.00934100  0.58355000  0.04358500  1
  C  1254  1  0.02173900  0.56817700  0.02152700  1
  C  1255  1  0.98962000  0.63563700  0.03442900  1
  C  1259  1  0.02658200  0.61007700  0.99493500  1
  C  1263  1  0.01070500  0.57778200  0.06356900  1
  C  1267  1  0.02540700  0.54236600  0.01485700  1
  C  1271  1  0.04352700  0.56294200  0.98603100  1
  C  1273  1  0.97928200  0.61590500  0.06491700  1
  C  1275  1  0.02843400  0.34338600  0.41727000  1
  C  1276  1  0.01931600  0.32532800  0.39435700  1
  C  1277  1  0.00224700  0.33189600  0.38144600  1
  C  1278  1  0.99719800  0.35672200  0.38983800  1
  C  1279  1  0.00930800  0.37469300  0.41098400  1
  C  1280  1  0.02169600  0.36795200  0.42631900  1
  C  1281  1  0.98964800  0.31350700  0.35875700  1
  C  1285  1  0.02660800  0.29949100  0.38424900  1
  C  1289  1  0.01064000  0.40047600  0.41684500  1
  C  1293  1  0.02536600  0.38703900  0.45214800  1
  C  1297  1  0.04348200  0.33763300  0.43145800  1
  C  1299  1  0.97928400  0.36374600  0.37861700  1
  C  1301  1  0.02852000  0.98852600  0.65105700  1
  C  1302  1  0.01938500  0.98366900  0.66910900  1
  C  1303  1  0.00230100  0.96420100  0.66253800  1
  C  1304  1  0.99725600  0.94776600  0.63770900  1
  C  1305  1  0.00938200  0.95094100  0.61974500  1
  C  1306  1  0.02176500  0.97301900  0.62649200  1
  C  1307  1  0.98967300  0.95992300  0.68092700  1
  C  1311  1  0.02668700  0.99938300  0.69494600  1
  C  1315  1  0.01077300  0.93100800  0.59397000  1
  C  1319  1  0.02543100  0.97977100  0.60741000  1
  C  1323  1  0.04358100  0.00846500  0.65682300  1
  C  1325  1  0.97935300  0.92950500  0.63066800  1
  C  1327  1  0.52846200  0.36226700  0.04352700  1
  C  1328  1  0.51928300  0.33940100  0.03876400  1
  C  1329  1  0.50220600  0.32646300  0.01929900  1
  C  1330  1  0.49720000  0.33477800  0.00279500  1
  C  1331  1  0.50936700  0.35586300  0.00587800  1
  C  1332  1  0.52176100  0.37124100  0.02793700  1
  C  1333  1  0.48955700  0.30382700  0.01508300  1
  C  1337  1  0.52652400  0.32937300  0.05457600  1
  C  1341  1  0.51075300  0.36160700  0.98587900  1
  C  1345  1  0.52552300  0.39702600  0.03456300  1
  C  1349  1  0.54351900  0.37648400  0.06345400  1
  C  1351  1  0.47927100  0.32354100  0.98456900  1
  C  1353  1  0.52850500  0.59602600  0.63225600  1
  C  1354  1  0.51940100  0.61406700  0.65518600  1
  C  1355  1  0.50231900  0.60748800  0.66807800  1
  C  1356  1  0.49723000  0.58266100  0.65964400  1
  C  1357  1  0.50930900  0.56470000  0.63847200  1
  C  1358  1  0.52172000  0.57146500  0.62316600  1
  C  1359  1  0.48974700  0.62586200  0.69079100  1
  C  1363  1  0.52672800  0.63990100  0.66533300  1
  C  1367  1  0.51062300  0.53890400  0.63257000  1
  C  1371  1  0.52535100  0.55241000  0.59731700  1
  C  1375  1  0.54357300  0.60179300  0.61809100  1
  C  1377  1  0.47931500  0.57563700  0.67086500  1
  C  1379  1  0.52844500  0.95093000  0.39857300  1
  C  1380  1  0.51929200  0.95566000  0.38044200  1
  C  1381  1  0.50221200  0.97511600  0.38693100  1
  C  1382  1  0.49718700  0.99164900  0.41174100  1
  C  1383  1  0.50933900  0.98859600  0.42976900  1
  C  1384  1  0.52172500  0.96654300  0.42312400  1
  C  1385  1  0.48957500  0.97929100  0.36847900  1
  C  1389  1  0.52654700  0.93981600  0.35461400  1
  C  1393  1  0.51070600  0.00861700  0.45550500  1
  C  1397  1  0.52539900  0.95992800  0.44230200  1
  C  1401  1  0.54351600  0.93103000  0.39292300  1
  C  1403  1  0.47924100  0.00986000  0.41870300  1
  C  1405  1  0.99705700  0.36342100  0.04503300  1
  C  1406  1  0.00522700  0.33967300  0.03822800  1
  C  1407  1  0.02229000  0.32754000  0.01860600  1
  C  1408  1  0.02847300  0.33786800  0.00404000  1
  C  1409  1  0.01779100  0.36035800  0.00936600  1
  C  1410  1  0.00492900  0.37438600  0.03151400  1
  C  1411  1  0.03376600  0.30375500  0.01226900  1
  C  1415  1  0.99669100  0.32767900  0.05190300  1
  C  1419  1  0.01856700  0.36918400  0.99162300  1
  C  1423  1  0.00158500  0.40081200  0.04052800  1
  C  1427  1  0.98158000  0.37644400  0.06491200  1
  C  1429  1  0.04588800  0.32681300  0.98531400  1
  C  1431  1  0.99707400  0.59665100  0.63131100  1
  C  1432  1  0.00527100  0.61347700  0.65508500  1
  C  1433  1  0.02237500  0.60587600  0.66709200  1
  C  1434  1  0.02858600  0.58097300  0.65659500  1
  C  1435  1  0.01792800  0.56391400  0.63405200  1
  C  1436  1  0.00500300  0.57217300  0.62017200  1
  C  1437  1  0.03385100  0.62320200  0.69092100  1
  C  1441  1  0.99668700  0.63914000  0.66725900  1
  C  1445  1  0.01880200  0.53730400  0.62500300  1
  C  1449  1  0.00165100  0.55492700  0.59370700  1
  C  1453  1  0.98154300  0.60362200  0.61842200  1
  C  1455  1  0.04597000  0.57319900  0.66758500  1
  C  1457  1  0.99706500  0.94939100  0.39820200  1
  C  1458  1  0.00527700  0.95615100  0.38123700  1
  C  1459  1  0.02234600  0.97576800  0.38871300  1
  C  1460  1  0.02850500  0.99036300  0.41360700  1
  C  1461  1  0.01779300  0.98508200  0.43079000  1
  C  1462  1  0.00490100  0.96295400  0.42269700  1
  C  1463  1  0.03384000  0.98209000  0.37126100  1
  C  1467  1  0.99679200  0.94242600  0.35555300  1
  C  1471  1  0.01858100  0.00285700  0.45735100  1
  C  1475  1  0.00150900  0.95399200  0.44014600  1
  C  1479  1  0.98159900  0.92951000  0.39135400  1
  C  1481  1  0.04592900  0.00907800  0.42125800  1
  C  1483  1  0.49707400  0.57603200  0.00445200  1
  C  1484  1  0.50528000  0.59977300  0.01126600  1
  C  1485  1  0.52234900  0.61188100  0.03089000  1
  C  1486  1  0.52851900  0.60152300  0.04543000  1
  C  1487  1  0.51781500  0.57904200  0.04009900  1
  C  1488  1  0.50491400  0.56504900  0.01796500  1
  C  1489  1  0.53383500  0.63567100  0.03726800  1
  C  1493  1  0.49678200  0.61178600  0.99759700  1
  C  1497  1  0.51864400  0.57017800  0.05781100  1
  C  1501  1  0.50149900  0.53862900  0.00895000  1
  C  1505  1  0.48159700  0.56303500  0.98456600  1
  C  1507  1  0.54593600  0.61256500  0.06415700  1
  C  1509  1  0.49708500  0.34327700  0.41863800  1
  C  1510  1  0.50526900  0.32628300  0.39491300  1
  C  1511  1  0.52231000  0.33372900  0.38272600  1
  C  1512  1  0.52846000  0.35862000  0.39297500  1
  C  1513  1  0.51775400  0.37583000  0.41543100  1
  C  1514  1  0.50491000  0.36777100  0.42951900  1
  C  1515  1  0.53380100  0.31623500  0.35896500  1
  C  1519  1  0.49678700  0.30059900  0.38300400  1
  C  1523  1  0.51850200  0.40238000  0.42416000  1
  C  1527  1  0.50151800  0.38526900  0.45592000  1
  C  1531  1  0.48164300  0.33645700  0.43171300  1
  C  1533  1  0.54588100  0.36624900  0.38188500  1
  C  1535  1  0.49712100  0.99001300  0.65128600  1
  C  1536  1  0.50527700  0.98320300  0.66823000  1
  C  1537  1  0.52233800  0.96357800  0.66074600  1
  C  1538  1  0.52855100  0.94903400  0.63586100  1
  C  1539  1  0.51789800  0.95436400  0.61869000  1
  C  1540  1  0.50501600  0.97650200  0.62680500  1
  C  1541  1  0.53377000  0.95720200  0.67818300  1
  C  1545  1  0.49673400  0.99687800  0.69389800  1
  C  1549  1  0.51875100  0.93664300  0.59211800  1
  C  1553  1  0.50165100  0.98551000  0.60939000  1
  C  1557  1  0.48164500  0.00989200  0.65813900  1
  C  1559  1  0.54596000  0.93030400  0.62820600  1
  C  1561  1  0.90764700  0.48684000  0.09741800  1
  C  1562  1  0.90585500  0.50808300  0.12046700  1
  C  1563  1  0.90054500  0.53062900  0.12196700  1
  C  1564  1  0.89727300  0.53155100  0.10035900  1
  C  1565  1  0.89696800  0.51004400  0.07744900  1
  C  1566  1  0.90163200  0.48746100  0.07607500  1
  C  1567  1  0.89906700  0.55380300  0.14565600  1
  C  1571  1  0.90937200  0.50696200  0.14311100  1
  C  1575  1  0.89225700  0.51069000  0.05464100  1
  C  1579  1  0.90041600  0.46472500  0.05207300  1
  C  1583  1  0.91948500  0.46667200  0.09556200  1
  C  1585  1  0.89501300  0.55384300  0.10178800  1
  C  1587  1  0.90749600  0.52522900  0.50759300  1
  C  1588  1  0.90574500  0.52704500  0.48635000  1
  C  1589  1  0.90045600  0.50600600  0.46379300  1
  C  1590  1  0.89715700  0.48347100  0.46285400  1
  C  1591  1  0.89679800  0.48205800  0.48435300  1
  C  1592  1  0.90144000  0.50326000  0.50694500  1
  C  1593  1  0.89902600  0.50653100  0.44062000  1
  C  1597  1  0.90927500  0.55081400  0.48748800  1
  C  1601  1  0.89205300  0.45860100  0.48369100  1
  C  1605  1  0.90017000  0.50198900  0.52967600  1
  C  1609  1  0.91934500  0.54352700  0.52776200  1
  C  1611  1  0.89492700  0.46261300  0.44055500  1
  C  1613  1  0.90757900  0.89710900  0.46921100  1
  C  1614  1  0.90579300  0.87404600  0.46738100  1
  C  1615  1  0.90048600  0.87251800  0.48841200  1
  C  1616  1  0.89719300  0.89410800  0.51095200  1
  C  1617  1  0.89687800  0.91702900  0.51238200  1
  C  1618  1  0.90155000  0.91843000  0.49118800  1
  C  1619  1  0.89901600  0.84881300  0.48786900  1
  C  1623  1  0.90931200  0.85141600  0.44360500  1
  C  1627  1  0.89214700  0.93981900  0.53584300  1
  C  1631  1  0.90033200  0.94244300  0.49248200  1
  C  1635  1  0.91940600  0.89897500  0.45090100  1
  C  1637  1  0.89494000  0.89265500  0.53180200  1
  C  1639  1  0.40763800  0.45265400  0.95213700  1
  C  1640  1  0.40587800  0.43142000  0.92907700  1
  C  1641  1  0.40056400  0.40886300  0.92755100  1
  C  1642  1  0.39727800  0.40791700  0.94914500  1
  C  1643  1  0.39695400  0.42940900  0.97206500  1
  C  1644  1  0.40160100  0.45200500  0.97346200  1
  C  1645  1  0.39910000  0.38570000  0.90385000  1
  C  1649  1  0.40943100  0.43256300  0.90645000  1
  C  1653  1  0.39224000  0.42873700  0.99485700  1
  C  1657  1  0.40034000  0.47473100  0.99746900  1
  C  1661  1  0.41946400  0.47284400  0.95403100  1
  C  1663  1  0.39502200  0.38561400  0.94769200  1
  C  1665  1  0.40766700  0.41416300  0.54181700  1
  C  1666  1  0.40588500  0.41234000  0.56305200  1
  C  1667  1  0.40056200  0.43337200  0.58560300  1
  C  1668  1  0.39727200  0.45591000  0.58654400  1
  C  1669  1  0.39695900  0.45733000  0.56504600  1
  C  1670  1  0.40163400  0.43613300  0.54245600  1
  C  1671  1  0.39908700  0.43284000  0.60876900  1
  C  1675  1  0.40942900  0.38857100  0.56191500  1
  C  1679  1  0.39222300  0.48078700  0.56570900  1
  C  1683  1  0.40041100  0.43742000  0.51973200  1
  C  1687  1  0.41948600  0.39585700  0.52163200  1
  C  1689  1  0.39500900  0.47676200  0.60884200  1
  C  1691  1  0.40765800  0.04240400  0.58031100  1
  C  1692  1  0.40584600  0.06545300  0.58211200  1
  C  1693  1  0.40053100  0.06694800  0.56106400  1
  C  1694  1  0.39725700  0.04533900  0.53853600  1
  C  1695  1  0.39696500  0.02243100  0.53713500  1
  C  1696  1  0.40164500  0.02106200  0.55834500  1
  C  1697  1  0.39904100  0.09063600  0.56157400  1
  C  1701  1  0.40934000  0.08810200  0.60587700  1
  C  1705  1  0.39224500  0.99962200  0.51368700  1
  C  1709  1  0.40045500  0.99706200  0.55708200  1
  C  1713  1  0.41950600  0.04057600  0.59863100  1
  C  1715  1  0.39498800  0.04676400  0.51767200  1
  C  1717  1  0.11357600  0.41394100  0.95251500  1
  C  1718  1  0.11806500  0.41124000  0.92934700  1
  C  1719  1  0.12372500  0.43200300  0.92743800  1
  C  1720  1  0.12626800  0.45486900  0.94879100  1
  C  1721  1  0.12458700  0.45702800  0.97198900  1
  C  1722  1  0.11696600  0.43670000  0.97385100  1
  C  1723  1  0.12694700  0.43074800  0.90352700  1
  C  1727  1  0.11654800  0.38698100  0.90695700  1
  C  1731  1  0.13078500  0.48031200  0.99433700  1
  C  1735  1  0.11179000  0.43871200  0.99780200  1
  C  1739  1  0.10338800  0.39480300  0.95413600  1
  C  1741  1  0.12877000  0.47548800  0.94688100  1
  C  1743  1  0.11353700  0.04192700  0.54121000  1
  C  1744  1  0.11795200  0.06510500  0.56168900  1
  C  1745  1  0.12363200  0.06701700  0.58435800  1
  C  1746  1  0.12626000  0.04566700  0.58586000  1
  C  1747  1  0.12465400  0.02246700  0.56481200  1
  C  1748  1  0.11702700  0.02059100  0.54261600  1
  C  1749  1  0.12677800  0.09093500  0.60702700  1
  C  1753  1  0.11633900  0.08749700  0.55983100  1
  C  1757  1  0.13091300  0.00013200  0.56575200  1
  C  1761  1  0.11193200  0.99663000  0.52066500  1
  C  1765  1  0.10332500  0.04028400  0.52044900  1
  C  1767  1  0.12877300  0.04757400  0.60838500  1
  C  1769  1  0.11348100  0.45329400  0.58053400  1
  C  1770  1  0.11791400  0.43282300  0.58324200  1
  C  1771  1  0.12357700  0.41014600  0.56249000  1
  C  1772  1  0.12616200  0.40862100  0.53962200  1
  C  1773  1  0.12453500  0.42966100  0.53745800  1
  C  1774  1  0.11692300  0.45186400  0.55777500  1
  C  1775  1  0.12675100  0.38748800  0.56375300  1
  C  1779  1  0.11632900  0.43469700  0.60750100  1
  C  1783  1  0.13077600  0.42870900  0.51417300  1
  C  1787  1  0.11182700  0.47381100  0.55575700  1
  C  1791  1  0.10329900  0.47407000  0.59965400  1
  C  1793  1  0.12867400  0.38609000  0.51901000  1
  C  1795  1  0.61352500  0.52549200  0.09699100  1
  C  1796  1  0.61796700  0.52820000  0.12016900  1
  C  1797  1  0.62363000  0.50744600  0.12209200  1
  C  1798  1  0.62621700  0.48458200  0.10074800  1
  C  1799  1  0.62459300  0.48242000  0.07754300  1
  C  1800  1  0.61697300  0.50273700  0.07566300  1
  C  1801  1  0.62680400  0.50870700  0.14601100  1
  C  1805  1  0.61639600  0.55246000  0.14255500  1
  C  1809  1  0.63083700  0.45913900  0.05521000  1
  C  1813  1  0.61186000  0.50072000  0.05170000  1
  C  1817  1  0.60333400  0.54461600  0.09534800  1
  C  1819  1  0.62872100  0.46396700  0.10266300  1
  C  1821  1  0.61355900  0.89745200  0.50830900  1
  C  1822  1  0.61805600  0.87428000  0.48785200  1
  C  1823  1  0.62371500  0.87235500  0.46517400  1
  C  1824  1  0.62624900  0.89369800  0.46364100  1
  C  1825  1  0.62456700  0.91690300  0.48467300  1
  C  1826  1  0.61694400  0.91878100  0.50686800  1
  C  1827  1  0.62694500  0.84843600  0.44252600  1
  C  1831  1  0.61654200  0.85190000  0.48974000  1
  C  1835  1  0.63076600  0.93924300  0.48372100  1
  C  1839  1  0.61176500  0.94273700  0.52879700  1
  C  1843  1  0.60337400  0.89908900  0.52907800  1
  C  1845  1  0.62874500  0.89177500  0.44110700  1
  C  1847  1  0.61357400  0.48619900  0.46901100  1
  C  1848  1  0.61799500  0.50668000  0.46632000  1
  C  1849  1  0.62366500  0.52934900  0.48708000  1
  C  1850  1  0.62627300  0.53084700  0.50993300  1
  C  1851  1  0.62465200  0.50979800  0.51208200  1
  C  1852  1  0.61703400  0.48760300  0.49175700  1
  C  1853  1  0.62682100  0.55201900  0.48583800  1
  C  1857  1  0.61639400  0.50482700  0.44207100  1
  C  1861  1  0.63089200  0.51073100  0.53535700  1
  C  1865  1  0.61193200  0.46564700  0.49375700  1
  C  1869  1  0.60338000  0.46543500  0.44988600  1
  C  1871  1  0.62878400  0.55336900  0.53055400  1
  N  8  1  0.84781600  0.70296300  0.17146700  1
  N  15  1  0.94649800  0.56066700  0.06279200  1
  N  23  1  0.96204700  0.60298900  0.06656400  1
  N  24  1  0.91391700  0.56261000  0.09671600  1
  N  25  1  0.89798000  0.70800900  0.17867900  1
  N  26  1  0.82928400  0.65993300  0.13528100  1
  N  34  1  0.84781900  0.38313500  0.29147500  1
  N  41  1  0.94640800  0.41681500  0.43381800  1
  N  49  1  0.96202400  0.37827500  0.39152300  1
  N  50  1  0.91383300  0.44877000  0.43182100  1
  N  51  1  0.89798000  0.38531300  0.28643400  1
  N  52  1  0.82929000  0.38996700  0.33450100  1
  N  60  1  0.84786100  0.82295300  0.61124100  1
  N  67  1  0.94645300  0.93165300  0.57760100  1
  N  75  1  0.96214600  0.92778800  0.61605500  1
  N  76  1  0.91383100  0.89776800  0.54566400  1
  N  77  1  0.89802400  0.81573800  0.60905600  1
  N  78  1  0.82931700  0.85915700  0.60442900  1
  N  86  1  0.34784200  0.23646900  0.87803100  1
  N  93  1  0.44650800  0.37878100  0.98668600  1
  N  101  1  0.46204600  0.33646600  0.98292300  1
  N  102  1  0.41392400  0.37684400  0.95276500  1
  N  103  1  0.39800700  0.23142100  0.87084900  1
  N  104  1  0.32929800  0.27950000  0.91420200  1
  N  112  1  0.34782300  0.55624800  0.75796800  1
  N  119  1  0.44643600  0.52261800  0.61563900  1
  N  127  1  0.46202600  0.56115300  0.65795300  1
  N  128  1  0.41390000  0.49062100  0.61760400  1
  N  129  1  0.39798400  0.55406500  0.76300800  1
  N  130  1  0.32928900  0.54940400  0.71493900  1
  N  138  1  0.34777300  0.11641400  0.43821200  1
  N  145  1  0.44648200  0.00777100  0.47185300  1
  N  153  1  0.46204300  0.01155800  0.43331600  1
  N  154  1  0.41388200  0.04168000  0.50382000  1
  N  155  1  0.39793600  0.12362300  0.44037000  1
  N  156  1  0.32924400  0.08023000  0.44506000  1
  N  164  1  0.17774800  0.55567700  0.87878800  1
  N  171  1  0.08258900  0.52471500  0.99009400  1
  N  179  1  0.06734500  0.56474900  0.98743300  1
  N  180  1  0.11041300  0.49010200  0.95288600  1
  N  181  1  0.12760900  0.55343500  0.87125000  1
  N  182  1  0.19598100  0.54911500  0.91524900  1
  N  190  1  0.17776900  0.11564900  0.75669100  1
  N  197  1  0.08263600  0.00429600  0.61440600  1
  N  205  1  0.06739900  0.00700300  0.65711000  1
  N  206  1  0.11042900  0.04155000  0.61699200  1
  N  207  1  0.12762600  0.12314400  0.76197500  1
  N  208  1  0.19603100  0.07921500  0.71366900  1
  N  216  1  0.17771100  0.23778200  0.43877000  1
  N  223  1  0.08244500  0.38005100  0.46977000  1
  N  231  1  0.06730300  0.33734000  0.42972000  1
  N  232  1  0.11032400  0.37746900  0.50438800  1
  N  233  1  0.12757200  0.23250400  0.44103200  1
  N  234  1  0.19595500  0.28080300  0.44534400  1
  N  242  1  0.67776700  0.38366600  0.17063900  1
  N  249  1  0.58250600  0.41474200  0.05943600  1
  N  257  1  0.56733800  0.37467800  0.06207600  1
  N  258  1  0.61036600  0.44935100  0.09665900  1
  N  259  1  0.62763000  0.38588200  0.17816900  1
  N  260  1  0.69599400  0.39030000  0.13422300  1
  N  268  1  0.67771700  0.82375400  0.29282700  1
  N  275  1  0.58254300  0.93498200  0.43511900  1
  N  283  1  0.56733600  0.93238300  0.39244500  1
  N  284  1  0.61038800  0.89777900  0.43249800  1
  N  285  1  0.62758000  0.81620200  0.28754000  1
  N  286  1  0.69595000  0.86021400  0.33584600  1
  N  294  1  0.67778000  0.70166400  0.61079200  1
  N  301  1  0.58260200  0.55937700  0.57981200  1
  N  309  1  0.56739300  0.60206500  0.61983100  1
  N  310  1  0.61043300  0.56197900  0.54517600  1
  N  311  1  0.62763700  0.70694700  0.60858400  1
  N  312  1  0.69604400  0.65864800  0.60421600  1
  N  320  1  0.17661200  0.23594200  0.88411700  1
  N  327  1  0.08404200  0.38165600  0.99303100  1
  N  335  1  0.06456600  0.33914900  0.98519700  1
  N  336  1  0.11687400  0.37983300  0.95693900  1
  N  337  1  0.12367900  0.23239700  0.87658500  1
  N  338  1  0.19596700  0.28045500  0.91542000  1
  N  346  1  0.17662300  0.56287500  0.75848100  1
  N  353  1  0.08415000  0.52618200  0.61278600  1
  N  361  1  0.06479900  0.56104400  0.65527700  1
  N  362  1  0.11679800  0.49181600  0.61465400  1
  N  363  1  0.12368800  0.55892000  0.76206200  1
  N  364  1  0.19595200  0.54962800  0.71395200  1
  N  372  1  0.17658400  0.11033300  0.43166500  1
  N  379  1  0.08405700  0.00134400  0.46834300  1
  N  387  1  0.06469000  0.00902900  0.43353900  1
  N  388  1  0.11679400  0.03750000  0.50267400  1
  N  389  1  0.12365300  0.11785100  0.43560000  1
  N  390  1  0.19591700  0.07901800  0.44486400  1
  N  398  1  0.67660400  0.70344800  0.16535700  1
  N  405  1  0.58407900  0.55775500  0.05638500  1
  N  413  1  0.56472100  0.60023900  0.06406600  1
  N  414  1  0.61682300  0.55959200  0.09255500  1
  N  415  1  0.62367100  0.70700900  0.17288100  1
  N  416  1  0.69595200  0.65893200  0.13405300  1
  N  424  1  0.67660800  0.37657300  0.29100800  1
  N  431  1  0.58400700  0.41342200  0.43673000  1
  N  439  1  0.56453400  0.37874900  0.39422100  1
  N  440  1  0.61686600  0.44767200  0.43489900  1
  N  441  1  0.62368000  0.38056800  0.28746400  1
  N  442  1  0.69596300  0.38978700  0.33552200  1
  N  450  1  0.67663000  0.82908400  0.61790800  1
  N  457  1  0.58414600  0.93805900  0.58116400  1
  N  465  1  0.56475400  0.93036800  0.61596700  1
  N  466  1  0.61686600  0.90188300  0.54684300  1
  N  467  1  0.62369500  0.82156300  0.61394900  1
  N  468  1  0.69597900  0.86035000  0.60464700  1
  N  476  1  0.84835500  0.37519700  0.16371800  1
  N  483  1  0.94065500  0.41517300  0.05729200  1
  N  491  1  0.95809500  0.37719600  0.06186100  1
  N  492  1  0.90744900  0.44875300  0.09423100  1
  N  493  1  0.90124400  0.37952500  0.17173600  1
  N  494  1  0.82918600  0.38890400  0.13268300  1
  N  502  1  0.84835300  0.83074500  0.29121000  1
  N  509  1  0.94060800  0.93722400  0.43765300  1
  N  517  1  0.95810300  0.93257100  0.39509200  1
  N  518  1  0.90735700  0.90030700  0.43432100  1
  N  519  1  0.90124000  0.82274700  0.28755800  1
  N  520  1  0.82914800  0.86176100  0.33595200  1
  N  528  1  0.84847600  0.70325000  0.61938100  1
  N  535  1  0.94064000  0.55667400  0.57916300  1
  N  543  1  0.95816900  0.59914400  0.61709600  1
  N  544  1  0.90732600  0.56011500  0.54569800  1
  N  545  1  0.90136000  0.70686700  0.61493600  1
  N  546  1  0.82926000  0.65852100  0.60567200  1
  N  554  1  0.34836200  0.56426100  0.88576200  1
  N  561  1  0.44065200  0.52431700  0.99223800  1
  N  569  1  0.45811700  0.56225200  0.98762100  1
  N  570  1  0.40741600  0.49073400  0.95530800  1
  N  571  1  0.40125100  0.55992100  0.87774900  1
  N  572  1  0.32917900  0.55052500  0.91677600  1
  N  580  1  0.34841200  0.10869000  0.75827000  1
  N  587  1  0.44072100  0.00230300  0.61184700  1
  N  595  1  0.45815000  0.00685100  0.65438900  1
  N  596  1  0.40748000  0.03921700  0.61521000  1
  N  597  1  0.40129900  0.11672300  0.76194200  1
  N  598  1  0.32923300  0.07767000  0.71352500  1
  N  606  1  0.34833400  0.23617600  0.43020200  1
  N  613  1  0.44066300  0.38256200  0.47011900  1
  N  621  1  0.45811500  0.33997000  0.43220000  1
  N  622  1  0.40742500  0.37926400  0.50373900  1
  N  623  1  0.40122100  0.23250700  0.43453900  1
  N  624  1  0.32914600  0.28092000  0.44391900  1
