# generated using pymatgen
data_H24C41(NO)8
_symmetry_space_group_name_H-M   'P 1'
_cell_length_a   54.33550000
_cell_length_b   63.75910000
_cell_length_c   63.75990000
_cell_angle_alpha   90.00000000
_cell_angle_beta   90.00030000
_cell_angle_gamma   90.00000000
_symmetry_Int_Tables_number   1
_chemical_formula_structural   H24C41(NO)8
_chemical_formula_sum   'H1536 C2624 N512 O512'
_cell_volume   220888.68673518
_cell_formula_units_Z   64
loop_
 _symmetry_equiv_pos_site_id
 _symmetry_equiv_pos_as_xyz
  1  'x, y, z'
loop_
 _atom_site_type_symbol
 _atom_site_label
 _atom_site_symmetry_multiplicity
 _atom_site_fract_x
 _atom_site_fract_y
 _atom_site_fract_z
 _atom_site_occupancy
  H  26  1  0.94961400  0.19643000  0.40692800  1
  H  27  1  0.91684100  0.18900200  0.38343300  1
  H  28  1  0.92908600  0.14473700  0.44416600  1
  H  29  1  0.89633200  0.13757400  0.42088900  1
  H  30  1  0.85044800  0.15796300  0.41516400  1
  H  31  1  0.81827000  0.18218300  0.42252800  1
  H  32  1  0.83920900  0.21833100  0.37020500  1
  H  33  1  0.87136300  0.19446500  0.36316100  1
  H  34  1  0.85399100  0.15445500  0.34742400  1
  H  35  1  0.86294500  0.15509000  0.31113200  1
  H  36  1  0.93877400  0.15809700  0.32501100  1
  H  37  1  0.92975200  0.15698800  0.36126900  1
  H  38  1  0.91334100  0.12126900  0.38103500  1
  H  39  1  0.83759300  0.13517500  0.38354400  1
  H  40  1  0.82854900  0.09890900  0.38479100  1
  H  41  1  0.90437200  0.08499200  0.38183500  1
  H  44  1  0.79902000  0.21701000  0.41588500  1
  H  45  1  0.97298700  0.18850000  0.43845800  1
  H  47  1  0.92531600  0.15934500  0.28865900  1
  H  49  1  0.84203900  0.06253300  0.38624300  1
  H  75  1  0.44973800  0.32133700  0.56344700  1
  H  76  1  0.41696500  0.32875100  0.58694400  1
  H  77  1  0.42893000  0.37281900  0.52602800  1
  H  78  1  0.39618100  0.37997500  0.54932200  1
  H  79  1  0.35031300  0.35980400  0.55520300  1
  H  80  1  0.31813300  0.33558300  0.54785000  1
  H  81  1  0.33935300  0.29925400  0.59996400  1
  H  82  1  0.37150300  0.32313300  0.60700200  1
  H  83  1  0.35395700  0.36308400  0.62285500  1
  H  84  1  0.36289900  0.36246900  0.65914900  1
  H  85  1  0.43874800  0.35978800  0.64529000  1
  H  86  1  0.42973200  0.36086700  0.60902900  1
  H  87  1  0.41336700  0.39639600  0.58911500  1
  H  88  1  0.33760500  0.38251500  0.58693300  1
  H  89  1  0.32856800  0.41878400  0.58571700  1
  H  90  1  0.40441400  0.43267500  0.58833800  1
  H  93  1  0.29900000  0.30067700  0.55441100  1
  H  94  1  0.47300200  0.32919700  0.53183900  1
  H  96  1  0.42527800  0.35840500  0.68163700  1
  H  98  1  0.34207500  0.45515400  0.58411900  1
  H  124  1  0.19778800  0.83613100  0.92388500  1
  H  125  1  0.16514100  0.85963700  0.91606000  1
  H  126  1  0.18046900  0.80067300  0.87013800  1
  H  127  1  0.14780200  0.82382100  0.86264600  1
  H  128  1  0.10165600  0.82799600  0.88486500  1
  H  129  1  0.06957700  0.82035900  0.90909500  1
  H  130  1  0.08747700  0.87467100  0.94343300  1
  H  131  1  0.11953600  0.88193900  0.91967500  1
  H  132  1  0.10418000  0.89657900  0.87879400  1
  H  133  1  0.11314500  0.93288400  0.87959800  1
  H  134  1  0.18859900  0.91894600  0.88657000  1
  H  135  1  0.17962400  0.88271100  0.88521800  1
  H  136  1  0.16341700  0.86472900  0.84766500  1
  H  137  1  0.08778800  0.85786100  0.86067600  1
  H  138  1  0.07959000  0.85535800  0.82425300  1
  H  139  1  0.15519300  0.86288600  0.81128600  1
  H  142  1  0.04915000  0.82766600  0.94321200  1
  H  143  1  0.22232400  0.80534500  0.91546500  1
  H  145  1  0.17529000  0.95530600  0.88621400  1
  H  147  1  0.09648000  0.84884800  0.78813200  1
  H  173  1  0.69777300  0.68156500  0.04639900  1
  H  174  1  0.66513100  0.65805600  0.05422500  1
  H  175  1  0.68048600  0.71699500  0.10017100  1
  H  176  1  0.64782200  0.69384600  0.10766300  1
  H  177  1  0.60166800  0.68969200  0.08542100  1
  H  178  1  0.56958600  0.69732600  0.06119400  1
  H  179  1  0.58745600  0.64299300  0.02687700  1
  H  180  1  0.61952000  0.63572700  0.05063000  1
  H  181  1  0.60418200  0.62109800  0.09151000  1
  H  182  1  0.61314500  0.58479100  0.09069000  1
  H  183  1  0.68859300  0.59873100  0.08367900  1
  H  184  1  0.67962200  0.63496600  0.08504700  1
  H  185  1  0.66341800  0.65292900  0.12263000  1
  H  186  1  0.58779500  0.65985200  0.10961400  1
  H  187  1  0.57959900  0.66236900  0.14603700  1
  H  188  1  0.65519300  0.65478800  0.15900900  1
  H  191  1  0.54914600  0.69000900  0.02708600  1
  H  192  1  0.72232600  0.71233700  0.05483200  1
  H  194  1  0.67529000  0.56237100  0.08406200  1
  H  196  1  0.59649600  0.66886900  0.18215900  1
  H  222  1  0.56809100  0.32156000  0.40835800  1
  H  223  1  0.60028400  0.32890300  0.38414700  1
  H  224  1  0.58931300  0.37367300  0.44468900  1
  H  225  1  0.62147400  0.38070100  0.42081900  1
  H  226  1  0.66690100  0.36058800  0.41525900  1
  H  227  1  0.69966300  0.33708900  0.42268400  1
  H  228  1  0.67894300  0.29972000  0.37114000  1
  H  229  1  0.64620000  0.32301600  0.36397100  1
  H  230  1  0.66341900  0.36280900  0.34759900  1
  H  231  1  0.65451900  0.36202300  0.31131100  1
  H  232  1  0.57865500  0.35938200  0.32512200  1
  H  233  1  0.58763500  0.36060900  0.36140000  1
  H  234  1  0.60400700  0.39657200  0.38085300  1
  H  235  1  0.67975900  0.38265700  0.38316500  1
  H  236  1  0.68883000  0.41890600  0.38426900  1
  H  237  1  0.61300700  0.43285600  0.38149500  1
  H  240  1  0.72297300  0.30551900  0.41480000  1
  H  241  1  0.54893800  0.32812700  0.44325100  1
  H  243  1  0.59223000  0.35770700  0.28876500  1
  H  245  1  0.67543200  0.45526800  0.38553800  1
  H  271  1  0.06805900  0.19608000  0.56195800  1
  H  272  1  0.10024900  0.18874500  0.58617300  1
  H  273  1  0.08938400  0.14403800  0.52556900  1
  H  274  1  0.12154200  0.13701400  0.54944700  1
  H  275  1  0.16696000  0.15705500  0.55506400  1
  H  276  1  0.19973100  0.18055000  0.54764700  1
  H  277  1  0.17891800  0.21798000  0.59912000  1
  H  278  1  0.14616900  0.19468600  0.60628100  1
  H  279  1  0.16343600  0.15491200  0.62269300  1
  H  280  1  0.15453300  0.15569400  0.65898000  1
  H  281  1  0.07866400  0.15823900  0.64516600  1
  H  282  1  0.08764900  0.15702100  0.60888700  1
  H  283  1  0.10400300  0.12111700  0.58938500  1
  H  284  1  0.17976600  0.13500700  0.58719200  1
  H  285  1  0.18882300  0.09875500  0.58607900  1
  H  286  1  0.11298800  0.08483000  0.58873400  1
  H  289  1  0.22301500  0.21213700  0.55551800  1
  H  290  1  0.04893800  0.18953800  0.52704900  1
  H  292  1  0.09223700  0.15995200  0.68152200  1
  H  294  1  0.17539800  0.06240000  0.58467200  1
  H  320  1  0.31996000  0.68307900  0.92354500  1
  H  321  1  0.35205700  0.65887200  0.91586800  1
  H  322  1  0.33770800  0.71742700  0.86920100  1
  H  323  1  0.36980600  0.69371200  0.86190500  1
  H  324  1  0.41548600  0.68993100  0.88412100  1
  H  325  1  0.44811800  0.69770500  0.90765400  1
  H  326  1  0.43077900  0.64388300  0.94298400  1
  H  327  1  0.39814900  0.63642600  0.91979600  1
  H  328  1  0.41320300  0.62128200  0.87908200  1
  H  329  1  0.40427700  0.58498300  0.88003600  1
  H  330  1  0.32880700  0.59889300  0.88693800  1
  H  331  1  0.33775000  0.63514500  0.88546400  1
  H  332  1  0.35399000  0.65261200  0.84749600  1
  H  333  1  0.42958300  0.65973600  0.86053100  1
  H  334  1  0.43780400  0.66219700  0.82412600  1
  H  335  1  0.36225300  0.65438600  0.81111000  1
  H  338  1  0.47257900  0.68926600  0.93848500  1
  H  339  1  0.29944700  0.71716900  0.91622700  1
  H  341  1  0.34218900  0.56252000  0.88674300  1
  H  343  1  0.42091700  0.66875000  0.78804400  1
  H  369  1  0.81997300  0.83459600  0.04674100  1
  H  370  1  0.85206400  0.85880500  0.05442200  1
  H  371  1  0.83770300  0.80025900  0.10109600  1
  H  372  1  0.86980000  0.82397300  0.10839500  1
  H  373  1  0.91547200  0.82774800  0.08616800  1
  H  374  1  0.94810600  0.81997200  0.06264000  1
  H  375  1  0.93079900  0.87380900  0.02731900  1
  H  376  1  0.89816500  0.88126800  0.05050400  1
  H  377  1  0.91319900  0.89639900  0.09121800  1
  H  378  1  0.90427300  0.93269900  0.09026800  1
  H  379  1  0.82880300  0.91878900  0.08335700  1
  H  380  1  0.83774600  0.88253700  0.08483000  1
  H  381  1  0.85399700  0.86508700  0.12280000  1
  H  382  1  0.92958400  0.85793800  0.10976000  1
  H  383  1  0.93780900  0.85547400  0.14616500  1
  H  384  1  0.86226400  0.86331300  0.15918500  1
  H  387  1  0.97257500  0.82841000  0.03181100  1
  H  388  1  0.79944500  0.80051400  0.05406600  1
  H  390  1  0.84218300  0.95516200  0.08356300  1
  H  392  1  0.92092900  0.84893900  0.18225000  1
  H  418  1  0.07001000  0.82003500  0.56233600  1
  H  419  1  0.10265800  0.82788000  0.58583500  1
  H  420  1  0.08717200  0.87387200  0.52695400  1
  H  421  1  0.11984200  0.88138000  0.55008700  1
  H  422  1  0.16600900  0.85909700  0.55422000  1
  H  423  1  0.19809900  0.83487500  0.54659000  1
  H  424  1  0.18032000  0.80062400  0.60098600  1
  H  425  1  0.14825100  0.82437000  0.60824900  1
  H  426  1  0.16344900  0.86525600  0.62285900  1
  H  427  1  0.15440700  0.86447100  0.65915300  1
  H  428  1  0.07899800  0.85736900  0.64510300  1
  H  429  1  0.08804500  0.85870700  0.60888600  1
  H  430  1  0.10427100  0.89631200  0.59099900  1
  H  431  1  0.17990000  0.88334000  0.58401600  1
  H  432  1  0.18805400  0.91976900  0.58144300  1
  H  433  1  0.11245900  0.93269300  0.58909300  1
  H  436  1  0.21856100  0.80078600  0.55392700  1
  H  437  1  0.04539800  0.82848800  0.53160400  1
  H  439  1  0.09218600  0.85802000  0.68147900  1
  H  441  1  0.17099700  0.95587900  0.57478500  1
  H  467  1  0.56999600  0.69764100  0.40795200  1
  H  468  1  0.60263800  0.68979600  0.38444800  1
  H  469  1  0.58720000  0.64382900  0.44335600  1
  H  470  1  0.61986400  0.63632100  0.42021500  1
  H  471  1  0.66602200  0.65856800  0.41606000  1
  H  472  1  0.69810600  0.68279300  0.42369700  1
  H  473  1  0.68027400  0.71708800  0.36934000  1
  H  474  1  0.64821200  0.69333600  0.36207200  1
  H  475  1  0.66345100  0.65245700  0.34743100  1
  H  476  1  0.65440900  0.65324000  0.31113700  1
  H  477  1  0.57899200  0.66027200  0.32518500  1
  H  478  1  0.58803900  0.65893900  0.36140400  1
  H  479  1  0.60426600  0.62136800  0.37931600  1
  H  480  1  0.67990000  0.63435100  0.38622100  1
  H  481  1  0.68807000  0.59792200  0.38876600  1
  H  482  1  0.61246600  0.58498700  0.38119800  1
  H  485  1  0.71854400  0.71690300  0.41637800  1
  H  486  1  0.54540300  0.68919500  0.43869600  1
  H  488  1  0.59218400  0.65966100  0.28880900  1
  H  490  1  0.67107000  0.56180800  0.39538300  1
  H  516  1  0.82037000  0.18169800  0.04584800  1
  H  517  1  0.85297500  0.15819700  0.05382700  1
  H  518  1  0.83645900  0.21648300  0.10030100  1
  H  519  1  0.86906200  0.19338100  0.10793800  1
  H  520  1  0.91532700  0.18997300  0.08506500  1
  H  521  1  0.94739000  0.19778200  0.06086900  1
  H  522  1  0.93079500  0.14279200  0.02714400  1
  H  523  1  0.89875400  0.13537100  0.05081100  1
  H  524  1  0.91376200  0.12135800  0.09232500  1
  H  525  1  0.90561300  0.08494200  0.09044600  1
  H  526  1  0.83030900  0.09785200  0.08091800  1
  H  527  1  0.83838600  0.13426000  0.08348300  1
  H  528  1  0.85424700  0.15204300  0.12248700  1
  H  529  1  0.92966400  0.16071300  0.10964000  1
  H  530  1  0.93768000  0.16337100  0.14607200  1
  H  531  1  0.86232100  0.15404000  0.15889800  1
  H  534  1  0.96834900  0.19028800  0.02703400  1
  H  535  1  0.79546400  0.21228000  0.05436900  1
  H  537  1  0.84734500  0.06180200  0.07490200  1
  H  539  1  0.92054200  0.16940900  0.18215500  1
  H  565  1  0.32037600  0.33597200  0.92443900  1
  H  566  1  0.35297800  0.35947600  0.91646100  1
  H  567  1  0.33645200  0.30120100  0.86997600  1
  H  568  1  0.36905400  0.32430600  0.86233900  1
  H  569  1  0.41532500  0.32770500  0.88521800  1
  H  570  1  0.44739500  0.31990100  0.90940900  1
  H  571  1  0.43080700  0.37489500  0.94312900  1
  H  572  1  0.39875800  0.38231200  0.91946900  1
  H  573  1  0.41376100  0.39632300  0.87795400  1
  H  574  1  0.40561700  0.43274100  0.87984600  1
  H  575  1  0.33031600  0.41983300  0.88939900  1
  H  576  1  0.33838900  0.38342600  0.88682300  1
  H  577  1  0.35423800  0.36565300  0.84780000  1
  H  578  1  0.42965100  0.35694500  0.86064000  1
  H  579  1  0.43766100  0.35428000  0.82420800  1
  H  580  1  0.36230500  0.36364800  0.81138900  1
  H  583  1  0.46835300  0.32739500  0.94324500  1
  H  584  1  0.29546300  0.30539600  0.91591200  1
  H  586  1  0.34735900  0.45588100  0.89540900  1
  H  588  1  0.42050400  0.34824500  0.78812500  1
  H  614  1  0.44765600  0.69728400  0.56084300  1
  H  615  1  0.41556300  0.68958900  0.58504600  1
  H  616  1  0.42997500  0.64290900  0.52651300  1
  H  617  1  0.39787800  0.63559700  0.55022200  1
  H  618  1  0.35219900  0.65782300  0.55399800  1
  H  619  1  0.31957000  0.68135500  0.54622400  1
  H  620  1  0.33687600  0.71665800  0.60007400  1
  H  621  1  0.36950300  0.69346800  0.60753100  1
  H  622  1  0.35451800  0.65275000  0.62267900  1
  H  623  1  0.36349700  0.65370400  0.65897000  1
  H  624  1  0.43894500  0.66062800  0.64498200  1
  H  625  1  0.42995100  0.65915100  0.60874300  1
  H  626  1  0.41369800  0.62119700  0.59133700  1
  H  627  1  0.33810300  0.63420100  0.58416600  1
  H  628  1  0.32991200  0.59779000  0.58165400  1
  H  629  1  0.40546300  0.58480900  0.58951900  1
  H  632  1  0.29509600  0.71217700  0.55467600  1
  H  633  1  0.46820600  0.68995300  0.52677500  1
  H  635  1  0.42564500  0.66029100  0.68136400  1
  H  637  1  0.34692400  0.56171700  0.57497200  1
  H  663  1  0.94765500  0.82039700  0.40945100  1
  H  664  1  0.91556600  0.82809000  0.38524600  1
  H  665  1  0.92996700  0.87476900  0.44378100  1
  H  666  1  0.89787400  0.88208200  0.42007000  1
  H  667  1  0.85220400  0.85984800  0.41629800  1
  H  668  1  0.81957300  0.83631600  0.42407700  1
  H  669  1  0.83686200  0.80102100  0.37021700  1
  H  670  1  0.86949100  0.82421000  0.36276000  1
  H  671  1  0.85451700  0.86492400  0.34761200  1
  H  672  1  0.86350000  0.86397200  0.31132200  1
  H  673  1  0.93894700  0.85704700  0.32531800  1
  H  674  1  0.92994900  0.85852200  0.36155600  1
  H  675  1  0.91368900  0.89647900  0.37896200  1
  H  676  1  0.83809200  0.88346700  0.38611800  1
  H  677  1  0.82989400  0.91987600  0.38862400  1
  H  678  1  0.90544400  0.93286700  0.38077500  1
  H  681  1  0.79508500  0.80550600  0.41561700  1
  H  682  1  0.96820900  0.82772800  0.44351600  1
  H  684  1  0.92565000  0.85738000  0.28893300  1
  H  686  1  0.84688500  0.95594900  0.39529100  1
  H  712  1  0.69735300  0.33453900  0.04625200  1
  H  713  1  0.66526500  0.35871400  0.05405500  1
  H  714  1  0.68077300  0.30079600  0.10123300  1
  H  715  1  0.64870700  0.32444100  0.10865000  1
  H  716  1  0.60294100  0.32745100  0.08580100  1
  H  717  1  0.57034800  0.31947400  0.06228800  1
  H  718  1  0.58637800  0.37398100  0.02756900  1
  H  719  1  0.61897300  0.38161600  0.05068200  1
  H  720  1  0.60419500  0.39613000  0.09202600  1
  H  721  1  0.61228000  0.43254300  0.09004600  1
  H  722  1  0.68762600  0.41970300  0.08065800  1
  H  723  1  0.67960200  0.38327400  0.08329800  1
  H  724  1  0.66371900  0.36597100  0.12265800  1
  H  725  1  0.58834700  0.35703900  0.10979200  1
  H  726  1  0.58031000  0.35441000  0.14620600  1
  H  727  1  0.65560700  0.36403300  0.15907600  1
  H  730  1  0.54543000  0.32801100  0.03171700  1
  H  731  1  0.71831900  0.30070000  0.05374000  1
  H  733  1  0.67051200  0.45578200  0.07465700  1
  H  735  1  0.59749000  0.34827300  0.18224700  1
  H  761  1  0.19735400  0.18314100  0.92403700  1
  H  762  1  0.16526800  0.15896400  0.91623300  1
  H  763  1  0.18077800  0.21687700  0.86905300  1
  H  764  1  0.14871500  0.19323300  0.86163400  1
  H  765  1  0.10294300  0.19022200  0.88448200  1
  H  766  1  0.07034700  0.19819900  0.90799100  1
  H  767  1  0.08636800  0.14369400  0.94271300  1
  H  768  1  0.11896600  0.13605500  0.91960500  1
  H  769  1  0.10419900  0.12154800  0.87826200  1
  H  770  1  0.11228200  0.08513400  0.88024000  1
  H  771  1  0.18763100  0.09797100  0.88962500  1
  H  772  1  0.17960700  0.13440000  0.88698700  1
  H  773  1  0.16371600  0.15169100  0.84762900  1
  H  774  1  0.08834900  0.16064400  0.86050000  1
  H  775  1  0.08030900  0.16327400  0.82408500  1
  H  776  1  0.15560200  0.15363000  0.81121200  1
  H  779  1  0.04542800  0.18966700  0.93856100  1
  H  780  1  0.21833400  0.21697000  0.91654400  1
  H  782  1  0.17051100  0.06189200  0.89563200  1
  H  784  1  0.09748500  0.16939500  0.78804100  1
  H  795  1  0.70723800  0.25776100  0.42570000  1
  H  798  1  0.80989600  0.25621000  0.35329800  1
  H  811  1  0.20724800  0.25989400  0.54459800  1
  H  814  1  0.30991000  0.26146700  0.61700200  1
  H  827  1  0.95747600  0.81762200  0.98418300  1
  H  830  1  0.05983300  0.89024700  0.98226900  1
  H  843  1  0.45747300  0.70006300  0.98611000  1
  H  846  1  0.55981700  0.62742200  0.98803700  1
  H  859  1  0.31023000  0.75979500  0.54387100  1
  H  862  1  0.20790800  0.76177300  0.61653100  1
  H  875  1  0.81021700  0.75789000  0.42643400  1
  H  878  1  0.70790200  0.75590600  0.35376600  1
  H  891  1  0.06007300  0.20049500  0.98611300  1
  H  894  1  0.95797500  0.12763400  0.98810300  1
  H  907  1  0.56007200  0.31717600  0.98417100  1
  H  910  1  0.45799400  0.39005700  0.98216700  1
  H  923  1  0.20753300  0.75771900  0.92632100  1
  H  926  1  0.30973700  0.75607500  0.85353000  1
  H  939  1  0.70752500  0.75996900  0.04398500  1
  H  942  1  0.80975100  0.76159400  0.11675500  1
  H  955  1  0.45722100  0.31832300  0.48407600  1
  H  958  1  0.55992500  0.39068000  0.48252700  1
  H  971  1  0.95724400  0.19933300  0.48623000  1
  H  974  1  0.05998700  0.12701500  0.48773000  1
  H  987  1  0.81006600  0.25983400  0.04351200  1
  H  990  1  0.70802600  0.26180400  0.11643000  1
  H  1003  1  0.31008100  0.25783600  0.92675600  1
  H  1006  1  0.20801000  0.25588600  0.85386800  1
  H  1019  1  0.56017700  0.70001600  0.48633800  1
  H  1022  1  0.45793500  0.62725800  0.48787000  1
  H  1035  1  0.06017700  0.81767300  0.48395800  1
  H  1038  1  0.95791900  0.89041700  0.48243100  1
  H  1051  1  0.95421100  0.17590100  0.24613500  1
  H  1054  1  0.88662500  0.10875900  0.20113300  1
  H  1067  1  0.45414500  0.34192300  0.72380900  1
  H  1070  1  0.38669800  0.40894100  0.76916700  1
  H  1083  1  0.20405500  0.00043100  0.90380000  1
  H  1086  1  0.13652100  0.04282100  0.83502200  1
  H  1099  1  0.70405400  0.51714000  0.06643600  1
  H  1102  1  0.63647600  0.47485900  0.13525200  1
  H  1115  1  0.56383400  0.34192700  0.24780200  1
  H  1118  1  0.63018700  0.40917300  0.20146800  1
  H  1131  1  0.06383500  0.17573600  0.72248100  1
  H  1134  1  0.13019800  0.10850200  0.76882200  1
  H  1147  1  0.31362900  0.51690800  0.90408000  1
  H  1150  1  0.38121300  0.47525100  0.83489300  1
  H  1163  1  0.81362100  0.00083800  0.06619700  1
  H  1166  1  0.88123800  0.04243000  0.13540200  1
  H  1179  1  0.06317900  0.84009800  0.72776800  1
  H  1182  1  0.13191200  0.90874200  0.76905100  1
  H  1195  1  0.56317400  0.67753300  0.24265800  1
  H  1198  1  0.63185200  0.60893700  0.20123400  1
  H  1211  1  0.45445100  0.67747000  0.72699100  1
  H  1214  1  0.38622100  0.60873500  0.76869400  1
  H  1227  1  0.95445800  0.84020700  0.24329800  1
  H  1230  1  0.88622400  0.90894600  0.20160200  1
  H  1243  1  0.70450100  0.49746900  0.40181700  1
  H  1246  1  0.63652000  0.54284500  0.33516800  1
  H  1259  1  0.20429600  0.02120000  0.56866200  1
  H  1262  1  0.13697700  0.97482200  0.63517200  1
  H  1275  1  0.81334700  0.02093100  0.40195000  1
  H  1278  1  0.88060300  0.97519700  0.33495400  1
  H  1291  1  0.31347500  0.49615300  0.56853200  1
  H  1294  1  0.38042900  0.54249800  0.63537200  1
  H  1322  1  0.17046400  0.19643000  0.40692800  1
  H  1323  1  0.13769100  0.18900200  0.38343300  1
  H  1324  1  0.14993600  0.14473700  0.44416600  1
  H  1325  1  0.11718200  0.13757400  0.42088900  1
  H  1326  1  0.07129810  0.15796300  0.41516400  1
  H  1327  1  0.03912010  0.18218300  0.42252800  1
  H  1328  1  0.06005910  0.21833100  0.37020500  1
  H  1329  1  0.09221310  0.19446500  0.36316100  1
  H  1330  1  0.07484110  0.15445500  0.34742400  1
  H  1331  1  0.08379510  0.15509000  0.31113200  1
  H  1332  1  0.15962400  0.15809700  0.32501100  1
  H  1333  1  0.15060200  0.15698800  0.36126900  1
  H  1334  1  0.13419100  0.12126900  0.38103500  1
  H  1335  1  0.05844310  0.13517500  0.38354400  1
  H  1336  1  0.04939910  0.09890900  0.38479100  1
  H  1337  1  0.12522200  0.08499200  0.38183500  1
  H  1340  1  0.01987010  0.21701000  0.41588500  1
  H  1341  1  0.19383700  0.18850000  0.43845800  1
  H  1343  1  0.14616600  0.15934500  0.28865900  1
  H  1345  1  0.06288910  0.06253300  0.38624300  1
  H  1371  1  0.67058800  0.32133700  0.56344700  1
  H  1372  1  0.63781500  0.32875100  0.58694400  1
  H  1373  1  0.64978000  0.37281900  0.52602800  1
  H  1374  1  0.61703100  0.37997500  0.54932200  1
  H  1375  1  0.57116300  0.35980400  0.55520300  1
  H  1376  1  0.53898300  0.33558300  0.54785000  1
  H  1377  1  0.56020300  0.29925400  0.59996400  1
  H  1378  1  0.59235300  0.32313300  0.60700200  1
  H  1379  1  0.57480700  0.36308400  0.62285500  1
  H  1380  1  0.58374900  0.36246900  0.65914900  1
  H  1381  1  0.65959800  0.35978800  0.64529000  1
  H  1382  1  0.65058200  0.36086700  0.60902900  1
  H  1383  1  0.63421700  0.39639600  0.58911500  1
  H  1384  1  0.55845500  0.38251500  0.58693300  1
  H  1385  1  0.54941800  0.41878400  0.58571700  1
  H  1386  1  0.62526400  0.43267500  0.58833800  1
  H  1389  1  0.51985000  0.30067700  0.55441100  1
  H  1390  1  0.69385200  0.32919700  0.53183900  1
  H  1392  1  0.64612800  0.35840500  0.68163700  1
  H  1394  1  0.56292500  0.45515400  0.58411900  1
  H  1420  1  0.41863800  0.83613100  0.92388500  1
  H  1421  1  0.38599100  0.85963700  0.91606000  1
  H  1422  1  0.40131900  0.80067300  0.87013800  1
  H  1423  1  0.36865200  0.82382100  0.86264600  1
  H  1424  1  0.32250600  0.82799600  0.88486500  1
  H  1425  1  0.29042700  0.82035900  0.90909500  1
  H  1426  1  0.30832700  0.87467100  0.94343300  1
  H  1427  1  0.34038600  0.88193900  0.91967500  1
  H  1428  1  0.32503000  0.89657900  0.87879400  1
  H  1429  1  0.33399500  0.93288400  0.87959800  1
  H  1430  1  0.40944900  0.91894600  0.88657000  1
  H  1431  1  0.40047400  0.88271100  0.88521800  1
  H  1432  1  0.38426700  0.86472900  0.84766500  1
  H  1433  1  0.30863800  0.85786100  0.86067600  1
  H  1434  1  0.30044000  0.85535800  0.82425300  1
  H  1435  1  0.37604300  0.86288600  0.81128600  1
  H  1438  1  0.27000000  0.82766600  0.94321200  1
  H  1439  1  0.44317400  0.80534500  0.91546500  1
  H  1441  1  0.39614000  0.95530600  0.88621400  1
  H  1443  1  0.31733000  0.84884800  0.78813200  1
  H  1469  1  0.91862300  0.68156500  0.04639900  1
  H  1470  1  0.88598100  0.65805600  0.05422500  1
  H  1471  1  0.90133600  0.71699500  0.10017100  1
  H  1472  1  0.86867200  0.69384600  0.10766300  1
  H  1473  1  0.82251800  0.68969200  0.08542100  1
  H  1474  1  0.79043600  0.69732600  0.06119400  1
  H  1475  1  0.80830600  0.64299300  0.02687700  1
  H  1476  1  0.84037000  0.63572700  0.05063000  1
  H  1477  1  0.82503200  0.62109800  0.09151000  1
  H  1478  1  0.83399500  0.58479100  0.09069000  1
  H  1479  1  0.90944300  0.59873100  0.08367900  1
  H  1480  1  0.90047200  0.63496600  0.08504700  1
  H  1481  1  0.88426800  0.65292900  0.12263000  1
  H  1482  1  0.80864500  0.65985200  0.10961400  1
  H  1483  1  0.80044900  0.66236900  0.14603700  1
  H  1484  1  0.87604300  0.65478800  0.15900900  1
  H  1487  1  0.76999600  0.69000900  0.02708600  1
  H  1488  1  0.94317600  0.71233700  0.05483200  1
  H  1490  1  0.89614000  0.56237100  0.08406200  1
  H  1492  1  0.81734600  0.66886900  0.18215900  1
  H  1518  1  0.78894100  0.32156000  0.40835800  1
  H  1519  1  0.82113400  0.32890300  0.38414700  1
  H  1520  1  0.81016300  0.37367300  0.44468900  1
  H  1521  1  0.84232400  0.38070100  0.42081900  1
  H  1522  1  0.88775100  0.36058800  0.41525900  1
  H  1523  1  0.92051300  0.33708900  0.42268400  1
  H  1524  1  0.89979300  0.29972000  0.37114000  1
  H  1525  1  0.86705000  0.32301600  0.36397100  1
  H  1526  1  0.88426900  0.36280900  0.34759900  1
  H  1527  1  0.87536900  0.36202300  0.31131100  1
  H  1528  1  0.79950500  0.35938200  0.32512200  1
  H  1529  1  0.80848500  0.36060900  0.36140000  1
  H  1530  1  0.82485700  0.39657200  0.38085300  1
  H  1531  1  0.90060900  0.38265700  0.38316500  1
  H  1532  1  0.90968000  0.41890600  0.38426900  1
  H  1533  1  0.83385700  0.43285600  0.38149500  1
  H  1536  1  0.94382300  0.30551900  0.41480000  1
  H  1537  1  0.76978800  0.32812700  0.44325100  1
  H  1539  1  0.81308000  0.35770700  0.28876500  1
  H  1541  1  0.89628200  0.45526800  0.38553800  1
  H  1567  1  0.28890900  0.19608000  0.56195800  1
  H  1568  1  0.32109900  0.18874500  0.58617300  1
  H  1569  1  0.31023400  0.14403800  0.52556900  1
  H  1570  1  0.34239200  0.13701400  0.54944700  1
  H  1571  1  0.38781000  0.15705500  0.55506400  1
  H  1572  1  0.42058100  0.18055000  0.54764700  1
  H  1573  1  0.39976800  0.21798000  0.59912000  1
  H  1574  1  0.36701900  0.19468600  0.60628100  1
  H  1575  1  0.38428600  0.15491200  0.62269300  1
  H  1576  1  0.37538300  0.15569400  0.65898000  1
  H  1577  1  0.29951400  0.15823900  0.64516600  1
  H  1578  1  0.30849900  0.15702100  0.60888700  1
  H  1579  1  0.32485300  0.12111700  0.58938500  1
  H  1580  1  0.40061600  0.13500700  0.58719200  1
  H  1581  1  0.40967300  0.09875500  0.58607900  1
  H  1582  1  0.33383800  0.08483000  0.58873400  1
  H  1585  1  0.44386500  0.21213700  0.55551800  1
  H  1586  1  0.26978800  0.18953800  0.52704900  1
  H  1588  1  0.31308700  0.15995200  0.68152200  1
  H  1590  1  0.39624800  0.06240000  0.58467200  1
  H  1616  1  0.54081000  0.68307900  0.92354500  1
  H  1617  1  0.57290700  0.65887200  0.91586800  1
  H  1618  1  0.55855800  0.71742700  0.86920100  1
  H  1619  1  0.59065600  0.69371200  0.86190500  1
  H  1620  1  0.63633600  0.68993100  0.88412100  1
  H  1621  1  0.66896800  0.69770500  0.90765400  1
  H  1622  1  0.65162900  0.64388300  0.94298400  1
  H  1623  1  0.61899900  0.63642600  0.91979600  1
  H  1624  1  0.63405300  0.62128200  0.87908200  1
  H  1625  1  0.62512700  0.58498300  0.88003600  1
  H  1626  1  0.54965700  0.59889300  0.88693800  1
  H  1627  1  0.55860000  0.63514500  0.88546400  1
  H  1628  1  0.57484000  0.65261200  0.84749600  1
  H  1629  1  0.65043300  0.65973600  0.86053100  1
  H  1630  1  0.65865400  0.66219700  0.82412600  1
  H  1631  1  0.58310300  0.65438600  0.81111000  1
  H  1634  1  0.69342900  0.68926600  0.93848500  1
  H  1635  1  0.52029700  0.71716900  0.91622700  1
  H  1637  1  0.56303900  0.56252000  0.88674300  1
  H  1639  1  0.64176700  0.66875000  0.78804400  1
  H  1665  1  0.04082310  0.83459600  0.04674100  1
  H  1666  1  0.07291410  0.85880500  0.05442200  1
  H  1667  1  0.05855310  0.80025900  0.10109600  1
  H  1668  1  0.09065010  0.82397300  0.10839500  1
  H  1669  1  0.13632200  0.82774800  0.08616800  1
  H  1670  1  0.16895600  0.81997200  0.06264000  1
  H  1671  1  0.15164900  0.87380900  0.02731900  1
  H  1672  1  0.11901500  0.88126800  0.05050400  1
  H  1673  1  0.13404900  0.89639900  0.09121800  1
  H  1674  1  0.12512300  0.93269900  0.09026800  1
  H  1675  1  0.04965310  0.91878900  0.08335700  1
  H  1676  1  0.05859610  0.88253700  0.08483000  1
  H  1677  1  0.07484710  0.86508700  0.12280000  1
  H  1678  1  0.15043400  0.85793800  0.10976000  1
  H  1679  1  0.15865900  0.85547400  0.14616500  1
  H  1680  1  0.08311410  0.86331300  0.15918500  1
  H  1683  1  0.19342500  0.82841000  0.03181100  1
  H  1684  1  0.02029510  0.80051400  0.05406600  1
  H  1686  1  0.06303310  0.95516200  0.08356300  1
  H  1688  1  0.14177900  0.84893900  0.18225000  1
  H  1714  1  0.29086000  0.82003500  0.56233600  1
  H  1715  1  0.32350800  0.82788000  0.58583500  1
  H  1716  1  0.30802200  0.87387200  0.52695400  1
  H  1717  1  0.34069200  0.88138000  0.55008700  1
  H  1718  1  0.38685900  0.85909700  0.55422000  1
  H  1719  1  0.41894900  0.83487500  0.54659000  1
  H  1720  1  0.40117000  0.80062400  0.60098600  1
  H  1721  1  0.36910100  0.82437000  0.60824900  1
  H  1722  1  0.38429900  0.86525600  0.62285900  1
  H  1723  1  0.37525700  0.86447100  0.65915300  1
  H  1724  1  0.29984800  0.85736900  0.64510300  1
  H  1725  1  0.30889500  0.85870700  0.60888600  1
  H  1726  1  0.32512100  0.89631200  0.59099900  1
  H  1727  1  0.40075000  0.88334000  0.58401600  1
  H  1728  1  0.40890400  0.91976900  0.58144300  1
  H  1729  1  0.33333333  0.93269300  0.58909300  1
  H  1732  1  0.43941100  0.80078600  0.55392700  1
  H  1733  1  0.26624800  0.82848800  0.53160400  1
  H  1735  1  0.31303600  0.85802000  0.68147900  1
  H  1737  1  0.39184700  0.95587900  0.57478500  1
  H  1763  1  0.79084600  0.69764100  0.40795200  1
  H  1764  1  0.82348800  0.68979600  0.38444800  1
  H  1765  1  0.80805000  0.64382900  0.44335600  1
  H  1766  1  0.84071400  0.63632100  0.42021500  1
  H  1767  1  0.88687200  0.65856800  0.41606000  1
  H  1768  1  0.91895600  0.68279300  0.42369700  1
  H  1769  1  0.90112400  0.71708800  0.36934000  1
  H  1770  1  0.86906200  0.69333600  0.36207200  1
  H  1771  1  0.88430100  0.65245700  0.34743100  1
  H  1772  1  0.87525900  0.65324000  0.31113700  1
  H  1773  1  0.79984200  0.66027200  0.32518500  1
  H  1774  1  0.80888900  0.65893900  0.36140400  1
  H  1775  1  0.82511600  0.62136800  0.37931600  1
  H  1776  1  0.90075000  0.63435100  0.38622100  1
  H  1777  1  0.90892000  0.59792200  0.38876600  1
  H  1778  1  0.83331600  0.58498700  0.38119800  1
  H  1781  1  0.93939400  0.71690300  0.41637800  1
  H  1782  1  0.76625300  0.68919500  0.43869600  1
  H  1784  1  0.81303400  0.65966100  0.28880900  1
  H  1786  1  0.89192000  0.56180800  0.39538300  1
  H  1812  1  0.04122010  0.18169800  0.04584800  1
  H  1813  1  0.07382510  0.15819700  0.05382700  1
  H  1814  1  0.05730910  0.21648300  0.10030100  1
  H  1815  1  0.08991210  0.19338100  0.10793800  1
  H  1816  1  0.13617700  0.18997300  0.08506500  1
  H  1817  1  0.16824000  0.19778200  0.06086900  1
  H  1818  1  0.15164500  0.14279200  0.02714400  1
  H  1819  1  0.11960400  0.13537100  0.05081100  1
  H  1820  1  0.13461200  0.12135800  0.09232500  1
  H  1821  1  0.12646300  0.08494200  0.09044600  1
  H  1822  1  0.05115910  0.09785200  0.08091800  1
  H  1823  1  0.05923610  0.13426000  0.08348300  1
  H  1824  1  0.07509710  0.15204300  0.12248700  1
  H  1825  1  0.15051400  0.16071300  0.10964000  1
  H  1826  1  0.15853000  0.16337100  0.14607200  1
  H  1827  1  0.08317110  0.15404000  0.15889800  1
  H  1830  1  0.18919900  0.19028800  0.02703400  1
  H  1831  1  0.01631410  0.21228000  0.05436900  1
  H  1833  1  0.06819510  0.06180200  0.07490200  1
  H  1835  1  0.14139200  0.16940900  0.18215500  1
  H  1861  1  0.54122600  0.33597200  0.92443900  1
  H  1862  1  0.57382800  0.35947600  0.91646100  1
  H  1863  1  0.55730200  0.30120100  0.86997600  1
  H  1864  1  0.58990400  0.32430600  0.86233900  1
  H  1865  1  0.63617500  0.32770500  0.88521800  1
  H  1866  1  0.66824500  0.31990100  0.90940900  1
  H  1867  1  0.65165700  0.37489500  0.94312900  1
  H  1868  1  0.61960800  0.38231200  0.91946900  1
  H  1869  1  0.63461100  0.39632300  0.87795400  1
  H  1870  1  0.62646700  0.43274100  0.87984600  1
  H  1871  1  0.55116600  0.41983300  0.88939900  1
  H  1872  1  0.55923900  0.38342600  0.88682300  1
  H  1873  1  0.57508800  0.36565300  0.84780000  1
  H  1874  1  0.65050100  0.35694500  0.86064000  1
  H  1875  1  0.65851100  0.35428000  0.82420800  1
  H  1876  1  0.58315500  0.36364800  0.81138900  1
  H  1879  1  0.68920300  0.32739500  0.94324500  1
  H  1880  1  0.51631300  0.30539600  0.91591200  1
  H  1882  1  0.56820900  0.45588100  0.89540900  1
  H  1884  1  0.64135400  0.34824500  0.78812500  1
  H  1910  1  0.66850600  0.69728400  0.56084300  1
  H  1911  1  0.63641300  0.68958900  0.58504600  1
  H  1912  1  0.65082500  0.64290900  0.52651300  1
  H  1913  1  0.61872800  0.63559700  0.55022200  1
  H  1914  1  0.57304900  0.65782300  0.55399800  1
  H  1915  1  0.54042000  0.68135500  0.54622400  1
  H  1916  1  0.55772600  0.71665800  0.60007400  1
  H  1917  1  0.59035300  0.69346800  0.60753100  1
  H  1918  1  0.57536800  0.65275000  0.62267900  1
  H  1919  1  0.58434700  0.65370400  0.65897000  1
  H  1920  1  0.65979500  0.66062800  0.64498200  1
  H  1921  1  0.65080100  0.65915100  0.60874300  1
  H  1922  1  0.63454800  0.62119700  0.59133700  1
  H  1923  1  0.55895300  0.63420100  0.58416600  1
  H  1924  1  0.55076200  0.59779000  0.58165400  1
  H  1925  1  0.62631300  0.58480900  0.58951900  1
  H  1928  1  0.51594600  0.71217700  0.55467600  1
  H  1929  1  0.68905600  0.68995300  0.52677500  1
  H  1931  1  0.64649500  0.66029100  0.68136400  1
  H  1933  1  0.56777400  0.56171700  0.57497200  1
  H  1959  1  0.16850500  0.82039700  0.40945100  1
  H  1960  1  0.13641600  0.82809000  0.38524600  1
  H  1961  1  0.15081700  0.87476900  0.44378100  1
  H  1962  1  0.11872400  0.88208200  0.42007000  1
  H  1963  1  0.07305410  0.85984800  0.41629800  1
  H  1964  1  0.04042310  0.83631600  0.42407700  1
  H  1965  1  0.05771210  0.80102100  0.37021700  1
  H  1966  1  0.09034110  0.82421000  0.36276000  1
  H  1967  1  0.07536710  0.86492400  0.34761200  1
  H  1968  1  0.08435010  0.86397200  0.31132200  1
  H  1969  1  0.15979700  0.85704700  0.32531800  1
  H  1970  1  0.15079900  0.85852200  0.36155600  1
  H  1971  1  0.13453900  0.89647900  0.37896200  1
  H  1972  1  0.05894210  0.88346700  0.38611800  1
  H  1973  1  0.05074410  0.91987600  0.38862400  1
  H  1974  1  0.12629400  0.93286700  0.38077500  1
  H  1977  1  0.01593510  0.80550600  0.41561700  1
  H  1978  1  0.18905900  0.82772800  0.44351600  1
  H  1980  1  0.14650000  0.85738000  0.28893300  1
  H  1982  1  0.06773510  0.95594900  0.39529100  1
  H  2008  1  0.91820300  0.33453900  0.04625200  1
  H  2009  1  0.88611500  0.35871400  0.05405500  1
  H  2010  1  0.90162300  0.30079600  0.10123300  1
  H  2011  1  0.86955700  0.32444100  0.10865000  1
  H  2012  1  0.82379100  0.32745100  0.08580100  1
  H  2013  1  0.79119800  0.31947400  0.06228800  1
  H  2014  1  0.80722800  0.37398100  0.02756900  1
  H  2015  1  0.83982300  0.38161600  0.05068200  1
  H  2016  1  0.82504500  0.39613000  0.09202600  1
  H  2017  1  0.83313000  0.43254300  0.09004600  1
  H  2018  1  0.90847600  0.41970300  0.08065800  1
  H  2019  1  0.90045200  0.38327400  0.08329800  1
  H  2020  1  0.88456900  0.36597100  0.12265800  1
  H  2021  1  0.80919700  0.35703900  0.10979200  1
  H  2022  1  0.80116000  0.35441000  0.14620600  1
  H  2023  1  0.87645700  0.36403300  0.15907600  1
  H  2026  1  0.76628000  0.32801100  0.03171700  1
  H  2027  1  0.93916900  0.30070000  0.05374000  1
  H  2029  1  0.89136200  0.45578200  0.07465700  1
  H  2031  1  0.81834000  0.34827300  0.18224700  1
  H  2057  1  0.41820400  0.18314100  0.92403700  1
  H  2058  1  0.38611800  0.15896400  0.91623300  1
  H  2059  1  0.40162800  0.21687700  0.86905300  1
  H  2060  1  0.36956500  0.19323300  0.86163400  1
  H  2061  1  0.32379300  0.19022200  0.88448200  1
  H  2062  1  0.29119700  0.19819900  0.90799100  1
  H  2063  1  0.30721800  0.14369400  0.94271300  1
  H  2064  1  0.33981600  0.13605500  0.91960500  1
  H  2065  1  0.32504900  0.12154800  0.87826200  1
  H  2066  1  0.33313200  0.08513400  0.88024000  1
  H  2067  1  0.40848100  0.09797100  0.88962500  1
  H  2068  1  0.40045700  0.13440000  0.88698700  1
  H  2069  1  0.38456600  0.15169100  0.84762900  1
  H  2070  1  0.30919900  0.16064400  0.86050000  1
  H  2071  1  0.30115900  0.16327400  0.82408500  1
  H  2072  1  0.37645200  0.15363000  0.81121200  1
  H  2075  1  0.26627800  0.18966700  0.93856100  1
  H  2076  1  0.43918400  0.21697000  0.91654400  1
  H  2078  1  0.39136100  0.06189200  0.89563200  1
  H  2080  1  0.31833500  0.16939500  0.78804100  1
  H  2091  1  0.92808800  0.25776100  0.42570000  1
  H  2094  1  0.03074610  0.25621000  0.35329800  1
  H  2107  1  0.42809800  0.25989400  0.54459800  1
  H  2110  1  0.53076000  0.26146700  0.61700200  1
  H  2123  1  0.17832600  0.81762200  0.98418300  1
  H  2126  1  0.28068300  0.89024700  0.98226900  1
  H  2139  1  0.67832300  0.70006300  0.98611000  1
  H  2142  1  0.78066700  0.62742200  0.98803700  1
  H  2155  1  0.53108000  0.75979500  0.54387100  1
  H  2158  1  0.42875800  0.76177300  0.61653100  1
  H  2171  1  0.03106710  0.75789000  0.42643400  1
  H  2174  1  0.92875200  0.75590600  0.35376600  1
  H  2187  1  0.28092300  0.20049500  0.98611300  1
  H  2190  1  0.17882500  0.12763400  0.98810300  1
  H  2203  1  0.78092200  0.31717600  0.98417100  1
  H  2206  1  0.67884400  0.39005700  0.98216700  1
  H  2219  1  0.42838300  0.75771900  0.92632100  1
  H  2222  1  0.53058700  0.75607500  0.85353000  1
  H  2235  1  0.92837500  0.75996900  0.04398500  1
  H  2238  1  0.03060110  0.76159400  0.11675500  1
  H  2251  1  0.67807100  0.31832300  0.48407600  1
  H  2254  1  0.78077500  0.39068000  0.48252700  1
  H  2267  1  0.17809400  0.19933300  0.48623000  1
  H  2270  1  0.28083700  0.12701500  0.48773000  1
  H  2283  1  0.03091610  0.25983400  0.04351200  1
  H  2286  1  0.92887600  0.26180400  0.11643000  1
  H  2299  1  0.53093100  0.25783600  0.92675600  1
  H  2302  1  0.42886000  0.25588600  0.85386800  1
  H  2315  1  0.78102700  0.70001600  0.48633800  1
  H  2318  1  0.67878500  0.62725800  0.48787000  1
  H  2331  1  0.28102700  0.81767300  0.48395800  1
  H  2334  1  0.17876900  0.89041700  0.48243100  1
  H  2347  1  0.17506100  0.17590100  0.24613500  1
  H  2350  1  0.10747500  0.10875900  0.20113300  1
  H  2363  1  0.67499500  0.34192300  0.72380900  1
  H  2366  1  0.60754800  0.40894100  0.76916700  1
  H  2379  1  0.42490500  0.00043100  0.90380000  1
  H  2382  1  0.35737100  0.04282100  0.83502200  1
  H  2395  1  0.92490400  0.51714000  0.06643600  1
  H  2398  1  0.85732600  0.47485900  0.13525200  1
  H  2411  1  0.78468400  0.34192700  0.24780200  1
  H  2414  1  0.85103700  0.40917300  0.20146800  1
  H  2427  1  0.28468500  0.17573600  0.72248100  1
  H  2430  1  0.35104800  0.10850200  0.76882200  1
  H  2443  1  0.53447900  0.51690800  0.90408000  1
  H  2446  1  0.60206300  0.47525100  0.83489300  1
  H  2459  1  0.03447110  0.00083800  0.06619700  1
  H  2462  1  0.10208800  0.04243000  0.13540200  1
  H  2475  1  0.28402900  0.84009800  0.72776800  1
  H  2478  1  0.35276200  0.90874200  0.76905100  1
  H  2491  1  0.78402400  0.67753300  0.24265800  1
  H  2494  1  0.85270200  0.60893700  0.20123400  1
  H  2507  1  0.67530100  0.67747000  0.72699100  1
  H  2510  1  0.60707100  0.60873500  0.76869400  1
  H  2523  1  0.17530800  0.84020700  0.24329800  1
  H  2526  1  0.10707400  0.90894600  0.20160200  1
  H  2539  1  0.92535100  0.49746900  0.40181700  1
  H  2542  1  0.85737000  0.54284500  0.33516800  1
  H  2555  1  0.42514600  0.02120000  0.56866200  1
  H  2558  1  0.35782700  0.97482200  0.63517200  1
  H  2571  1  0.03419710  0.02093100  0.40195000  1
  H  2574  1  0.10145300  0.97519700  0.33495400  1
  H  2587  1  0.53432500  0.49615300  0.56853200  1
  H  2590  1  0.60127900  0.54249800  0.63537200  1
  H  2618  1  0.39131400  0.19643000  0.40692800  1
  H  2619  1  0.35854100  0.18900200  0.38343300  1
  H  2620  1  0.37078600  0.14473700  0.44416600  1
  H  2621  1  0.33803200  0.13757400  0.42088900  1
  H  2622  1  0.29214800  0.15796300  0.41516400  1
  H  2623  1  0.25997000  0.18218300  0.42252800  1
  H  2624  1  0.28090900  0.21833100  0.37020500  1
  H  2625  1  0.31306300  0.19446500  0.36316100  1
  H  2626  1  0.29569100  0.15445500  0.34742400  1
  H  2627  1  0.30464500  0.15509000  0.31113200  1
  H  2628  1  0.38047400  0.15809700  0.32501100  1
  H  2629  1  0.37145200  0.15698800  0.36126900  1
  H  2630  1  0.35504100  0.12126900  0.38103500  1
  H  2631  1  0.27929300  0.13517500  0.38354400  1
  H  2632  1  0.27024900  0.09890900  0.38479100  1
  H  2633  1  0.34607200  0.08499200  0.38183500  1
  H  2636  1  0.24072000  0.21701000  0.41588500  1
  H  2637  1  0.41468700  0.18850000  0.43845800  1
  H  2639  1  0.36701600  0.15934500  0.28865900  1
  H  2641  1  0.28373900  0.06253300  0.38624300  1
  H  2667  1  0.89143800  0.32133700  0.56344700  1
  H  2668  1  0.85866500  0.32875100  0.58694400  1
  H  2669  1  0.87063000  0.37281900  0.52602800  1
  H  2670  1  0.83788100  0.37997500  0.54932200  1
  H  2671  1  0.79201300  0.35980400  0.55520300  1
  H  2672  1  0.75983300  0.33558300  0.54785000  1
  H  2673  1  0.78105300  0.29925400  0.59996400  1
  H  2674  1  0.81320300  0.32313300  0.60700200  1
  H  2675  1  0.79565700  0.36308400  0.62285500  1
  H  2676  1  0.80459900  0.36246900  0.65914900  1
  H  2677  1  0.88044800  0.35978800  0.64529000  1
  H  2678  1  0.87143200  0.36086700  0.60902900  1
  H  2679  1  0.85506700  0.39639600  0.58911500  1
  H  2680  1  0.77930500  0.38251500  0.58693300  1
  H  2681  1  0.77026800  0.41878400  0.58571700  1
  H  2682  1  0.84611400  0.43267500  0.58833800  1
  H  2685  1  0.74070000  0.30067700  0.55441100  1
  H  2686  1  0.91470200  0.32919700  0.53183900  1
  H  2688  1  0.86697800  0.35840500  0.68163700  1
  H  2690  1  0.78377500  0.45515400  0.58411900  1
  H  2716  1  0.63948800  0.83613100  0.92388500  1
  H  2717  1  0.60684100  0.85963700  0.91606000  1
  H  2718  1  0.62216900  0.80067300  0.87013800  1
  H  2719  1  0.58950200  0.82382100  0.86264600  1
  H  2720  1  0.54335600  0.82799600  0.88486500  1
  H  2721  1  0.51127700  0.82035900  0.90909500  1
  H  2722  1  0.52917700  0.87467100  0.94343300  1
  H  2723  1  0.56123600  0.88193900  0.91967500  1
  H  2724  1  0.54588000  0.89657900  0.87879400  1
  H  2725  1  0.55484500  0.93288400  0.87959800  1
  H  2726  1  0.63029900  0.91894600  0.88657000  1
  H  2727  1  0.62132400  0.88271100  0.88521800  1
  H  2728  1  0.60511700  0.86472900  0.84766500  1
  H  2729  1  0.52948800  0.85786100  0.86067600  1
  H  2730  1  0.52129000  0.85535800  0.82425300  1
  H  2731  1  0.59689300  0.86288600  0.81128600  1
  H  2734  1  0.49085000  0.82766600  0.94321200  1
  H  2735  1  0.66402400  0.80534500  0.91546500  1
  H  2737  1  0.61699000  0.95530600  0.88621400  1
  H  2739  1  0.53818000  0.84884800  0.78813200  1
  H  2765  1  0.13947300  0.68156500  0.04639900  1
  H  2766  1  0.10683100  0.65805600  0.05422500  1
  H  2767  1  0.12218600  0.71699500  0.10017100  1
  H  2768  1  0.08952220  0.69384600  0.10766300  1
  H  2769  1  0.04336820  0.68969200  0.08542100  1
  H  2770  1  0.01128620  0.69732600  0.06119400  1
  H  2771  1  0.02915620  0.64299300  0.02687700  1
  H  2772  1  0.06122020  0.63572700  0.05063000  1
  H  2773  1  0.04588220  0.62109800  0.09151000  1
  H  2774  1  0.05484520  0.58479100  0.09069000  1
  H  2775  1  0.13029300  0.59873100  0.08367900  1
  H  2776  1  0.12132200  0.63496600  0.08504700  1
  H  2777  1  0.10511800  0.65292900  0.12263000  1
  H  2778  1  0.02949520  0.65985200  0.10961400  1
  H  2779  1  0.02129920  0.66236900  0.14603700  1
  H  2780  1  0.09689320  0.65478800  0.15900900  1
  H  2783  1  0.99084600  0.69000900  0.02708600  1
  H  2784  1  0.16402600  0.71233700  0.05483200  1
  H  2786  1  0.11699000  0.56237100  0.08406200  1
  H  2788  1  0.03819620  0.66886900  0.18215900  1
  H  2814  1  0.00979118  0.32156000  0.40835800  1
  H  2815  1  0.04198420  0.32890300  0.38414700  1
  H  2816  1  0.03101320  0.37367300  0.44468900  1
  H  2817  1  0.06317420  0.38070100  0.42081900  1
  H  2818  1  0.10860100  0.36058800  0.41525900  1
  H  2819  1  0.14136300  0.33708900  0.42268400  1
  H  2820  1  0.12064300  0.29972000  0.37114000  1
  H  2821  1  0.08790020  0.32301600  0.36397100  1
  H  2822  1  0.10511900  0.36280900  0.34759900  1
  H  2823  1  0.09621920  0.36202300  0.31131100  1
  H  2824  1  0.02035520  0.35938200  0.32512200  1
  H  2825  1  0.02933520  0.36060900  0.36140000  1
  H  2826  1  0.04570720  0.39657200  0.38085300  1
  H  2827  1  0.12145900  0.38265700  0.38316500  1
  H  2828  1  0.13053000  0.41890600  0.38426900  1
  H  2829  1  0.05470720  0.43285600  0.38149500  1
  H  2832  1  0.16467300  0.30551900  0.41480000  1
  H  2833  1  0.99063800  0.32812700  0.44325100  1
  H  2835  1  0.03393020  0.35770700  0.28876500  1
  H  2837  1  0.11713200  0.45526800  0.38553800  1
  H  2863  1  0.50975900  0.19608000  0.56195800  1
  H  2864  1  0.54194900  0.18874500  0.58617300  1
  H  2865  1  0.53108400  0.14403800  0.52556900  1
  H  2866  1  0.56324200  0.13701400  0.54944700  1
  H  2867  1  0.60866000  0.15705500  0.55506400  1
  H  2868  1  0.64143100  0.18055000  0.54764700  1
  H  2869  1  0.62061800  0.21798000  0.59912000  1
  H  2870  1  0.58786900  0.19468600  0.60628100  1
  H  2871  1  0.60513600  0.15491200  0.62269300  1
  H  2872  1  0.59623300  0.15569400  0.65898000  1
  H  2873  1  0.52036400  0.15823900  0.64516600  1
  H  2874  1  0.52934900  0.15702100  0.60888700  1
  H  2875  1  0.54570300  0.12111700  0.58938500  1
  H  2876  1  0.62146600  0.13500700  0.58719200  1
  H  2877  1  0.63052300  0.09875500  0.58607900  1
  H  2878  1  0.55468800  0.08483000  0.58873400  1
  H  2881  1  0.66471500  0.21213700  0.55551800  1
  H  2882  1  0.49063800  0.18953800  0.52704900  1
  H  2884  1  0.53393700  0.15995200  0.68152200  1
  H  2886  1  0.61709800  0.06240000  0.58467200  1
  H  2912  1  0.76166000  0.68307900  0.92354500  1
  H  2913  1  0.79375700  0.65887200  0.91586800  1
  H  2914  1  0.77940800  0.71742700  0.86920100  1
  H  2915  1  0.81150600  0.69371200  0.86190500  1
  H  2916  1  0.85718600  0.68993100  0.88412100  1
  H  2917  1  0.88981800  0.69770500  0.90765400  1
  H  2918  1  0.87247900  0.64388300  0.94298400  1
  H  2919  1  0.83984900  0.63642600  0.91979600  1
  H  2920  1  0.85490300  0.62128200  0.87908200  1
  H  2921  1  0.84597700  0.58498300  0.88003600  1
  H  2922  1  0.77050700  0.59889300  0.88693800  1
  H  2923  1  0.77945000  0.63514500  0.88546400  1
  H  2924  1  0.79569000  0.65261200  0.84749600  1
  H  2925  1  0.87128300  0.65973600  0.86053100  1
  H  2926  1  0.87950400  0.66219700  0.82412600  1
  H  2927  1  0.80395300  0.65438600  0.81111000  1
  H  2930  1  0.91427900  0.68926600  0.93848500  1
  H  2931  1  0.74114700  0.71716900  0.91622700  1
  H  2933  1  0.78388900  0.56252000  0.88674300  1
  H  2935  1  0.86261700  0.66875000  0.78804400  1
  H  2961  1  0.26167300  0.83459600  0.04674100  1
  H  2962  1  0.29376400  0.85880500  0.05442200  1
  H  2963  1  0.27940300  0.80025900  0.10109600  1
  H  2964  1  0.31150000  0.82397300  0.10839500  1
  H  2965  1  0.35717200  0.82774800  0.08616800  1
  H  2966  1  0.38980600  0.81997200  0.06264000  1
  H  2967  1  0.37249900  0.87380900  0.02731900  1
  H  2968  1  0.33986500  0.88126800  0.05050400  1
  H  2969  1  0.35489900  0.89639900  0.09121800  1
  H  2970  1  0.34597300  0.93269900  0.09026800  1
  H  2971  1  0.27050300  0.91878900  0.08335700  1
  H  2972  1  0.27944600  0.88253700  0.08483000  1
  H  2973  1  0.29569700  0.86508700  0.12280000  1
  H  2974  1  0.37128400  0.85793800  0.10976000  1
  H  2975  1  0.37950900  0.85547400  0.14616500  1
  H  2976  1  0.30396400  0.86331300  0.15918500  1
  H  2979  1  0.41427500  0.82841000  0.03181100  1
  H  2980  1  0.24114500  0.80051400  0.05406600  1
  H  2982  1  0.28388300  0.95516200  0.08356300  1
  H  2984  1  0.36262900  0.84893900  0.18225000  1
  H  3010  1  0.51171000  0.82003500  0.56233600  1
  H  3011  1  0.54435800  0.82788000  0.58583500  1
  H  3012  1  0.52887200  0.87387200  0.52695400  1
  H  3013  1  0.56154200  0.88138000  0.55008700  1
  H  3014  1  0.60770900  0.85909700  0.55422000  1
  H  3015  1  0.63979900  0.83487500  0.54659000  1
  H  3016  1  0.62202000  0.80062400  0.60098600  1
  H  3017  1  0.58995100  0.82437000  0.60824900  1
  H  3018  1  0.60514900  0.86525600  0.62285900  1
  H  3019  1  0.59610700  0.86447100  0.65915300  1
  H  3020  1  0.52069800  0.85736900  0.64510300  1
  H  3021  1  0.52974500  0.85870700  0.60888600  1
  H  3022  1  0.54597100  0.89631200  0.59099900  1
  H  3023  1  0.62160000  0.88334000  0.58401600  1
  H  3024  1  0.62975400  0.91976900  0.58144300  1
  H  3025  1  0.55415900  0.93269300  0.58909300  1
  H  3028  1  0.66026100  0.80078600  0.55392700  1
  H  3029  1  0.48709800  0.82848800  0.53160400  1
  H  3031  1  0.53388600  0.85802000  0.68147900  1
  H  3033  1  0.61269700  0.95587900  0.57478500  1
  H  3059  1  0.01169620  0.69764100  0.40795200  1
  H  3060  1  0.04433820  0.68979600  0.38444800  1
  H  3061  1  0.02890020  0.64382900  0.44335600  1
  H  3062  1  0.06156420  0.63632100  0.42021500  1
  H  3063  1  0.10772200  0.65856800  0.41606000  1
  H  3064  1  0.13980600  0.68279300  0.42369700  1
  H  3065  1  0.12197400  0.71708800  0.36934000  1
  H  3066  1  0.08991220  0.69333600  0.36207200  1
  H  3067  1  0.10515100  0.65245700  0.34743100  1
  H  3068  1  0.09610920  0.65324000  0.31113700  1
  H  3069  1  0.02069220  0.66027200  0.32518500  1
  H  3070  1  0.02973920  0.65893900  0.36140400  1
  H  3071  1  0.04596620  0.62136800  0.37931600  1
  H  3072  1  0.12160000  0.63435100  0.38622100  1
  H  3073  1  0.12977000  0.59792200  0.38876600  1
  H  3074  1  0.05416620  0.58498700  0.38119800  1
  H  3077  1  0.16024400  0.71690300  0.41637800  1
  H  3078  1  0.98710300  0.68919500  0.43869600  1
  H  3080  1  0.03388420  0.65966100  0.28880900  1
  H  3082  1  0.11277000  0.56180800  0.39538300  1
  H  3108  1  0.26207000  0.18169800  0.04584800  1
  H  3109  1  0.29467500  0.15819700  0.05382700  1
  H  3110  1  0.27815900  0.21648300  0.10030100  1
  H  3111  1  0.31076200  0.19338100  0.10793800  1
  H  3112  1  0.35702700  0.18997300  0.08506500  1
  H  3113  1  0.38909000  0.19778200  0.06086900  1
  H  3114  1  0.37249500  0.14279200  0.02714400  1
  H  3115  1  0.34045400  0.13537100  0.05081100  1
  H  3116  1  0.35546200  0.12135800  0.09232500  1
  H  3117  1  0.34731300  0.08494200  0.09044600  1
  H  3118  1  0.27200900  0.09785200  0.08091800  1
  H  3119  1  0.28008600  0.13426000  0.08348300  1
  H  3120  1  0.29594700  0.15204300  0.12248700  1
  H  3121  1  0.37136400  0.16071300  0.10964000  1
  H  3122  1  0.37938000  0.16337100  0.14607200  1
  H  3123  1  0.30402100  0.15404000  0.15889800  1
  H  3126  1  0.41004900  0.19028800  0.02703400  1
  H  3127  1  0.23716400  0.21228000  0.05436900  1
  H  3129  1  0.28904500  0.06180200  0.07490200  1
  H  3131  1  0.36224200  0.16940900  0.18215500  1
  H  3157  1  0.76207600  0.33597200  0.92443900  1
  H  3158  1  0.79467800  0.35947600  0.91646100  1
  H  3159  1  0.77815200  0.30120100  0.86997600  1
  H  3160  1  0.81075400  0.32430600  0.86233900  1
  H  3161  1  0.85702500  0.32770500  0.88521800  1
  H  3162  1  0.88909500  0.31990100  0.90940900  1
  H  3163  1  0.87250700  0.37489500  0.94312900  1
  H  3164  1  0.84045800  0.38231200  0.91946900  1
  H  3165  1  0.85546100  0.39632300  0.87795400  1
  H  3166  1  0.84731700  0.43274100  0.87984600  1
  H  3167  1  0.77201600  0.41983300  0.88939900  1
  H  3168  1  0.78008900  0.38342600  0.88682300  1
  H  3169  1  0.79593800  0.36565300  0.84780000  1
  H  3170  1  0.87135100  0.35694500  0.86064000  1
  H  3171  1  0.87936100  0.35428000  0.82420800  1
  H  3172  1  0.80400500  0.36364800  0.81138900  1
  H  3175  1  0.91005300  0.32739500  0.94324500  1
  H  3176  1  0.73716300  0.30539600  0.91591200  1
  H  3178  1  0.78905900  0.45588100  0.89540900  1
  H  3180  1  0.86220400  0.34824500  0.78812500  1
  H  3206  1  0.88935600  0.69728400  0.56084300  1
  H  3207  1  0.85726300  0.68958900  0.58504600  1
  H  3208  1  0.87167500  0.64290900  0.52651300  1
  H  3209  1  0.83957800  0.63559700  0.55022200  1
  H  3210  1  0.79389900  0.65782300  0.55399800  1
  H  3211  1  0.76127000  0.68135500  0.54622400  1
  H  3212  1  0.77857600  0.71665800  0.60007400  1
  H  3213  1  0.81120300  0.69346800  0.60753100  1
  H  3214  1  0.79621800  0.65275000  0.62267900  1
  H  3215  1  0.80519700  0.65370400  0.65897000  1
  H  3216  1  0.88064500  0.66062800  0.64498200  1
  H  3217  1  0.87165100  0.65915100  0.60874300  1
  H  3218  1  0.85539800  0.62119700  0.59133700  1
  H  3219  1  0.77980300  0.63420100  0.58416600  1
  H  3220  1  0.77161200  0.59779000  0.58165400  1
  H  3221  1  0.84716300  0.58480900  0.58951900  1
  H  3224  1  0.73679600  0.71217700  0.55467600  1
  H  3225  1  0.90990600  0.68995300  0.52677500  1
  H  3227  1  0.86734500  0.66029100  0.68136400  1
  H  3229  1  0.78862400  0.56171700  0.57497200  1
  H  3255  1  0.38935500  0.82039700  0.40945100  1
  H  3256  1  0.35726600  0.82809000  0.38524600  1
  H  3257  1  0.37166700  0.87476900  0.44378100  1
  H  3258  1  0.33957400  0.88208200  0.42007000  1
  H  3259  1  0.29390400  0.85984800  0.41629800  1
  H  3260  1  0.26127300  0.83631600  0.42407700  1
  H  3261  1  0.27856200  0.80102100  0.37021700  1
  H  3262  1  0.31119100  0.82421000  0.36276000  1
  H  3263  1  0.29621700  0.86492400  0.34761200  1
  H  3264  1  0.30520000  0.86397200  0.31132200  1
  H  3265  1  0.38064700  0.85704700  0.32531800  1
  H  3266  1  0.37164900  0.85852200  0.36155600  1
  H  3267  1  0.35538900  0.89647900  0.37896200  1
  H  3268  1  0.27979200  0.88346700  0.38611800  1
  H  3269  1  0.27159400  0.91987600  0.38862400  1
  H  3270  1  0.34714400  0.93286700  0.38077500  1
  H  3273  1  0.23678500  0.80550600  0.41561700  1
  H  3274  1  0.40990900  0.82772800  0.44351600  1
  H  3276  1  0.36735000  0.85738000  0.28893300  1
  H  3278  1  0.28858500  0.95594900  0.39529100  1
  H  3304  1  0.13905300  0.33453900  0.04625200  1
  H  3305  1  0.10696500  0.35871400  0.05405500  1
  H  3306  1  0.12247300  0.30079600  0.10123300  1
  H  3307  1  0.09040720  0.32444100  0.10865000  1
  H  3308  1  0.04464120  0.32745100  0.08580100  1
  H  3309  1  0.01204820  0.31947400  0.06228800  1
  H  3310  1  0.02807820  0.37398100  0.02756900  1
  H  3311  1  0.06067320  0.38161600  0.05068200  1
  H  3312  1  0.04589520  0.39613000  0.09202600  1
  H  3313  1  0.05398020  0.43254300  0.09004600  1
  H  3314  1  0.12932600  0.41970300  0.08065800  1
  H  3315  1  0.12130200  0.38327400  0.08329800  1
  H  3316  1  0.10541900  0.36597100  0.12265800  1
  H  3317  1  0.03004720  0.35703900  0.10979200  1
  H  3318  1  0.02201020  0.35441000  0.14620600  1
  H  3319  1  0.09730720  0.36403300  0.15907600  1
  H  3322  1  0.98713000  0.32801100  0.03171700  1
  H  3323  1  0.16001900  0.30070000  0.05374000  1
  H  3325  1  0.11221200  0.45578200  0.07465700  1
  H  3327  1  0.03919020  0.34827300  0.18224700  1
  H  3353  1  0.63905400  0.18314100  0.92403700  1
  H  3354  1  0.60696800  0.15896400  0.91623300  1
  H  3355  1  0.62247800  0.21687700  0.86905300  1
  H  3356  1  0.59041500  0.19323300  0.86163400  1
  H  3357  1  0.54464300  0.19022200  0.88448200  1
  H  3358  1  0.51204700  0.19819900  0.90799100  1
  H  3359  1  0.52806800  0.14369400  0.94271300  1
  H  3360  1  0.56066600  0.13605500  0.91960500  1
  H  3361  1  0.54589900  0.12154800  0.87826200  1
  H  3362  1  0.55398200  0.08513400  0.88024000  1
  H  3363  1  0.62933100  0.09797100  0.88962500  1
  H  3364  1  0.62130700  0.13440000  0.88698700  1
  H  3365  1  0.60541600  0.15169100  0.84762900  1
  H  3366  1  0.53004900  0.16064400  0.86050000  1
  H  3367  1  0.52200900  0.16327400  0.82408500  1
  H  3368  1  0.59730200  0.15363000  0.81121200  1
  H  3371  1  0.48712800  0.18966700  0.93856100  1
  H  3372  1  0.66003400  0.21697000  0.91654400  1
  H  3374  1  0.61221100  0.06189200  0.89563200  1
  H  3376  1  0.53918500  0.16939500  0.78804100  1
  H  3387  1  0.14893800  0.25776100  0.42570000  1
  H  3390  1  0.25159600  0.25621000  0.35329800  1
  H  3403  1  0.64894800  0.25989400  0.54459800  1
  H  3406  1  0.75161000  0.26146700  0.61700200  1
  H  3419  1  0.39917600  0.81762200  0.98418300  1
  H  3422  1  0.50153300  0.89024700  0.98226900  1
  H  3435  1  0.89917300  0.70006300  0.98611000  1
  H  3438  1  0.00151718  0.62742200  0.98803700  1
  H  3451  1  0.75193000  0.75979500  0.54387100  1
  H  3454  1  0.64960800  0.76177300  0.61653100  1
  H  3467  1  0.25191700  0.75789000  0.42643400  1
  H  3470  1  0.14960200  0.75590600  0.35376600  1
  H  3483  1  0.50177300  0.20049500  0.98611300  1
  H  3486  1  0.39967500  0.12763400  0.98810300  1
  H  3499  1  0.00177218  0.31717600  0.98417100  1
  H  3502  1  0.89969400  0.39005700  0.98216700  1
  H  3515  1  0.64923300  0.75771900  0.92632100  1
  H  3518  1  0.75143700  0.75607500  0.85353000  1
  H  3531  1  0.14922500  0.75996900  0.04398500  1
  H  3534  1  0.25145100  0.76159400  0.11675500  1
  H  3547  1  0.89892100  0.31832300  0.48407600  1
  H  3550  1  0.00162518  0.39068000  0.48252700  1
  H  3563  1  0.39894400  0.19933300  0.48623000  1
  H  3566  1  0.50168700  0.12701500  0.48773000  1
  H  3579  1  0.25176600  0.25983400  0.04351200  1
  H  3582  1  0.14972600  0.26180400  0.11643000  1
  H  3595  1  0.75178100  0.25783600  0.92675600  1
  H  3598  1  0.64971000  0.25588600  0.85386800  1
  H  3611  1  0.00187718  0.70001600  0.48633800  1
  H  3614  1  0.89963500  0.62725800  0.48787000  1
  H  3627  1  0.50187700  0.81767300  0.48395800  1
  H  3630  1  0.39961900  0.89041700  0.48243100  1
  H  3643  1  0.39591100  0.17590100  0.24613500  1
  H  3646  1  0.32832500  0.10875900  0.20113300  1
  H  3659  1  0.89584500  0.34192300  0.72380900  1
  H  3662  1  0.82839800  0.40894100  0.76916700  1
  H  3675  1  0.64575500  0.00043100  0.90380000  1
  H  3678  1  0.57822100  0.04282100  0.83502200  1
  H  3691  1  0.14575400  0.51714000  0.06643600  1
  H  3694  1  0.07817620  0.47485900  0.13525200  1
  H  3707  1  0.00553418  0.34192700  0.24780200  1
  H  3710  1  0.07188720  0.40917300  0.20146800  1
  H  3723  1  0.50553500  0.17573600  0.72248100  1
  H  3726  1  0.57189800  0.10850200  0.76882200  1
  H  3739  1  0.75532900  0.51690800  0.90408000  1
  H  3742  1  0.82291300  0.47525100  0.83489300  1
  H  3755  1  0.25532100  0.00083800  0.06619700  1
  H  3758  1  0.32293800  0.04243000  0.13540200  1
  H  3771  1  0.50487900  0.84009800  0.72776800  1
  H  3774  1  0.57361200  0.90874200  0.76905100  1
  H  3787  1  0.00487418  0.67753300  0.24265800  1
  H  3790  1  0.07355220  0.60893700  0.20123400  1
  H  3803  1  0.89615100  0.67747000  0.72699100  1
  H  3806  1  0.82792100  0.60873500  0.76869400  1
  H  3819  1  0.39615800  0.84020700  0.24329800  1
  H  3822  1  0.32792400  0.90894600  0.20160200  1
  H  3835  1  0.14620100  0.49746900  0.40181700  1
  H  3838  1  0.07822020  0.54284500  0.33516800  1
  H  3851  1  0.64599600  0.02120000  0.56866200  1
  H  3854  1  0.57867700  0.97482200  0.63517200  1
  H  3867  1  0.25504700  0.02093100  0.40195000  1
  H  3870  1  0.32230300  0.97519700  0.33495400  1
  H  3883  1  0.75517500  0.49615300  0.56853200  1
  H  3886  1  0.82212900  0.54249800  0.63537200  1
  H  3914  1  0.61216400  0.19643000  0.40692800  1
  H  3915  1  0.57939100  0.18900200  0.38343300  1
  H  3916  1  0.59163600  0.14473700  0.44416600  1
  H  3917  1  0.55888200  0.13757400  0.42088900  1
  H  3918  1  0.51299800  0.15796300  0.41516400  1
  H  3919  1  0.48082000  0.18218300  0.42252800  1
  H  3920  1  0.50175900  0.21833100  0.37020500  1
  H  3921  1  0.53391300  0.19446500  0.36316100  1
  H  3922  1  0.51654100  0.15445500  0.34742400  1
  H  3923  1  0.52549500  0.15509000  0.31113200  1
  H  3924  1  0.60132400  0.15809700  0.32501100  1
  H  3925  1  0.59230200  0.15698800  0.36126900  1
  H  3926  1  0.57589100  0.12126900  0.38103500  1
  H  3927  1  0.50014300  0.13517500  0.38354400  1
  H  3928  1  0.49109900  0.09890900  0.38479100  1
  H  3929  1  0.56692200  0.08499200  0.38183500  1
  H  3932  1  0.46157000  0.21701000  0.41588500  1
  H  3933  1  0.63553700  0.18850000  0.43845800  1
  H  3935  1  0.58786600  0.15934500  0.28865900  1
  H  3937  1  0.50458900  0.06253300  0.38624300  1
  H  3963  1  0.11228800  0.32133700  0.56344700  1
  H  3964  1  0.07951530  0.32875100  0.58694400  1
  H  3965  1  0.09148030  0.37281900  0.52602800  1
  H  3966  1  0.05873130  0.37997500  0.54932200  1
  H  3967  1  0.01286330  0.35980400  0.55520300  1
  H  3968  1  0.98068300  0.33558300  0.54785000  1
  H  3969  1  0.00190327  0.29925400  0.59996400  1
  H  3970  1  0.03405330  0.32313300  0.60700200  1
  H  3971  1  0.01650730  0.36308400  0.62285500  1
  H  3972  1  0.02544930  0.36246900  0.65914900  1
  H  3973  1  0.10129800  0.35978800  0.64529000  1
  H  3974  1  0.09228230  0.36086700  0.60902900  1
  H  3975  1  0.07591730  0.39639600  0.58911500  1
  H  3976  1  0.00015527  0.38251500  0.58693300  1
  H  3977  1  0.99111800  0.41878400  0.58571700  1
  H  3978  1  0.06696430  0.43267500  0.58833800  1
  H  3981  1  0.96155000  0.30067700  0.55441100  1
  H  3982  1  0.13555200  0.32919700  0.53183900  1
  H  3984  1  0.08782830  0.35840500  0.68163700  1
  H  3986  1  0.00462527  0.45515400  0.58411900  1
  H  4012  1  0.86033800  0.83613100  0.92388500  1
  H  4013  1  0.82769100  0.85963700  0.91606000  1
  H  4014  1  0.84301900  0.80067300  0.87013800  1
  H  4015  1  0.81035200  0.82382100  0.86264600  1
  H  4016  1  0.76420600  0.82799600  0.88486500  1
  H  4017  1  0.73212700  0.82035900  0.90909500  1
  H  4018  1  0.75002700  0.87467100  0.94343300  1
  H  4019  1  0.78208600  0.88193900  0.91967500  1
  H  4020  1  0.76673000  0.89657900  0.87879400  1
  H  4021  1  0.77569500  0.93288400  0.87959800  1
  H  4022  1  0.85114900  0.91894600  0.88657000  1
  H  4023  1  0.84217400  0.88271100  0.88521800  1
  H  4024  1  0.82596700  0.86472900  0.84766500  1
  H  4025  1  0.75033800  0.85786100  0.86067600  1
  H  4026  1  0.74214000  0.85535800  0.82425300  1
  H  4027  1  0.81774300  0.86288600  0.81128600  1
  H  4030  1  0.71170000  0.82766600  0.94321200  1
  H  4031  1  0.88487400  0.80534500  0.91546500  1
  H  4033  1  0.83784000  0.95530600  0.88621400  1
  H  4035  1  0.75903000  0.84884800  0.78813200  1
  H  4061  1  0.36032300  0.68156500  0.04639900  1
  H  4062  1  0.32768100  0.65805600  0.05422500  1
  H  4063  1  0.34303600  0.71699500  0.10017100  1
  H  4064  1  0.31037200  0.69384600  0.10766300  1
  H  4065  1  0.26421800  0.68969200  0.08542100  1
  H  4066  1  0.23213600  0.69732600  0.06119400  1
  H  4067  1  0.25000600  0.64299300  0.02687700  1
  H  4068  1  0.28207000  0.63572700  0.05063000  1
  H  4069  1  0.26673200  0.62109800  0.09151000  1
  H  4070  1  0.27569500  0.58479100  0.09069000  1
  H  4071  1  0.35114300  0.59873100  0.08367900  1
  H  4072  1  0.34217200  0.63496600  0.08504700  1
  H  4073  1  0.32596800  0.65292900  0.12263000  1
  H  4074  1  0.25034500  0.65985200  0.10961400  1
  H  4075  1  0.24214900  0.66236900  0.14603700  1
  H  4076  1  0.31774300  0.65478800  0.15900900  1
  H  4079  1  0.21169600  0.69000900  0.02708600  1
  H  4080  1  0.38487600  0.71233700  0.05483200  1
  H  4082  1  0.33784000  0.56237100  0.08406200  1
  H  4084  1  0.25904600  0.66886900  0.18215900  1
  H  4110  1  0.23064100  0.32156000  0.40835800  1
  H  4111  1  0.26283400  0.32890300  0.38414700  1
  H  4112  1  0.25186300  0.37367300  0.44468900  1
  H  4113  1  0.28402400  0.38070100  0.42081900  1
  H  4114  1  0.32945100  0.36058800  0.41525900  1
  H  4115  1  0.36221300  0.33708900  0.42268400  1
  H  4116  1  0.34149300  0.29972000  0.37114000  1
  H  4117  1  0.30875000  0.32301600  0.36397100  1
  H  4118  1  0.32596900  0.36280900  0.34759900  1
  H  4119  1  0.31706900  0.36202300  0.31131100  1
  H  4120  1  0.24120500  0.35938200  0.32512200  1
  H  4121  1  0.25018500  0.36060900  0.36140000  1
  H  4122  1  0.26655700  0.39657200  0.38085300  1
  H  4123  1  0.34230900  0.38265700  0.38316500  1
  H  4124  1  0.35138000  0.41890600  0.38426900  1
  H  4125  1  0.27555700  0.43285600  0.38149500  1
  H  4128  1  0.38552300  0.30551900  0.41480000  1
  H  4129  1  0.21148800  0.32812700  0.44325100  1
  H  4131  1  0.25478000  0.35770700  0.28876500  1
  H  4133  1  0.33798200  0.45526800  0.38553800  1
  H  4159  1  0.73060900  0.19608000  0.56195800  1
  H  4160  1  0.76279900  0.18874500  0.58617300  1
  H  4161  1  0.75193400  0.14403800  0.52556900  1
  H  4162  1  0.78409200  0.13701400  0.54944700  1
  H  4163  1  0.82951000  0.15705500  0.55506400  1
  H  4164  1  0.86228100  0.18055000  0.54764700  1
  H  4165  1  0.84146800  0.21798000  0.59912000  1
  H  4166  1  0.80871900  0.19468600  0.60628100  1
  H  4167  1  0.82598600  0.15491200  0.62269300  1
  H  4168  1  0.81708300  0.15569400  0.65898000  1
  H  4169  1  0.74121400  0.15823900  0.64516600  1
  H  4170  1  0.75019900  0.15702100  0.60888700  1
  H  4171  1  0.76655300  0.12111700  0.58938500  1
  H  4172  1  0.84231600  0.13500700  0.58719200  1
  H  4173  1  0.85137300  0.09875500  0.58607900  1
  H  4174  1  0.77553800  0.08483000  0.58873400  1
  H  4177  1  0.88556500  0.21213700  0.55551800  1
  H  4178  1  0.71148800  0.18953800  0.52704900  1
  H  4180  1  0.75478700  0.15995200  0.68152200  1
  H  4182  1  0.83794800  0.06240000  0.58467200  1
  H  4208  1  0.98251000  0.68307900  0.92354500  1
  H  4209  1  0.01460730  0.65887200  0.91586800  1
  H  4210  1  0.00025827  0.71742700  0.86920100  1
  H  4211  1  0.03235630  0.69371200  0.86190500  1
  H  4212  1  0.07803630  0.68993100  0.88412100  1
  H  4213  1  0.11066800  0.69770500  0.90765400  1
  H  4214  1  0.09332930  0.64388300  0.94298400  1
  H  4215  1  0.06069930  0.63642600  0.91979600  1
  H  4216  1  0.07575330  0.62128200  0.87908200  1
  H  4217  1  0.06682730  0.58498300  0.88003600  1
  H  4218  1  0.99135700  0.59889300  0.88693800  1
  H  4219  1  0.00030027  0.63514500  0.88546400  1
  H  4220  1  0.01654030  0.65261200  0.84749600  1
  H  4221  1  0.09213330  0.65973600  0.86053100  1
  H  4222  1  0.10035400  0.66219700  0.82412600  1
  H  4223  1  0.02480330  0.65438600  0.81111000  1
  H  4226  1  0.13512900  0.68926600  0.93848500  1
  H  4227  1  0.96199700  0.71716900  0.91622700  1
  H  4229  1  0.00473927  0.56252000  0.88674300  1
  H  4231  1  0.08346730  0.66875000  0.78804400  1
  H  4257  1  0.48252300  0.83459600  0.04674100  1
  H  4258  1  0.51461400  0.85880500  0.05442200  1
  H  4259  1  0.50025300  0.80025900  0.10109600  1
  H  4260  1  0.53235000  0.82397300  0.10839500  1
  H  4261  1  0.57802200  0.82774800  0.08616800  1
  H  4262  1  0.61065600  0.81997200  0.06264000  1
  H  4263  1  0.59334900  0.87380900  0.02731900  1
  H  4264  1  0.56071500  0.88126800  0.05050400  1
  H  4265  1  0.57574900  0.89639900  0.09121800  1
  H  4266  1  0.56682300  0.93269900  0.09026800  1
  H  4267  1  0.49135300  0.91878900  0.08335700  1
  H  4268  1  0.50029600  0.88253700  0.08483000  1
  H  4269  1  0.51654700  0.86508700  0.12280000  1
  H  4270  1  0.59213400  0.85793800  0.10976000  1
  H  4271  1  0.60035900  0.85547400  0.14616500  1
  H  4272  1  0.52481400  0.86331300  0.15918500  1
  H  4275  1  0.63512500  0.82841000  0.03181100  1
  H  4276  1  0.46199500  0.80051400  0.05406600  1
  H  4278  1  0.50473300  0.95516200  0.08356300  1
  H  4280  1  0.58347900  0.84893900  0.18225000  1
  H  4306  1  0.73256000  0.82003500  0.56233600  1
  H  4307  1  0.76520800  0.82788000  0.58583500  1
  H  4308  1  0.74972200  0.87387200  0.52695400  1
  H  4309  1  0.78239200  0.88138000  0.55008700  1
  H  4310  1  0.82855900  0.85909700  0.55422000  1
  H  4311  1  0.86064900  0.83487500  0.54659000  1
  H  4312  1  0.84287000  0.80062400  0.60098600  1
  H  4313  1  0.81080100  0.82437000  0.60824900  1
  H  4314  1  0.82599900  0.86525600  0.62285900  1
  H  4315  1  0.81695700  0.86447100  0.65915300  1
  H  4316  1  0.74154800  0.85736900  0.64510300  1
  H  4317  1  0.75059500  0.85870700  0.60888600  1
  H  4318  1  0.76682100  0.89631200  0.59099900  1
  H  4319  1  0.84245000  0.88334000  0.58401600  1
  H  4320  1  0.85060400  0.91976900  0.58144300  1
  H  4321  1  0.77500900  0.93269300  0.58909300  1
  H  4324  1  0.88111100  0.80078600  0.55392700  1
  H  4325  1  0.70794800  0.82848800  0.53160400  1
  H  4327  1  0.75473600  0.85802000  0.68147900  1
  H  4329  1  0.83354700  0.95587900  0.57478500  1
  H  4355  1  0.23254600  0.69764100  0.40795200  1
  H  4356  1  0.26518800  0.68979600  0.38444800  1
  H  4357  1  0.24975000  0.64382900  0.44335600  1
  H  4358  1  0.28241400  0.63632100  0.42021500  1
  H  4359  1  0.32857200  0.65856800  0.41606000  1
  H  4360  1  0.36065600  0.68279300  0.42369700  1
  H  4361  1  0.34282400  0.71708800  0.36934000  1
  H  4362  1  0.31076200  0.69333600  0.36207200  1
  H  4363  1  0.32600100  0.65245700  0.34743100  1
  H  4364  1  0.31695900  0.65324000  0.31113700  1
  H  4365  1  0.24154200  0.66027200  0.32518500  1
  H  4366  1  0.25058900  0.65893900  0.36140400  1
  H  4367  1  0.26681600  0.62136800  0.37931600  1
  H  4368  1  0.34245000  0.63435100  0.38622100  1
  H  4369  1  0.35062000  0.59792200  0.38876600  1
  H  4370  1  0.27501600  0.58498700  0.38119800  1
  H  4373  1  0.38109400  0.71690300  0.41637800  1
  H  4374  1  0.20795300  0.68919500  0.43869600  1
  H  4376  1  0.25473400  0.65966100  0.28880900  1
  H  4378  1  0.33362000  0.56180800  0.39538300  1
  H  4404  1  0.48292000  0.18169800  0.04584800  1
  H  4405  1  0.51552500  0.15819700  0.05382700  1
  H  4406  1  0.49900900  0.21648300  0.10030100  1
  H  4407  1  0.53161200  0.19338100  0.10793800  1
  H  4408  1  0.57787700  0.18997300  0.08506500  1
  H  4409  1  0.60994000  0.19778200  0.06086900  1
  H  4410  1  0.59334500  0.14279200  0.02714400  1
  H  4411  1  0.56130400  0.13537100  0.05081100  1
  H  4412  1  0.57631200  0.12135800  0.09232500  1
  H  4413  1  0.56816300  0.08494200  0.09044600  1
  H  4414  1  0.49285900  0.09785200  0.08091800  1
  H  4415  1  0.50093600  0.13426000  0.08348300  1
  H  4416  1  0.51679700  0.15204300  0.12248700  1
  H  4417  1  0.59221400  0.16071300  0.10964000  1
  H  4418  1  0.60023000  0.16337100  0.14607200  1
  H  4419  1  0.52487100  0.15404000  0.15889800  1
  H  4422  1  0.63089900  0.19028800  0.02703400  1
  H  4423  1  0.45801400  0.21228000  0.05436900  1
  H  4425  1  0.50989500  0.06180200  0.07490200  1
  H  4427  1  0.58309200  0.16940900  0.18215500  1
  H  4453  1  0.98292600  0.33597200  0.92443900  1
  H  4454  1  0.01552830  0.35947600  0.91646100  1
  H  4455  1  0.99900200  0.30120100  0.86997600  1
  H  4456  1  0.03160430  0.32430600  0.86233900  1
  H  4457  1  0.07787530  0.32770500  0.88521800  1
  H  4458  1  0.10994500  0.31990100  0.90940900  1
  H  4459  1  0.09335730  0.37489500  0.94312900  1
  H  4460  1  0.06130830  0.38231200  0.91946900  1
  H  4461  1  0.07631130  0.39632300  0.87795400  1
  H  4462  1  0.06816730  0.43274100  0.87984600  1
  H  4463  1  0.99286600  0.41983300  0.88939900  1
  H  4464  1  0.00093927  0.38342600  0.88682300  1
  H  4465  1  0.01678830  0.36565300  0.84780000  1
  H  4466  1  0.09220130  0.35694500  0.86064000  1
  H  4467  1  0.10021100  0.35428000  0.82420800  1
  H  4468  1  0.02485530  0.36364800  0.81138900  1
  H  4471  1  0.13090300  0.32739500  0.94324500  1
  H  4472  1  0.95801300  0.30539600  0.91591200  1
  H  4474  1  0.00990927  0.45588100  0.89540900  1
  H  4476  1  0.08305430  0.34824500  0.78812500  1
  H  4502  1  0.11020600  0.69728400  0.56084300  1
  H  4503  1  0.07811330  0.68958900  0.58504600  1
  H  4504  1  0.09252530  0.64290900  0.52651300  1
  H  4505  1  0.06042830  0.63559700  0.55022200  1
  H  4506  1  0.01474930  0.65782300  0.55399800  1
  H  4507  1  0.98212000  0.68135500  0.54622400  1
  H  4508  1  0.99942600  0.71665800  0.60007400  1
  H  4509  1  0.03205330  0.69346800  0.60753100  1
  H  4510  1  0.01706830  0.65275000  0.62267900  1
  H  4511  1  0.02604730  0.65370400  0.65897000  1
  H  4512  1  0.10149500  0.66062800  0.64498200  1
  H  4513  1  0.09250130  0.65915100  0.60874300  1
  H  4514  1  0.07624830  0.62119700  0.59133700  1
  H  4515  1  0.00065327  0.63420100  0.58416600  1
  H  4516  1  0.99246200  0.59779000  0.58165400  1
  H  4517  1  0.06801330  0.58480900  0.58951900  1
  H  4520  1  0.95764600  0.71217700  0.55467600  1
  H  4521  1  0.13075600  0.68995300  0.52677500  1
  H  4523  1  0.08819530  0.66029100  0.68136400  1
  H  4525  1  0.00947427  0.56171700  0.57497200  1
  H  4551  1  0.61020500  0.82039700  0.40945100  1
  H  4552  1  0.57811600  0.82809000  0.38524600  1
  H  4553  1  0.59251700  0.87476900  0.44378100  1
  H  4554  1  0.56042400  0.88208200  0.42007000  1
  H  4555  1  0.51475400  0.85984800  0.41629800  1
  H  4556  1  0.48212300  0.83631600  0.42407700  1
  H  4557  1  0.49941200  0.80102100  0.37021700  1
  H  4558  1  0.53204100  0.82421000  0.36276000  1
  H  4559  1  0.51706700  0.86492400  0.34761200  1
  H  4560  1  0.52605000  0.86397200  0.31132200  1
  H  4561  1  0.60149700  0.85704700  0.32531800  1
  H  4562  1  0.59249900  0.85852200  0.36155600  1
  H  4563  1  0.57623900  0.89647900  0.37896200  1
  H  4564  1  0.50064200  0.88346700  0.38611800  1
  H  4565  1  0.49244400  0.91987600  0.38862400  1
  H  4566  1  0.56799400  0.93286700  0.38077500  1
  H  4569  1  0.45763500  0.80550600  0.41561700  1
  H  4570  1  0.63075900  0.82772800  0.44351600  1
  H  4572  1  0.58820000  0.85738000  0.28893300  1
  H  4574  1  0.50943500  0.95594900  0.39529100  1
  H  4600  1  0.35990300  0.33453900  0.04625200  1
  H  4601  1  0.32781500  0.35871400  0.05405500  1
  H  4602  1  0.34332300  0.30079600  0.10123300  1
  H  4603  1  0.31125700  0.32444100  0.10865000  1
  H  4604  1  0.26549100  0.32745100  0.08580100  1
  H  4605  1  0.23289800  0.31947400  0.06228800  1
  H  4606  1  0.24892800  0.37398100  0.02756900  1
  H  4607  1  0.28152300  0.38161600  0.05068200  1
  H  4608  1  0.26674500  0.39613000  0.09202600  1
  H  4609  1  0.27483000  0.43254300  0.09004600  1
  H  4610  1  0.35017600  0.41970300  0.08065800  1
  H  4611  1  0.34215200  0.38327400  0.08329800  1
  H  4612  1  0.32626900  0.36597100  0.12265800  1
  H  4613  1  0.25089700  0.35703900  0.10979200  1
  H  4614  1  0.24286000  0.35441000  0.14620600  1
  H  4615  1  0.31815700  0.36403300  0.15907600  1
  H  4618  1  0.20798000  0.32801100  0.03171700  1
  H  4619  1  0.38086900  0.30070000  0.05374000  1
  H  4621  1  0.33306200  0.45578200  0.07465700  1
  H  4623  1  0.26004000  0.34827300  0.18224700  1
  H  4649  1  0.85990400  0.18314100  0.92403700  1
  H  4650  1  0.82781800  0.15896400  0.91623300  1
  H  4651  1  0.84332800  0.21687700  0.86905300  1
  H  4652  1  0.81126500  0.19323300  0.86163400  1
  H  4653  1  0.76549300  0.19022200  0.88448200  1
  H  4654  1  0.73289700  0.19819900  0.90799100  1
  H  4655  1  0.74891800  0.14369400  0.94271300  1
  H  4656  1  0.78151600  0.13605500  0.91960500  1
  H  4657  1  0.76674900  0.12154800  0.87826200  1
  H  4658  1  0.77483200  0.08513400  0.88024000  1
  H  4659  1  0.85018100  0.09797100  0.88962500  1
  H  4660  1  0.84215700  0.13440000  0.88698700  1
  H  4661  1  0.82626600  0.15169100  0.84762900  1
  H  4662  1  0.75089900  0.16064400  0.86050000  1
  H  4663  1  0.74285900  0.16327400  0.82408500  1
  H  4664  1  0.81815200  0.15363000  0.81121200  1
  H  4667  1  0.70797800  0.18966700  0.93856100  1
  H  4668  1  0.88088400  0.21697000  0.91654400  1
  H  4670  1  0.83306100  0.06189200  0.89563200  1
  H  4672  1  0.76003500  0.16939500  0.78804100  1
  H  4683  1  0.36978800  0.25776100  0.42570000  1
  H  4686  1  0.47244600  0.25621000  0.35329800  1
  H  4699  1  0.86979800  0.25989400  0.54459800  1
  H  4702  1  0.97246000  0.26146700  0.61700200  1
  H  4715  1  0.62002600  0.81762200  0.98418300  1
  H  4718  1  0.72238300  0.89024700  0.98226900  1
  H  4731  1  0.12002300  0.70006300  0.98611000  1
  H  4734  1  0.22236700  0.62742200  0.98803700  1
  H  4747  1  0.97278000  0.75979500  0.54387100  1
  H  4750  1  0.87045800  0.76177300  0.61653100  1
  H  4763  1  0.47276700  0.75789000  0.42643400  1
  H  4766  1  0.37045200  0.75590600  0.35376600  1
  H  4779  1  0.72262300  0.20049500  0.98611300  1
  H  4782  1  0.62052500  0.12763400  0.98810300  1
  H  4795  1  0.22262200  0.31717600  0.98417100  1
  H  4798  1  0.12054400  0.39005700  0.98216700  1
  H  4811  1  0.87008300  0.75771900  0.92632100  1
  H  4814  1  0.97228700  0.75607500  0.85353000  1
  H  4827  1  0.37007500  0.75996900  0.04398500  1
  H  4830  1  0.47230100  0.76159400  0.11675500  1
  H  4843  1  0.11977100  0.31832300  0.48407600  1
  H  4846  1  0.22247500  0.39068000  0.48252700  1
  H  4859  1  0.61979400  0.19933300  0.48623000  1
  H  4862  1  0.72253700  0.12701500  0.48773000  1
  H  4875  1  0.47261600  0.25983400  0.04351200  1
  H  4878  1  0.37057600  0.26180400  0.11643000  1
  H  4891  1  0.97263100  0.25783600  0.92675600  1
  H  4894  1  0.87056000  0.25588600  0.85386800  1
  H  4907  1  0.22272700  0.70001600  0.48633800  1
  H  4910  1  0.12048500  0.62725800  0.48787000  1
  H  4923  1  0.72272700  0.81767300  0.48395800  1
  H  4926  1  0.62046900  0.89041700  0.48243100  1
  H  4939  1  0.61676100  0.17590100  0.24613500  1
  H  4942  1  0.54917500  0.10875900  0.20113300  1
  H  4955  1  0.11669500  0.34192300  0.72380900  1
  H  4958  1  0.04924830  0.40894100  0.76916700  1
  H  4971  1  0.86660500  0.00043100  0.90380000  1
  H  4974  1  0.79907100  0.04282100  0.83502200  1
  H  4987  1  0.36660400  0.51714000  0.06643600  1
  H  4990  1  0.29902600  0.47485900  0.13525200  1
  H  5003  1  0.22638400  0.34192700  0.24780200  1
  H  5006  1  0.29273700  0.40917300  0.20146800  1
  H  5019  1  0.72638500  0.17573600  0.72248100  1
  H  5022  1  0.79274800  0.10850200  0.76882200  1
  H  5035  1  0.97617900  0.51690800  0.90408000  1
  H  5038  1  0.04376330  0.47525100  0.83489300  1
  H  5051  1  0.47617100  0.00083800  0.06619700  1
  H  5054  1  0.54378800  0.04243000  0.13540200  1
  H  5067  1  0.72572900  0.84009800  0.72776800  1
  H  5070  1  0.79446200  0.90874200  0.76905100  1
  H  5083  1  0.22572400  0.67753300  0.24265800  1
  H  5086  1  0.29440200  0.60893700  0.20123400  1
  H  5099  1  0.11700100  0.67747000  0.72699100  1
  H  5102  1  0.04877130  0.60873500  0.76869400  1
  H  5115  1  0.61700800  0.84020700  0.24329800  1
  H  5118  1  0.54877400  0.90894600  0.20160200  1
  H  5131  1  0.36705100  0.49746900  0.40181700  1
  H  5134  1  0.29907000  0.54284500  0.33516800  1
  H  5147  1  0.86684600  0.02120000  0.56866200  1
  H  5150  1  0.79952700  0.97482200  0.63517200  1
  H  5163  1  0.47589700  0.02093100  0.40195000  1
  H  5166  1  0.54315300  0.97519700  0.33495400  1
  H  5179  1  0.97602500  0.49615300  0.56853200  1
  H  5182  1  0.04297930  0.54249800  0.63537200  1
  C  1  1  0.86547300  0.08798900  0.38380100  1
  C  2  1  0.84664800  0.10335900  0.38438500  1
  C  3  1  0.85207500  0.12501100  0.38401000  1
  C  4  1  0.87662400  0.13263000  0.38352200  1
  C  5  1  0.89526600  0.11694900  0.38217700  1
  C  6  1  0.88999000  0.09532600  0.38256100  1
  C  7  1  0.88367100  0.15599700  0.38215500  1
  C  8  1  0.89071100  0.15701000  0.35875400  1
  C  9  1  0.91525900  0.15741000  0.35111600  1
  C  10  1  0.92067700  0.15768900  0.32946500  1
  C  11  1  0.90184400  0.15709100  0.31410600  1
  C  12  1  0.87733300  0.15584700  0.32145800  1
  C  13  1  0.87206600  0.15554000  0.34308900  1
  C  14  1  0.86340800  0.17221400  0.38720000  1
  C  15  1  0.90399900  0.16129000  0.39823400  1
  C  16  1  0.91927800  0.17922600  0.39596900  1
  C  17  1  0.93875700  0.18367100  0.40998700  1
  C  18  1  0.94362100  0.17089500  0.42773100  1
  C  19  1  0.92713700  0.15408200  0.43122500  1
  C  20  1  0.90772600  0.14974200  0.41713100  1
  C  21  1  0.84814600  0.17037400  0.40520700  1
  C  22  1  0.82904400  0.18479900  0.40962100  1
  C  23  1  0.82451700  0.20243100  0.39662400  1
  C  24  1  0.84083900  0.20539500  0.37960900  1
  C  25  1  0.85992500  0.19097200  0.37537800  1
  C  42  1  0.96353800  0.17542900  0.44114300  1
  C  43  1  0.85956700  0.06659000  0.38428600  1
  C  46  1  0.90775900  0.15756500  0.29270800  1
  C  48  1  0.80551300  0.21667200  0.40130300  1
  C  50  1  0.36550200  0.42969100  0.58653300  1
  C  51  1  0.34666700  0.41432800  0.58603900  1
  C  52  1  0.35208700  0.39267500  0.58638200  1
  C  53  1  0.37663600  0.38504400  0.58675700  1
  C  54  1  0.39528900  0.40072100  0.58804200  1
  C  55  1  0.39002200  0.42234600  0.58767000  1
  C  56  1  0.38366800  0.36167700  0.58813100  1
  C  57  1  0.39069100  0.36066000  0.61153200  1
  C  58  1  0.41523700  0.36038000  0.61917900  1
  C  59  1  0.42065200  0.36011800  0.64083200  1
  C  60  1  0.40180900  0.36062800  0.65618500  1
  C  61  1  0.37729300  0.36177400  0.64882600  1
  C  62  1  0.37203500  0.36206600  0.62719300  1
  C  63  1  0.36340000  0.34546900  0.58307900  1
  C  64  1  0.40399600  0.35637700  0.57206000  1
  C  65  1  0.41934700  0.33849100  0.57437400  1
  C  66  1  0.43882200  0.33404900  0.56034900  1
  C  67  1  0.44360700  0.34677500  0.54255400  1
  C  68  1  0.42704200  0.36352000  0.53900800  1
  C  69  1  0.40763200  0.36785300  0.55310600  1
  C  70  1  0.34806700  0.34735400  0.56512100  1
  C  71  1  0.32896600  0.33293000  0.56071300  1
  C  72  1  0.32451900  0.31524600  0.57365800  1
  C  73  1  0.34092800  0.31222700  0.59060400  1
  C  74  1  0.36001000  0.32665300  0.59483000  1
  C  91  1  0.46352400  0.34225100  0.52914000  1
  C  92  1  0.35960500  0.45109100  0.58605900  1
  C  95  1  0.40771900  0.36016000  0.67758400  1
  C  97  1  0.30550900  0.30100900  0.56898900  1
  C  99  1  0.11651000  0.85870800  0.81389600  1
  C  100  1  0.09747300  0.85715200  0.82898200  1
  C  101  1  0.10244300  0.85828600  0.85070200  1
  C  102  1  0.12675600  0.86039000  0.85861300  1
  C  103  1  0.14552300  0.86267200  0.84313800  1
  C  104  1  0.14069800  0.86169400  0.82146900  1
  C  105  1  0.13355100  0.86184700  0.88204400  1
  C  106  1  0.14065300  0.88523900  0.88316200  1
  C  107  1  0.16513400  0.89286000  0.88481800  1
  C  108  1  0.17055500  0.91450900  0.88524900  1
  C  109  1  0.15183000  0.92988700  0.88359500  1
  C  110  1  0.12743500  0.92254900  0.88115300  1
  C  111  1  0.12216000  0.90092000  0.88071500  1
  C  112  1  0.11309300  0.85689400  0.89815400  1
  C  113  1  0.15387800  0.84574400  0.88740000  1
  C  114  1  0.16823100  0.84747500  0.90594700  1
  C  115  1  0.18764200  0.83345200  0.91062600  1
  C  116  1  0.19340000  0.81622300  0.89742000  1
  C  117  1  0.17787000  0.81323900  0.87987300  1
  C  118  1  0.15851500  0.82731500  0.87532500  1
  C  119  1  0.09868000  0.83833200  0.89685700  1
  C  120  1  0.07964600  0.83374600  0.91130300  1
  C  121  1  0.07429000  0.84716500  0.92844700  1
  C  122  1  0.08969200  0.86487400  0.93085800  1
  C  123  1  0.10871500  0.86926400  0.91643000  1
  C  140  1  0.21324700  0.80280400  0.90217900  1
  C  141  1  0.11142700  0.85674800  0.79248200  1
  C  144  1  0.15776600  0.95128200  0.88416700  1
  C  146  1  0.05539600  0.84232500  0.94276300  1
  C  148  1  0.61651400  0.65898900  0.15639500  1
  C  149  1  0.59747900  0.66055900  0.14130800  1
  C  150  1  0.60245000  0.65941600  0.11958800  1
  C  151  1  0.62676000  0.65728100  0.11168000  1
  C  152  1  0.64552700  0.65500100  0.12715500  1
  C  153  1  0.64070100  0.65598800  0.14882300  1
  C  154  1  0.63355300  0.65583100  0.08824800  1
  C  155  1  0.64065300  0.63243800  0.08713500  1
  C  156  1  0.66512900  0.62481700  0.08543700  1
  C  157  1  0.67055100  0.60316800  0.08501000  1
  C  158  1  0.65182700  0.58779000  0.08667800  1
  C  159  1  0.62743400  0.59512900  0.08913200  1
  C  160  1  0.62215900  0.61675700  0.08957700  1
  C  161  1  0.61310000  0.66079200  0.07213600  1
  C  162  1  0.65388400  0.67193300  0.08289700  1
  C  163  1  0.66822700  0.67021100  0.06434300  1
  C  164  1  0.68763900  0.68423400  0.05966600  1
  C  165  1  0.69340300  0.70145700  0.07287700  1
  C  166  1  0.67788300  0.70443400  0.09043100  1
  C  167  1  0.65852600  0.69035700  0.09497800  1
  C  168  1  0.59869000  0.67935500  0.07343100  1
  C  169  1  0.57964900  0.68393600  0.05898900  1
  C  170  1  0.57428600  0.67051100  0.04185100  1
  C  171  1  0.58968100  0.65279600  0.03944500  1
  C  172  1  0.60870600  0.64840900  0.05387200  1
  C  189  1  0.71324500  0.71488100  0.06811400  1
  C  190  1  0.61143300  0.66095500  0.17780900  1
  C  193  1  0.65776400  0.56639600  0.08610600  1
  C  195  1  0.55539000  0.67535100  0.02753700  1
  C  197  1  0.65190900  0.42984600  0.38338900  1
  C  198  1  0.67072600  0.41446900  0.38392700  1
  C  199  1  0.66527800  0.39282400  0.38365100  1
  C  200  1  0.64072000  0.38520800  0.38331100  1
  C  201  1  0.62208900  0.40089000  0.38190400  1
  C  202  1  0.62738400  0.42251500  0.38220800  1
  C  203  1  0.63366500  0.36181300  0.38229000  1
  C  204  1  0.62667200  0.36046100  0.35891200  1
  C  205  1  0.60213300  0.36005800  0.35125800  1
  C  206  1  0.59674700  0.35971500  0.32959700  1
  C  207  1  0.61560300  0.36021800  0.31425300  1
  C  208  1  0.64011200  0.36136200  0.32162500  1
  C  209  1  0.64534800  0.36173000  0.34325600  1
  C  210  1  0.65396900  0.34572500  0.38760800  1
  C  211  1  0.61337700  0.35677900  0.39848500  1
  C  212  1  0.59802600  0.33883300  0.39658600  1
  C  213  1  0.57892400  0.33442400  0.41101100  1
  C  214  1  0.57447900  0.34736500  0.42870000  1
  C  215  1  0.59088800  0.36431300  0.43171700  1
  C  216  1  0.60997700  0.36853400  0.41729600  1
  C  217  1  0.66928100  0.34801600  0.40552100  1
  C  218  1  0.68876600  0.33400100  0.40995800  1
  C  219  1  0.69357800  0.31622300  0.39721600  1
  C  220  1  0.67703500  0.31268800  0.38045400  1
  C  221  1  0.65762900  0.32678800  0.37611200  1
  C  238  1  0.55547100  0.34269800  0.44293900  1
  C  239  1  0.65785600  0.45123700  0.38384600  1
  C  242  1  0.60974200  0.35972900  0.29284700  1
  C  244  1  0.71349500  0.30281100  0.40174800  1
  C  246  1  0.15189600  0.08782900  0.58689900  1
  C  247  1  0.17072100  0.10319800  0.58640500  1
  C  248  1  0.16528300  0.12484600  0.58668100  1
  C  249  1  0.14072800  0.13246900  0.58698200  1
  C  250  1  0.12208500  0.11679300  0.58836500  1
  C  251  1  0.12737100  0.09516600  0.58805200  1
  C  252  1  0.13367900  0.15586400  0.58800200  1
  C  253  1  0.12668400  0.15721700  0.61137800  1
  C  254  1  0.10214500  0.15759000  0.61903200  1
  C  255  1  0.09675600  0.15792700  0.64069100  1
  C  256  1  0.11561400  0.15745200  0.65603600  1
  C  257  1  0.14012500  0.15633900  0.64866500  1
  C  258  1  0.14536300  0.15597200  0.62703500  1
  C  259  1  0.15398500  0.17194900  0.58268200  1
  C  260  1  0.11339600  0.16090400  0.57180300  1
  C  261  1  0.09802500  0.17883600  0.57371200  1
  C  262  1  0.07891700  0.18323500  0.55928900  1
  C  263  1  0.07450500  0.17031100  0.54158300  1
  C  264  1  0.09094000  0.15338600  0.53855000  1
  C  265  1  0.11002500  0.14916600  0.55297600  1
  C  266  1  0.16933300  0.16963400  0.56479600  1
  C  267  1  0.18880900  0.18365500  0.56035400  1
  C  268  1  0.19359400  0.20145000  0.57307900  1
  C  269  1  0.17702700  0.20500100  0.58982100  1
  C  270  1  0.15761800  0.19090300  0.59415600  1
  C  287  1  0.05549100  0.17497400  0.52734700  1
  C  288  1  0.15783200  0.06643700  0.58641900  1
  C  291  1  0.10974900  0.15793500  0.67744200  1
  C  293  1  0.21352000  0.21485700  0.56855700  1
  C  295  1  0.40090900  0.65871300  0.81374600  1
  C  296  1  0.41992600  0.66032600  0.82884200  1
  C  297  1  0.41493500  0.65921500  0.85055500  1
  C  298  1  0.39061800  0.65711000  0.85845800  1
  C  299  1  0.37188600  0.65466200  0.84297600  1
  C  300  1  0.37673200  0.65561600  0.82130600  1
  C  301  1  0.38376800  0.65599100  0.88190800  1
  C  302  1  0.37671200  0.63261800  0.88335400  1
  C  303  1  0.35224300  0.62499600  0.88510900  1
  C  304  1  0.34684700  0.60334100  0.88561900  1
  C  305  1  0.36558300  0.58796700  0.88397400  1
  C  306  1  0.38997700  0.59531200  0.88155400  1
  C  307  1  0.39523000  0.61693900  0.88104700  1
  C  308  1  0.40423500  0.66122100  0.89792100  1
  C  309  1  0.36345300  0.67220300  0.88697900  1
  C  310  1  0.34909200  0.67089700  0.90556900  1
  C  311  1  0.33002600  0.68531000  0.91016100  1
  C  312  1  0.32459300  0.70242200  0.89672300  1
  C  313  1  0.33998600  0.70487300  0.87901600  1
  C  314  1  0.35903400  0.69047500  0.87461400  1
  C  315  1  0.41859600  0.67977100  0.89623900  1
  C  316  1  0.43799600  0.68442300  0.91028100  1
  C  317  1  0.44372100  0.67120100  0.92750500  1
  C  318  1  0.42821000  0.65363000  0.93042300  1
  C  319  1  0.40888200  0.64909600  0.91631400  1
  C  336  1  0.30564400  0.71668600  0.90155700  1
  C  337  1  0.40601300  0.66076300  0.79234700  1
  C  340  1  0.35967900  0.56656700  0.88454500  1
  C  342  1  0.46349800  0.67597700  0.94099400  1
  C  344  1  0.90091600  0.85896900  0.15654700  1
  C  345  1  0.91993100  0.85735200  0.14145000  1
  C  346  1  0.91493800  0.85846000  0.11973700  1
  C  347  1  0.89062100  0.86057200  0.11183600  1
  C  348  1  0.87189100  0.86301800  0.12732000  1
  C  349  1  0.87674000  0.86207200  0.14898900  1
  C  350  1  0.88376900  0.86169100  0.08838600  1
  C  351  1  0.87670500  0.88506400  0.08693800  1
  C  352  1  0.85223900  0.89268600  0.08518700  1
  C  353  1  0.84684100  0.91434100  0.08468300  1
  C  354  1  0.86557800  0.92971500  0.08632600  1
  C  355  1  0.88997100  0.92237000  0.08874700  1
  C  356  1  0.89522600  0.90074100  0.08925200  1
  C  357  1  0.90423100  0.85646200  0.07237000  1
  C  358  1  0.86345100  0.84548000  0.08331600  1
  C  359  1  0.84908800  0.84678700  0.06472700  1
  C  360  1  0.83003100  0.83236700  0.06012900  1
  C  361  1  0.82459800  0.81525400  0.07356600  1
  C  362  1  0.83997400  0.81281700  0.09128600  1
  C  363  1  0.85902800  0.82721200  0.09568500  1
  C  364  1  0.91858600  0.83791000  0.07405300  1
  C  365  1  0.93799000  0.83325600  0.06001300  1
  C  366  1  0.94372600  0.84648400  0.04279600  1
  C  367  1  0.92822100  0.86405800  0.03987600  1
  C  368  1  0.90888900  0.86859200  0.05398200  1
  C  385  1  0.80564700  0.80099300  0.06873600  1
  C  386  1  0.90602300  0.85692200  0.17794700  1
  C  389  1  0.85967400  0.95111500  0.08575600  1
  C  391  1  0.96350100  0.84170200  0.02930400  1
  C  393  1  0.15113300  0.93009900  0.58485400  1
  C  394  1  0.17018300  0.91502600  0.58328200  1
  C  395  1  0.16523800  0.89330600  0.58447000  1
  C  396  1  0.14093700  0.88538200  0.58662900  1
  C  397  1  0.12215800  0.90084700  0.58891600  1
  C  398  1  0.12695900  0.92251600  0.58789300  1
  C  399  1  0.13415300  0.86194900  0.58808800  1
  C  400  1  0.12700700  0.86083200  0.61147100  1
  C  401  1  0.10251400  0.85913200  0.61905400  1
  C  402  1  0.09704800  0.85871000  0.64069400  1
  C  403  1  0.11573700  0.86041000  0.65609900  1
  C  404  1  0.14014400  0.86287500  0.64879700  1
  C  405  1  0.14546500  0.86330700  0.62717500  1
  C  406  1  0.15462400  0.84584400  0.58314900  1
  C  407  1  0.11385000  0.85657200  0.57196900  1
  C  408  1  0.09954200  0.83799900  0.57368400  1
  C  409  1  0.08012400  0.83331400  0.55967200  1
  C  410  1  0.07432200  0.84653900  0.54247000  1
  C  411  1  0.08980800  0.86411800  0.53949900  1
  C  412  1  0.10916400  0.86867700  0.55356900  1
  C  413  1  0.16901900  0.84713000  0.56457600  1
  C  414  1  0.18805600  0.83268700  0.55999400  1
  C  415  1  0.19345000  0.81557200  0.57343900  1
  C  416  1  0.17808200  0.81318200  0.59117300  1
  C  417  1  0.15905200  0.82760500  0.59555800  1
  C  434  1  0.05446900  0.84177700  0.52906300  1
  C  435  1  0.15617400  0.95151200  0.58284500  1
  C  438  1  0.10974700  0.85988300  0.67748200  1
  C  440  1  0.21233100  0.80124800  0.56859000  1
  C  442  1  0.65114700  0.58758600  0.38539500  1
  C  443  1  0.67019400  0.60266200  0.38695100  1
  C  444  1  0.66524000  0.62438300  0.38578800  1
  C  445  1  0.64093500  0.63230300  0.38366100  1
  C  446  1  0.62215900  0.61683500  0.38137600  1
  C  447  1  0.62696600  0.59516600  0.38238200  1
  C  448  1  0.63414800  0.65573700  0.38220200  1
  C  449  1  0.62700500  0.65686000  0.35882100  1
  C  450  1  0.60250900  0.65852800  0.35123400  1
  C  451  1  0.59704300  0.65894700  0.32959500  1
  C  452  1  0.61573600  0.65726900  0.31419100  1
  C  453  1  0.64014400  0.65482100  0.32149500  1
  C  454  1  0.64546400  0.65439200  0.34311500  1
  C  455  1  0.65462200  0.67183500  0.38714100  1
  C  456  1  0.61384000  0.66110700  0.39831600  1
  C  457  1  0.59952700  0.67967800  0.39660000  1
  C  458  1  0.58011500  0.68436500  0.41061800  1
  C  459  1  0.57432700  0.67114600  0.42782800  1
  C  460  1  0.58982500  0.65357700  0.43080300  1
  C  461  1  0.60917700  0.64901800  0.41673000  1
  C  462  1  0.66901600  0.67054900  0.40571500  1
  C  463  1  0.68805300  0.68499000  0.41030000  1
  C  464  1  0.69343300  0.70211700  0.39686500  1
  C  465  1  0.67804700  0.70452200  0.37914600  1
  C  466  1  0.65902300  0.69009600  0.37475600  1
  C  483  1  0.55447600  0.67590800  0.44123600  1
  C  484  1  0.65620100  0.56617100  0.38738400  1
  C  487  1  0.60974500  0.65780100  0.29280600  1
  C  489  1  0.71231700  0.71643800  0.40171300  1
  C  491  1  0.90086100  0.15912900  0.15635900  1
  C  492  1  0.91987600  0.16114700  0.14130900  1
  C  493  1  0.91500100  0.15991600  0.11958100  1
  C  494  1  0.89078800  0.15723100  0.11162600  1
  C  495  1  0.87205700  0.15450400  0.12706100  1
  C  496  1  0.87679700  0.15557000  0.14874000  1
  C  497  1  0.88406200  0.15571100  0.08818200  1
  C  498  1  0.87726300  0.13224900  0.08699800  1
  C  499  1  0.85303200  0.12431100  0.08435800  1
  C  500  1  0.84811500  0.10259100  0.08318600  1
  C  501  1  0.86710000  0.08752100  0.08525200  1
  C  502  1  0.89116200  0.09511700  0.08887800  1
  C  503  1  0.89594300  0.11679800  0.08988800  1
  C  504  1  0.90453300  0.16075800  0.07208900  1
  C  505  1  0.86359800  0.17171300  0.08284100  1
  C  506  1  0.84959400  0.17018400  0.06408000  1
  C  507  1  0.83021800  0.18421500  0.05930000  1
  C  508  1  0.82413600  0.20126700  0.07263000  1
  C  509  1  0.83928400  0.20404600  0.09044800  1
  C  510  1  0.85860100  0.18996500  0.09509000  1
  C  511  1  0.91858100  0.17953500  0.07321300  1
  C  512  1  0.93760900  0.18422100  0.05878700  1
  C  513  1  0.94334000  0.17067700  0.04182900  1
  C  514  1  0.92831400  0.15271600  0.03958300  1
  C  515  1  0.90929400  0.14823400  0.05398000  1
  C  532  1  0.80437300  0.21474100  0.06774900  1
  C  533  1  0.90583900  0.16119600  0.17778000  1
  C  536  1  0.86207000  0.06611400  0.08312100  1
  C  538  1  0.96222400  0.17559500  0.02752300  1
  C  540  1  0.40084100  0.35854000  0.81392400  1
  C  541  1  0.41985800  0.35651200  0.82897200  1
  C  542  1  0.41498900  0.35774900  0.85070100  1
  C  543  1  0.39078000  0.36045800  0.85865900  1
  C  544  1  0.37204400  0.36318100  0.84322600  1
  C  545  1  0.37678000  0.36210500  0.82154600  1
  C  546  1  0.38405700  0.36197200  0.88210300  1
  C  547  1  0.37726200  0.38543500  0.88328500  1
  C  548  1  0.35303600  0.39337300  0.88595300  1
  C  549  1  0.34812100  0.41509300  0.88712400  1
  C  550  1  0.36710600  0.43016100  0.88505300  1
  C  551  1  0.39116800  0.42256400  0.88142700  1
  C  552  1  0.39594600  0.40088400  0.88040300  1
  C  553  1  0.40452600  0.35691700  0.89819800  1
  C  554  1  0.36359300  0.34596900  0.88744100  1
  C  555  1  0.34959300  0.34749400  0.90620500  1
  C  556  1  0.33021700  0.33346300  0.91098300  1
  C  557  1  0.32413300  0.31641100  0.89765100  1
  C  558  1  0.33927700  0.31363800  0.87983000  1
  C  559  1  0.35859500  0.32771900  0.87519100  1
  C  560  1  0.41857600  0.33814100  0.89707000  1
  C  561  1  0.43761300  0.33346100  0.91149100  1
  C  562  1  0.44335100  0.34701100  0.92844400  1
  C  563  1  0.42832200  0.36496900  0.93069300  1
  C  564  1  0.40929800  0.36944800  0.91629800  1
  C  581  1  0.30437600  0.30293500  0.90253500  1
  C  582  1  0.40581600  0.35647400  0.79250300  1
  C  585  1  0.36207800  0.45156800  0.88718400  1
  C  587  1  0.46223200  0.34208900  0.94275400  1
  C  589  1  0.36681200  0.58743300  0.58515100  1
  C  590  1  0.34778400  0.60251600  0.58353900  1
  C  591  1  0.35275900  0.62423200  0.58468100  1
  C  592  1  0.37706900  0.63214500  0.58682000  1
  C  593  1  0.39581000  0.61667100  0.58925700  1
  C  594  1  0.39098000  0.59500000  0.58827600  1
  C  595  1  0.38390600  0.65559900  0.58794300  1
  C  596  1  0.39099100  0.65704600  0.61130700  1
  C  597  1  0.41546900  0.65881500  0.61890500  1
  C  598  1  0.42089800  0.65931400  0.64055300  1
  C  599  1  0.40218500  0.65766400  0.65594500  1
  C  600  1  0.37778100  0.65523800  0.64862500  1
  C  601  1  0.37249500  0.65473100  0.62700500  1
  C  602  1  0.36342900  0.67160400  0.58272300  1
  C  603  1  0.40420600  0.66068300  0.57172600  1
  C  604  1  0.41855000  0.67928100  0.57303100  1
  C  605  1  0.43760600  0.68388900  0.55861500  1
  C  606  1  0.44305100  0.67045000  0.54150800  1
  C  607  1  0.42768600  0.65272400  0.53906500  1
  C  608  1  0.40863700  0.64831300  0.55345800  1
  C  609  1  0.34907800  0.66992700  0.56416900  1
  C  610  1  0.32968300  0.68397600  0.55951300  1
  C  611  1  0.32394900  0.70118900  0.57274400  1
  C  612  1  0.33945000  0.70410100  0.59032200  1
  C  613  1  0.35877500  0.68998900  0.59485800  1
  C  630  1  0.46200800  0.67528000  0.52725600  1
  C  631  1  0.36173600  0.56603300  0.58307600  1
  C  634  1  0.40812800  0.65821500  0.67733800  1
  C  636  1  0.30418100  0.71468700  0.56796300  1
  C  638  1  0.86679100  0.93023800  0.38512500  1
  C  639  1  0.84776700  0.91515200  0.38673700  1
  C  640  1  0.85274500  0.89343700  0.38560300  1
  C  641  1  0.87705700  0.88552800  0.38347400  1
  C  642  1  0.89579600  0.90100500  0.38103500  1
  C  643  1  0.89096300  0.92267400  0.38200900  1
  C  644  1  0.88390000  0.86207600  0.38235100  1
  C  645  1  0.89098900  0.86062800  0.35898600  1
  C  646  1  0.91546700  0.85885900  0.35139200  1
  C  647  1  0.92089900  0.85836300  0.32974400  1
  C  648  1  0.90218800  0.86001200  0.31435000  1
  C  649  1  0.87778400  0.86243600  0.32166700  1
  C  650  1  0.87249500  0.86294300  0.34328800  1
  C  651  1  0.86342500  0.84607000  0.38757000  1
  C  652  1  0.90419900  0.85699200  0.39856900  1
  C  653  1  0.91853800  0.83839000  0.39726900  1
  C  654  1  0.93760100  0.83378600  0.41168100  1
  C  655  1  0.94304300  0.84722600  0.42878900  1
  C  656  1  0.92768100  0.86495500  0.43122900  1
  C  657  1  0.90863100  0.86936200  0.41683600  1
  C  658  1  0.84907000  0.84774800  0.40612400  1
  C  659  1  0.82968300  0.83369700  0.41078700  1
  C  660  1  0.82394800  0.81648200  0.39755600  1
  C  661  1  0.83944100  0.81357400  0.37997100  1
  C  662  1  0.85876500  0.82768700  0.37543600  1
  C  679  1  0.96200300  0.84239800  0.44303800  1
  C  680  1  0.86171200  0.95163800  0.38720500  1
  C  683  1  0.90813200  0.85946600  0.29295800  1
  C  685  1  0.80417500  0.80299100  0.40233500  1
  C  687  1  0.61710200  0.35878300  0.15651200  1
  C  688  1  0.59810500  0.35671100  0.14145600  1
  C  689  1  0.60299800  0.35792700  0.11973400  1
  C  690  1  0.62721500  0.36062100  0.11178500  1
  C  691  1  0.64590600  0.36351200  0.12722600  1
  C  692  1  0.64115000  0.36245200  0.14890700  1
  C  693  1  0.63400400  0.36181900  0.08832100  1
  C  694  1  0.64073300  0.38526600  0.08682000  1
  C  695  1  0.66494300  0.39321600  0.08411700  1
  C  696  1  0.66982400  0.41494400  0.08289400  1
  C  697  1  0.65081400  0.42999800  0.08493200  1
  C  698  1  0.62674900  0.42238200  0.08849300  1
  C  699  1  0.62200400  0.40070200  0.08956100  1
  C  700  1  0.61354000  0.35648500  0.07231600  1
  C  701  1  0.65447300  0.34572500  0.08326500  1
  C  702  1  0.66851700  0.34685700  0.06448600  1
  C  703  1  0.68756600  0.33244800  0.05980800  1
  C  704  1  0.69332100  0.31550000  0.07335900  1
  C  705  1  0.67827700  0.31323200  0.09130600  1
  C  706  1  0.65924700  0.32761900  0.09578900  1
  C  707  1  0.59954600  0.33771800  0.07382900  1
  C  708  1  0.58017500  0.33293900  0.05979100  1
  C  709  1  0.57408500  0.34628100  0.04275000  1
  C  710  1  0.58921200  0.36411600  0.03999700  1
  C  711  1  0.60852300  0.36875800  0.05408400  1
  C  728  1  0.71220700  0.30119800  0.06843700  1
  C  729  1  0.61211000  0.35662000  0.17792000  1
  C  732  1  0.65580400  0.45141900  0.08286800  1
  C  734  1  0.55433800  0.34139400  0.02926300  1
  C  736  1  0.11709900  0.15888900  0.81377800  1
  C  737  1  0.09810400  0.16096700  0.82883400  1
  C  738  1  0.10300000  0.15975300  0.85055700  1
  C  739  1  0.12721600  0.15705500  0.85850500  1
  C  740  1  0.14590600  0.15416600  0.84306100  1
  C  741  1  0.14114600  0.15521300  0.82138200  1
  C  742  1  0.13400700  0.15585700  0.88196700  1
  C  743  1  0.14073600  0.13241100  0.88347100  1
  C  744  1  0.16494800  0.12445900  0.88616900  1
  C  745  1  0.16982800  0.10273100  0.88738700  1
  C  746  1  0.15081600  0.08767800  0.88535300  1
  C  747  1  0.12675200  0.09529500  0.88179300  1
  C  748  1  0.12200900  0.11697500  0.88072600  1
  C  749  1  0.11354800  0.16119300  0.89797500  1
  C  750  1  0.15447800  0.17195000  0.88702200  1
  C  751  1  0.16852500  0.17081600  0.90579800  1
  C  752  1  0.18757000  0.18523000  0.91048200  1
  C  753  1  0.19331800  0.20218100  0.89693200  1
  C  754  1  0.17828200  0.20444400  0.87898100  1
  C  755  1  0.15925400  0.19005600  0.87449700  1
  C  756  1  0.09956300  0.17996600  0.89646500  1
  C  757  1  0.08018000  0.18473700  0.91049200  1
  C  758  1  0.07408100  0.17139300  0.92753000  1
  C  759  1  0.08920900  0.15356000  0.93028800  1
  C  760  1  0.10852200  0.14891700  0.91620400  1
  C  777  1  0.21221100  0.21647900  0.90184900  1
  C  778  1  0.11210600  0.16105000  0.79237000  1
  C  781  1  0.15580500  0.06625700  0.88741700  1
  C  783  1  0.05433300  0.17628400  0.94101400  1
  C  785  1  0.73944200  0.27370000  0.39109500  1
  C  787  1  0.76797900  0.25307700  0.37040100  1
  C  788  1  0.77754900  0.24342700  0.38871000  1
  C  790  1  0.74898000  0.26396500  0.40944200  1
  C  791  1  0.73974300  0.26770000  0.42934200  1
  C  792  1  0.77650600  0.24834400  0.35042700  1
  C  801  1  0.23945300  0.24397300  0.57920300  1
  C  803  1  0.26799400  0.26459600  0.59989700  1
  C  804  1  0.27756600  0.27424300  0.58158600  1
  C  806  1  0.24899600  0.25370300  0.56085500  1
  C  807  1  0.23975700  0.24996700  0.54095700  1
  C  808  1  0.27651900  0.26933200  0.61986900  1
  C  817  1  0.98963000  0.85235200  0.00021100  1
  C  819  1  0.01793200  0.87308000  0.97937500  1
  C  820  1  0.02744200  0.85478400  0.96965600  1
  C  822  1  0.99912300  0.83401800  0.99041300  1
  C  823  1  0.98995900  0.81411100  0.99421500  1
  C  824  1  0.02637700  0.89306600  0.97459000  1
  C  833  1  0.48962100  0.66532700  0.97009300  1
  C  835  1  0.51792000  0.64459800  0.99092900  1
  C  836  1  0.52743500  0.66289300  0.00064600  1
  C  838  1  0.49911800  0.68366000  0.97988700  1
  C  839  1  0.48995800  0.70356800  0.97608200  1
  C  840  1  0.52636000  0.62461200  0.99571700  1
  C  849  1  0.27808000  0.74379500  0.57861200  1
  C  851  1  0.24980200  0.76464500  0.59934600  1
  C  852  1  0.24028900  0.77436100  0.58104900  1
  C  854  1  0.26858500  0.75358900  0.56027900  1
  C  855  1  0.27773900  0.74978000  0.54037000  1
  C  856  1  0.24137100  0.76943900  0.61933400  1
  C  865  1  0.77807200  0.77388400  0.39168800  1
  C  867  1  0.74979400  0.75303400  0.37095600  1
  C  868  1  0.74027500  0.74332200  0.38925200  1
  C  870  1  0.76857400  0.76409400  0.41002100  1
  C  871  1  0.77772400  0.76790600  0.42993200  1
  C  872  1  0.74136500  0.74823600  0.35096800  1
  C  881  1  0.02805100  0.16563900  0.97005600  1
  C  883  1  0.99982800  0.14489300  0.99095600  1
  C  884  1  0.99027800  0.16318600  0.00065200  1
  C  886  1  0.01851500  0.18396900  0.97983000  1
  C  887  1  0.02761500  0.20388800  0.97598300  1
  C  888  1  0.99144300  0.12489800  0.99577700  1
  C  897  1  0.52805800  0.35204100  0.00022100  1
  C  899  1  0.49984100  0.37279000  0.97931800  1
  C  900  1  0.49028800  0.35449700  0.96962400  1
  C  902  1  0.51851800  0.33371100  0.99045000  1
  C  903  1  0.52761300  0.31379200  0.99429900  1
  C  904  1  0.49146200  0.39278600  0.97449300  1
  C  913  1  0.23951800  0.77381200  0.89151200  1
  C  915  1  0.26788900  0.75305900  0.87077100  1
  C  916  1  0.27749800  0.74341200  0.88906900  1
  C  918  1  0.24910800  0.76408500  0.90984500  1
  C  919  1  0.23997000  0.76787700  0.92976400  1
  C  920  1  0.27631300  0.74827100  0.85078000  1
  C  929  1  0.73951900  0.74386800  0.07878300  1
  C  931  1  0.76789800  0.76461800  0.09952300  1
  C  932  1  0.77750300  0.77426700  0.08122500  1
  C  934  1  0.74910600  0.75359900  0.06045000  1
  C  935  1  0.73996200  0.74980900  0.04053300  1
  C  936  1  0.77632900  0.76940000  0.11951300  1
  C  945  1  0.48945400  0.35290200  0.50001800  1
  C  947  1  0.51799900  0.37359500  0.47939400  1
  C  948  1  0.52755000  0.35528600  0.46973000  1
  C  950  1  0.49897800  0.33455600  0.49026900  1
  C  951  1  0.48972800  0.31465900  0.49399600  1
  C  952  1  0.52653500  0.39356700  0.47466900  1
  C  961  1  0.98949400  0.16477200  0.47025100  1
  C  963  1  0.01804900  0.14408000  0.49086500  1
  C  964  1  0.02759000  0.16238800  0.50054200  1
  C  966  1  0.99900700  0.18311700  0.48001100  1
  C  967  1  0.98974400  0.20301100  0.47629600  1
  C  968  1  0.02659600  0.12410900  0.49558100  1
  C  977  1  0.77808300  0.24377500  0.07839400  1
  C  979  1  0.74986200  0.26467100  0.09914400  1
  C  980  1  0.74029000  0.27435100  0.08085000  1
  C  982  1  0.76852600  0.25353200  0.06006400  1
  C  983  1  0.77761400  0.24968000  0.04014400  1
  C  984  1  0.74148800  0.26950200  0.11914100  1
  C  993  1  0.27808400  0.27390300  0.89188700  1
  C  995  1  0.24985200  0.25301300  0.87114100  1
  C  996  1  0.24028900  0.24332800  0.88943400  1
  C  998  1  0.26853400  0.26414100  0.91021900  1
  C  999  1  0.27762900  0.26798800  0.93013700  1
  C  1000  1  0.24147000  0.24818900  0.85114500  1
  C  1009  1  0.52818700  0.66522900  0.47020200  1
  C  1011  1  0.49979000  0.64448500  0.49092200  1
  C  1012  1  0.49017900  0.66278200  0.50056700  1
  C  1014  1  0.51859900  0.68356200  0.47993100  1
  C  1015  1  0.52774900  0.70347900  0.47615900  1
  C  1016  1  0.49135100  0.62449200  0.49569300  1
  C  1025  1  0.02817900  0.85245300  0.50009600  1
  C  1027  1  0.99977800  0.87319600  0.47937800  1
  C  1028  1  0.99017100  0.85489900  0.46973000  1
  C  1030  1  0.01859500  0.83412000  0.49036600  1
  C  1031  1  0.02775000  0.81420500  0.49413600  1
  C  1032  1  0.99133600  0.89318600  0.47460800  1
  C  1041  1  0.89384300  0.15543300  0.25706400  1
  C  1043  1  0.87850400  0.13955700  0.22526600  1
  C  1044  1  0.89330200  0.15314800  0.21299700  1
  C  1046  1  0.90838100  0.16921300  0.24474400  1
  C  1047  1  0.92237000  0.18518900  0.25325100  1
  C  1048  1  0.86322300  0.12444100  0.21652200  1
  C  1057  1  0.39380200  0.36227400  0.71322400  1
  C  1059  1  0.37850400  0.37816100  0.74502900  1
  C  1060  1  0.39328100  0.36454500  0.75729100  1
  C  1062  1  0.40831300  0.34846800  0.72553600  1
  C  1063  1  0.42227100  0.33247800  0.71701600  1
  C  1064  1  0.36325800  0.39329700  0.75378100  1
  C  1073  1  0.14391700  0.98696100  0.88179000  1
  C  1075  1  0.12850600  0.01871300  0.86586100  1
  C  1076  1  0.14330800  0.03102700  0.87940600  1
  C  1078  1  0.15848400  0.99932300  0.89552100  1
  C  1079  1  0.17251900  0.99088900  0.91152300  1
  C  1080  1  0.11318200  0.02740600  0.85074800  1
  C  1089  1  0.64391500  0.53071600  0.08848200  1
  C  1091  1  0.62849000  0.49896500  0.10440500  1
  C  1092  1  0.64330400  0.48665000  0.09087100  1
  C  1094  1  0.65849400  0.51835200  0.07476100  1
  C  1095  1  0.67254200  0.52678400  0.05876700  1
  C  1096  1  0.61315200  0.49027500  0.11950900  1
  C  1105  1  0.62372900  0.36223200  0.25723800  1
  C  1107  1  0.63887700  0.37843800  0.22553800  1
  C  1108  1  0.62443400  0.36465400  0.21317900  1
  C  1110  1  0.60957600  0.34825300  0.24482600  1
  C  1111  1  0.59588900  0.33204800  0.25324300  1
  C  1112  1  0.65386200  0.39382000  0.21688800  1
  C  1121  1  0.12373700  0.15544100  0.71305200  1
  C  1123  1  0.13888300  0.13923800  0.74475400  1
  C  1124  1  0.12443400  0.15302100  0.75711100  1
  C  1126  1  0.10957900  0.16941900  0.72546200  1
  C  1127  1  0.09588800  0.18562000  0.71704200  1
  C  1128  1  0.15387100  0.12386000  0.75340500  1
  C  1137  1  0.37361800  0.53090700  0.88188500  1
  C  1139  1  0.38916600  0.49927300  0.86581200  1
  C  1140  1  0.37445000  0.48685100  0.87932700  1
  C  1142  1  0.35913900  0.51843900  0.89558800  1
  C  1143  1  0.34509000  0.52675100  0.91164300  1
  C  1144  1  0.40450400  0.49069200  0.85064700  1
  C  1153  1  0.87361400  0.98677600  0.08841100  1
  C  1155  1  0.88917100  0.01840900  0.10447800  1
  C  1156  1  0.87444700  0.03083000  0.09097100  1
  C  1158  1  0.85912600  0.99924500  0.07471600  1
  C  1159  1  0.84506700  0.99093200  0.05866500  1
  C  1160  1  0.90451800  0.02698900  0.11963700  1
  C  1169  1  0.12357100  0.86207900  0.71318700  1
  C  1171  1  0.13927700  0.87778300  0.74494500  1
  C  1172  1  0.12416500  0.86448000  0.75724700  1
  C  1174  1  0.10869500  0.84857300  0.72553400  1
  C  1175  1  0.09434300  0.83276800  0.71709800  1
  C  1176  1  0.15491800  0.89265500  0.75364300  1
  C  1185  1  0.62356900  0.65560000  0.25710500  1
  C  1187  1  0.63925700  0.63988800  0.22534300  1
  C  1188  1  0.62416000  0.65320400  0.21304300  1
  C  1190  1  0.60870700  0.66911800  0.24475700  1
  C  1191  1  0.59437600  0.68493400  0.25319800  1
  C  1192  1  0.65487800  0.62500400  0.21664200  1
  C  1201  1  0.39422500  0.65565800  0.71301200  1
  C  1203  1  0.37856700  0.63970300  0.74466500  1
  C  1204  1  0.39345200  0.65309900  0.75706700  1
  C  1206  1  0.40886900  0.66925000  0.72546200  1
  C  1207  1  0.42305700  0.68520800  0.71712900  1
  C  1208  1  0.36307800  0.62465700  0.75326300  1
  C  1217  1  0.89423200  0.86202100  0.25728200  1
  C  1219  1  0.87857200  0.87797500  0.22563000  1
  C  1220  1  0.89346100  0.86458000  0.21322900  1
  C  1222  1  0.90887600  0.84842900  0.24483200  1
  C  1223  1  0.92306600  0.83247000  0.25316500  1
  C  1224  1  0.86308500  0.89302000  0.21703200  1
  C  1233  1  0.64397700  0.48689300  0.38179300  1
  C  1235  1  0.62857800  0.51870700  0.36599600  1
  C  1236  1  0.64349500  0.53095800  0.37950900  1
  C  1238  1  0.65862100  0.49919600  0.39550500  1
  C  1239  1  0.67269300  0.49066800  0.41141800  1
  C  1240  1  0.61320500  0.52746600  0.35095800  1
  C  1249  1  0.14396200  0.03078700  0.58851800  1
  C  1251  1  0.12872400  0.99896600  0.60441000  1
  C  1252  1  0.14351000  0.98672300  0.59078500  1
  C  1254  1  0.15846000  0.01849100  0.57469100  1
  C  1255  1  0.17237700  0.02703200  0.55869200  1
  C  1256  1  0.11350200  0.99019700  0.61955400  1
  C  1265  1  0.87352900  0.03095900  0.38185000  1
  C  1267  1  0.88887200  0.99926100  0.36577900  1
  C  1268  1  0.87422100  0.98690300  0.37940400  1
  C  1270  1  0.85916600  0.01854700  0.39567700  1
  C  1271  1  0.84528200  0.02696100  0.41176400  1
  C  1272  1  0.90406900  0.99061100  0.35054700  1
  C  1281  1  0.37356800  0.48671600  0.58848100  1
  C  1283  1  0.38883600  0.51842400  0.60458400  1
  C  1284  1  0.37423800  0.53077300  0.59090900  1
  C  1286  1  0.35926800  0.49911900  0.57460100  1
  C  1287  1  0.34545000  0.49069000  0.55848200  1
  C  1288  1  0.40396500  0.52708400  0.61985800  1
  C  1297  1  0.08632310  0.08798900  0.38380100  1
  C  1298  1  0.06749810  0.10335900  0.38438500  1
  C  1299  1  0.07292510  0.12501100  0.38401000  1
  C  1300  1  0.09747410  0.13263000  0.38352200  1
  C  1301  1  0.11611600  0.11694900  0.38217700  1
  C  1302  1  0.11084000  0.09532600  0.38256100  1
  C  1303  1  0.10452100  0.15599700  0.38215500  1
  C  1304  1  0.11156100  0.15701000  0.35875400  1
  C  1305  1  0.13610900  0.15741000  0.35111600  1
  C  1306  1  0.14152700  0.15768900  0.32946500  1
  C  1307  1  0.12269400  0.15709100  0.31410600  1
  C  1308  1  0.09818310  0.15584700  0.32145800  1
  C  1309  1  0.09291610  0.15554000  0.34308900  1
  C  1310  1  0.08425810  0.17221400  0.38720000  1
  C  1311  1  0.12484900  0.16129000  0.39823400  1
  C  1312  1  0.14012800  0.17922600  0.39596900  1
  C  1313  1  0.15960700  0.18367100  0.40998700  1
  C  1314  1  0.16447100  0.17089500  0.42773100  1
  C  1315  1  0.14798700  0.15408200  0.43122500  1
  C  1316  1  0.12857600  0.14974200  0.41713100  1
  C  1317  1  0.06899610  0.17037400  0.40520700  1
  C  1318  1  0.04989410  0.18479900  0.40962100  1
  C  1319  1  0.04536710  0.20243100  0.39662400  1
  C  1320  1  0.06168910  0.20539500  0.37960900  1
  C  1321  1  0.08077510  0.19097200  0.37537800  1
  C  1338  1  0.18438800  0.17542900  0.44114300  1
  C  1339  1  0.08041710  0.06659000  0.38428600  1
  C  1342  1  0.12860900  0.15756500  0.29270800  1
  C  1344  1  0.02636310  0.21667200  0.40130300  1
  C  1346  1  0.58635200  0.42969100  0.58653300  1
  C  1347  1  0.56751700  0.41432800  0.58603900  1
  C  1348  1  0.57293700  0.39267500  0.58638200  1
  C  1349  1  0.59748600  0.38504400  0.58675700  1
  C  1350  1  0.61613900  0.40072100  0.58804200  1
  C  1351  1  0.61087200  0.42234600  0.58767000  1
  C  1352  1  0.60451800  0.36167700  0.58813100  1
  C  1353  1  0.61154100  0.36066000  0.61153200  1
  C  1354  1  0.63608700  0.36038000  0.61917900  1
  C  1355  1  0.64150200  0.36011800  0.64083200  1
  C  1356  1  0.62265900  0.36062800  0.65618500  1
  C  1357  1  0.59814300  0.36177400  0.64882600  1
  C  1358  1  0.59288500  0.36206600  0.62719300  1
  C  1359  1  0.58425000  0.34546900  0.58307900  1
  C  1360  1  0.62484600  0.35637700  0.57206000  1
  C  1361  1  0.64019700  0.33849100  0.57437400  1
  C  1362  1  0.65967200  0.33404900  0.56034900  1
  C  1363  1  0.66445700  0.34677500  0.54255400  1
  C  1364  1  0.64789200  0.36352000  0.53900800  1
  C  1365  1  0.62848200  0.36785300  0.55310600  1
  C  1366  1  0.56891700  0.34735400  0.56512100  1
  C  1367  1  0.54981600  0.33293000  0.56071300  1
  C  1368  1  0.54536900  0.31524600  0.57365800  1
  C  1369  1  0.56177800  0.31222700  0.59060400  1
  C  1370  1  0.58086000  0.32665300  0.59483000  1
  C  1387  1  0.68437400  0.34225100  0.52914000  1
  C  1388  1  0.58045500  0.45109100  0.58605900  1
  C  1391  1  0.62856900  0.36016000  0.67758400  1
  C  1393  1  0.52635900  0.30100900  0.56898900  1
  C  1395  1  0.33736000  0.85870800  0.81389600  1
  C  1396  1  0.31832300  0.85715200  0.82898200  1
  C  1397  1  0.32329300  0.85828600  0.85070200  1
  C  1398  1  0.34760600  0.86039000  0.85861300  1
  C  1399  1  0.36637300  0.86267200  0.84313800  1
  C  1400  1  0.36154800  0.86169400  0.82146900  1
  C  1401  1  0.35440100  0.86184700  0.88204400  1
  C  1402  1  0.36150300  0.88523900  0.88316200  1
  C  1403  1  0.38598400  0.89286000  0.88481800  1
  C  1404  1  0.39140500  0.91450900  0.88524900  1
  C  1405  1  0.37268000  0.92988700  0.88359500  1
  C  1406  1  0.34828500  0.92254900  0.88115300  1
  C  1407  1  0.34301000  0.90092000  0.88071500  1
  C  1408  1  0.33394300  0.85689400  0.89815400  1
  C  1409  1  0.37472800  0.84574400  0.88740000  1
  C  1410  1  0.38908100  0.84747500  0.90594700  1
  C  1411  1  0.40849200  0.83345200  0.91062600  1
  C  1412  1  0.41425000  0.81622300  0.89742000  1
  C  1413  1  0.39872000  0.81323900  0.87987300  1
  C  1414  1  0.37936500  0.82731500  0.87532500  1
  C  1415  1  0.31953000  0.83833200  0.89685700  1
  C  1416  1  0.30049600  0.83374600  0.91130300  1
  C  1417  1  0.29514000  0.84716500  0.92844700  1
  C  1418  1  0.31054200  0.86487400  0.93085800  1
  C  1419  1  0.32956500  0.86926400  0.91643000  1
  C  1436  1  0.43409700  0.80280400  0.90217900  1
  C  1437  1  0.33227700  0.85674800  0.79248200  1
  C  1440  1  0.37861600  0.95128200  0.88416700  1
  C  1442  1  0.27624600  0.84232500  0.94276300  1
  C  1444  1  0.83736400  0.65898900  0.15639500  1
  C  1445  1  0.81832900  0.66055900  0.14130800  1
  C  1446  1  0.82330000  0.65941600  0.11958800  1
  C  1447  1  0.84761000  0.65728100  0.11168000  1
  C  1448  1  0.86637700  0.65500100  0.12715500  1
  C  1449  1  0.86155100  0.65598800  0.14882300  1
  C  1450  1  0.85440300  0.65583100  0.08824800  1
  C  1451  1  0.86150300  0.63243800  0.08713500  1
  C  1452  1  0.88597900  0.62481700  0.08543700  1
  C  1453  1  0.89140100  0.60316800  0.08501000  1
  C  1454  1  0.87267700  0.58779000  0.08667800  1
  C  1455  1  0.84828400  0.59512900  0.08913200  1
  C  1456  1  0.84300900  0.61675700  0.08957700  1
  C  1457  1  0.83395000  0.66079200  0.07213600  1
  C  1458  1  0.87473400  0.67193300  0.08289700  1
  C  1459  1  0.88907700  0.67021100  0.06434300  1
  C  1460  1  0.90848900  0.68423400  0.05966600  1
  C  1461  1  0.91425300  0.70145700  0.07287700  1
  C  1462  1  0.89873300  0.70443400  0.09043100  1
  C  1463  1  0.87937600  0.69035700  0.09497800  1
  C  1464  1  0.81954000  0.67935500  0.07343100  1
  C  1465  1  0.80049900  0.68393600  0.05898900  1
  C  1466  1  0.79513600  0.67051100  0.04185100  1
  C  1467  1  0.81053100  0.65279600  0.03944500  1
  C  1468  1  0.82955600  0.64840900  0.05387200  1
  C  1485  1  0.93409500  0.71488100  0.06811400  1
  C  1486  1  0.83228300  0.66095500  0.17780900  1
  C  1489  1  0.87861400  0.56639600  0.08610600  1
  C  1491  1  0.77624000  0.67535100  0.02753700  1
  C  1493  1  0.87275900  0.42984600  0.38338900  1
  C  1494  1  0.89157600  0.41446900  0.38392700  1
  C  1495  1  0.88612800  0.39282400  0.38365100  1
  C  1496  1  0.86157000  0.38520800  0.38331100  1
  C  1497  1  0.84293900  0.40089000  0.38190400  1
  C  1498  1  0.84823400  0.42251500  0.38220800  1
  C  1499  1  0.85451500  0.36181300  0.38229000  1
  C  1500  1  0.84752200  0.36046100  0.35891200  1
  C  1501  1  0.82298300  0.36005800  0.35125800  1
  C  1502  1  0.81759700  0.35971500  0.32959700  1
  C  1503  1  0.83645300  0.36021800  0.31425300  1
  C  1504  1  0.86096200  0.36136200  0.32162500  1
  C  1505  1  0.86619800  0.36173000  0.34325600  1
  C  1506  1  0.87481900  0.34572500  0.38760800  1
  C  1507  1  0.83422700  0.35677900  0.39848500  1
  C  1508  1  0.81887600  0.33883300  0.39658600  1
  C  1509  1  0.79977400  0.33442400  0.41101100  1
  C  1510  1  0.79532900  0.34736500  0.42870000  1
  C  1511  1  0.81173800  0.36431300  0.43171700  1
  C  1512  1  0.83082700  0.36853400  0.41729600  1
  C  1513  1  0.89013100  0.34801600  0.40552100  1
  C  1514  1  0.90961600  0.33400100  0.40995800  1
  C  1515  1  0.91442800  0.31622300  0.39721600  1
  C  1516  1  0.89788500  0.31268800  0.38045400  1
  C  1517  1  0.87847900  0.32678800  0.37611200  1
  C  1534  1  0.77632100  0.34269800  0.44293900  1
  C  1535  1  0.87870600  0.45123700  0.38384600  1
  C  1538  1  0.83059200  0.35972900  0.29284700  1
  C  1540  1  0.93434500  0.30281100  0.40174800  1
  C  1542  1  0.37274600  0.08782900  0.58689900  1
  C  1543  1  0.39157100  0.10319800  0.58640500  1
  C  1544  1  0.38613300  0.12484600  0.58668100  1
  C  1545  1  0.36157800  0.13246900  0.58698200  1
  C  1546  1  0.34293500  0.11679300  0.58836500  1
  C  1547  1  0.34822100  0.09516600  0.58805200  1
  C  1548  1  0.35452900  0.15586400  0.58800200  1
  C  1549  1  0.34753400  0.15721700  0.61137800  1
  C  1550  1  0.32299500  0.15759000  0.61903200  1
  C  1551  1  0.31760600  0.15792700  0.64069100  1
  C  1552  1  0.33646400  0.15745200  0.65603600  1
  C  1553  1  0.36097500  0.15633900  0.64866500  1
  C  1554  1  0.36621300  0.15597200  0.62703500  1
  C  1555  1  0.37483500  0.17194900  0.58268200  1
  C  1556  1  0.33424600  0.16090400  0.57180300  1
  C  1557  1  0.31887500  0.17883600  0.57371200  1
  C  1558  1  0.29976700  0.18323500  0.55928900  1
  C  1559  1  0.29535500  0.17031100  0.54158300  1
  C  1560  1  0.31179000  0.15338600  0.53855000  1
  C  1561  1  0.33087500  0.14916600  0.55297600  1
  C  1562  1  0.39018300  0.16963400  0.56479600  1
  C  1563  1  0.40965900  0.18365500  0.56035400  1
  C  1564  1  0.41444400  0.20145000  0.57307900  1
  C  1565  1  0.39787700  0.20500100  0.58982100  1
  C  1566  1  0.37846800  0.19090300  0.59415600  1
  C  1583  1  0.27634100  0.17497400  0.52734700  1
  C  1584  1  0.37868200  0.06643700  0.58641900  1
  C  1587  1  0.33059900  0.15793500  0.67744200  1
  C  1589  1  0.43437000  0.21485700  0.56855700  1
  C  1591  1  0.62175900  0.65871300  0.81374600  1
  C  1592  1  0.64077600  0.66032600  0.82884200  1
  C  1593  1  0.63578500  0.65921500  0.85055500  1
  C  1594  1  0.61146800  0.65711000  0.85845800  1
  C  1595  1  0.59273600  0.65466200  0.84297600  1
  C  1596  1  0.59758200  0.65561600  0.82130600  1
  C  1597  1  0.60461800  0.65599100  0.88190800  1
  C  1598  1  0.59756200  0.63261800  0.88335400  1
  C  1599  1  0.57309300  0.62499600  0.88510900  1
  C  1600  1  0.56769700  0.60334100  0.88561900  1
  C  1601  1  0.58643300  0.58796700  0.88397400  1
  C  1602  1  0.61082700  0.59531200  0.88155400  1
  C  1603  1  0.61608000  0.61693900  0.88104700  1
  C  1604  1  0.62508500  0.66122100  0.89792100  1
  C  1605  1  0.58430300  0.67220300  0.88697900  1
  C  1606  1  0.56994200  0.67089700  0.90556900  1
  C  1607  1  0.55087600  0.68531000  0.91016100  1
  C  1608  1  0.54544300  0.70242200  0.89672300  1
  C  1609  1  0.56083600  0.70487300  0.87901600  1
  C  1610  1  0.57988400  0.69047500  0.87461400  1
  C  1611  1  0.63944600  0.67977100  0.89623900  1
  C  1612  1  0.65884600  0.68442300  0.91028100  1
  C  1613  1  0.66457100  0.67120100  0.92750500  1
  C  1614  1  0.64906000  0.65363000  0.93042300  1
  C  1615  1  0.62973200  0.64909600  0.91631400  1
  C  1632  1  0.52649400  0.71668600  0.90155700  1
  C  1633  1  0.62686300  0.66076300  0.79234700  1
  C  1636  1  0.58052900  0.56656700  0.88454500  1
  C  1638  1  0.68434800  0.67597700  0.94099400  1
  C  1640  1  0.12176600  0.85896900  0.15654700  1
  C  1641  1  0.14078100  0.85735200  0.14145000  1
  C  1642  1  0.13578800  0.85846000  0.11973700  1
  C  1643  1  0.11147100  0.86057200  0.11183600  1
  C  1644  1  0.09274110  0.86301800  0.12732000  1
  C  1645  1  0.09759010  0.86207200  0.14898900  1
  C  1646  1  0.10461900  0.86169100  0.08838600  1
  C  1647  1  0.09755510  0.88506400  0.08693800  1
  C  1648  1  0.07308910  0.89268600  0.08518700  1
  C  1649  1  0.06769110  0.91434100  0.08468300  1
  C  1650  1  0.08642810  0.92971500  0.08632600  1
  C  1651  1  0.11082100  0.92237000  0.08874700  1
  C  1652  1  0.11607600  0.90074100  0.08925200  1
  C  1653  1  0.12508100  0.85646200  0.07237000  1
  C  1654  1  0.08430110  0.84548000  0.08331600  1
  C  1655  1  0.06993810  0.84678700  0.06472700  1
  C  1656  1  0.05088110  0.83236700  0.06012900  1
  C  1657  1  0.04544810  0.81525400  0.07356600  1
  C  1658  1  0.06082410  0.81281700  0.09128600  1
  C  1659  1  0.07987810  0.82721200  0.09568500  1
  C  1660  1  0.13943600  0.83791000  0.07405300  1
  C  1661  1  0.15884000  0.83325600  0.06001300  1
  C  1662  1  0.16457600  0.84648400  0.04279600  1
  C  1663  1  0.14907100  0.86405800  0.03987600  1
  C  1664  1  0.12973900  0.86859200  0.05398200  1
  C  1681  1  0.02649710  0.80099300  0.06873600  1
  C  1682  1  0.12687300  0.85692200  0.17794700  1
  C  1685  1  0.08052410  0.95111500  0.08575600  1
  C  1687  1  0.18435100  0.84170200  0.02930400  1
  C  1689  1  0.37198300  0.93009900  0.58485400  1
  C  1690  1  0.39103300  0.91502600  0.58328200  1
  C  1691  1  0.38608800  0.89330600  0.58447000  1
  C  1692  1  0.36178700  0.88538200  0.58662900  1
  C  1693  1  0.34300800  0.90084700  0.58891600  1
  C  1694  1  0.34780900  0.92251600  0.58789300  1
  C  1695  1  0.35500300  0.86194900  0.58808800  1
  C  1696  1  0.34785700  0.86083200  0.61147100  1
  C  1697  1  0.32336400  0.85913200  0.61905400  1
  C  1698  1  0.31789800  0.85871000  0.64069400  1
  C  1699  1  0.33658700  0.86041000  0.65609900  1
  C  1700  1  0.36099400  0.86287500  0.64879700  1
  C  1701  1  0.36631500  0.86330700  0.62717500  1
  C  1702  1  0.37547400  0.84584400  0.58314900  1
  C  1703  1  0.33470000  0.85657200  0.57196900  1
  C  1704  1  0.32039200  0.83799900  0.57368400  1
  C  1705  1  0.30097400  0.83331400  0.55967200  1
  C  1706  1  0.29517200  0.84653900  0.54247000  1
  C  1707  1  0.31065800  0.86411800  0.53949900  1
  C  1708  1  0.33001400  0.86867700  0.55356900  1
  C  1709  1  0.38986900  0.84713000  0.56457600  1
  C  1710  1  0.40890600  0.83268700  0.55999400  1
  C  1711  1  0.41430000  0.81557200  0.57343900  1
  C  1712  1  0.39893200  0.81318200  0.59117300  1
  C  1713  1  0.37990200  0.82760500  0.59555800  1
  C  1730  1  0.27531900  0.84177700  0.52906300  1
  C  1731  1  0.37702400  0.95151200  0.58284500  1
  C  1734  1  0.33059700  0.85988300  0.67748200  1
  C  1736  1  0.43318100  0.80124800  0.56859000  1
  C  1738  1  0.87199700  0.58758600  0.38539500  1
  C  1739  1  0.89104400  0.60266200  0.38695100  1
  C  1740  1  0.88609000  0.62438300  0.38578800  1
  C  1741  1  0.86178500  0.63230300  0.38366100  1
  C  1742  1  0.84300900  0.61683500  0.38137600  1
  C  1743  1  0.84781600  0.59516600  0.38238200  1
  C  1744  1  0.85499800  0.65573700  0.38220200  1
  C  1745  1  0.84785500  0.65686000  0.35882100  1
  C  1746  1  0.82335900  0.65852800  0.35123400  1
  C  1747  1  0.81789300  0.65894700  0.32959500  1
  C  1748  1  0.83658600  0.65726900  0.31419100  1
  C  1749  1  0.86099400  0.65482100  0.32149500  1
  C  1750  1  0.86631400  0.65439200  0.34311500  1
  C  1751  1  0.87547200  0.67183500  0.38714100  1
  C  1752  1  0.83469000  0.66110700  0.39831600  1
  C  1753  1  0.82037700  0.67967800  0.39660000  1
  C  1754  1  0.80096500  0.68436500  0.41061800  1
  C  1755  1  0.79517700  0.67114600  0.42782800  1
  C  1756  1  0.81067500  0.65357700  0.43080300  1
  C  1757  1  0.83002700  0.64901800  0.41673000  1
  C  1758  1  0.88986600  0.67054900  0.40571500  1
  C  1759  1  0.90890300  0.68499000  0.41030000  1
  C  1760  1  0.91428300  0.70211700  0.39686500  1
  C  1761  1  0.89889700  0.70452200  0.37914600  1
  C  1762  1  0.87987300  0.69009600  0.37475600  1
  C  1779  1  0.77532600  0.67590800  0.44123600  1
  C  1780  1  0.87705100  0.56617100  0.38738400  1
  C  1783  1  0.83059500  0.65780100  0.29280600  1
  C  1785  1  0.93316700  0.71643800  0.40171300  1
  C  1787  1  0.12171100  0.15912900  0.15635900  1
  C  1788  1  0.14072600  0.16114700  0.14130900  1
  C  1789  1  0.13585100  0.15991600  0.11958100  1
  C  1790  1  0.11163800  0.15723100  0.11162600  1
  C  1791  1  0.09290710  0.15450400  0.12706100  1
  C  1792  1  0.09764710  0.15557000  0.14874000  1
  C  1793  1  0.10491200  0.15571100  0.08818200  1
  C  1794  1  0.09811310  0.13224900  0.08699800  1
  C  1795  1  0.07388210  0.12431100  0.08435800  1
  C  1796  1  0.06896510  0.10259100  0.08318600  1
  C  1797  1  0.08795010  0.08752100  0.08525200  1
  C  1798  1  0.11201200  0.09511700  0.08887800  1
  C  1799  1  0.11679300  0.11679800  0.08988800  1
  C  1800  1  0.12538300  0.16075800  0.07208900  1
  C  1801  1  0.08444810  0.17171300  0.08284100  1
  C  1802  1  0.07044410  0.17018400  0.06408000  1
  C  1803  1  0.05106810  0.18421500  0.05930000  1
  C  1804  1  0.04498610  0.20126700  0.07263000  1
  C  1805  1  0.06013410  0.20404600  0.09044800  1
  C  1806  1  0.07945110  0.18996500  0.09509000  1
  C  1807  1  0.13943100  0.17953500  0.07321300  1
  C  1808  1  0.15845900  0.18422100  0.05878700  1
  C  1809  1  0.16419000  0.17067700  0.04182900  1
  C  1810  1  0.14916400  0.15271600  0.03958300  1
  C  1811  1  0.13014400  0.14823400  0.05398000  1
  C  1828  1  0.02522310  0.21474100  0.06774900  1
  C  1829  1  0.12668900  0.16119600  0.17778000  1
  C  1832  1  0.08292010  0.06611400  0.08312100  1
  C  1834  1  0.18307400  0.17559500  0.02752300  1
  C  1836  1  0.62169100  0.35854000  0.81392400  1
  C  1837  1  0.64070800  0.35651200  0.82897200  1
  C  1838  1  0.63583900  0.35774900  0.85070100  1
  C  1839  1  0.61163000  0.36045800  0.85865900  1
  C  1840  1  0.59289400  0.36318100  0.84322600  1
  C  1841  1  0.59763000  0.36210500  0.82154600  1
  C  1842  1  0.60490700  0.36197200  0.88210300  1
  C  1843  1  0.59811200  0.38543500  0.88328500  1
  C  1844  1  0.57388600  0.39337300  0.88595300  1
  C  1845  1  0.56897100  0.41509300  0.88712400  1
  C  1846  1  0.58795600  0.43016100  0.88505300  1
  C  1847  1  0.61201800  0.42256400  0.88142700  1
  C  1848  1  0.61679600  0.40088400  0.88040300  1
  C  1849  1  0.62537600  0.35691700  0.89819800  1
  C  1850  1  0.58444300  0.34596900  0.88744100  1
  C  1851  1  0.57044300  0.34749400  0.90620500  1
  C  1852  1  0.55106700  0.33346300  0.91098300  1
  C  1853  1  0.54498300  0.31641100  0.89765100  1
  C  1854  1  0.56012700  0.31363800  0.87983000  1
  C  1855  1  0.57944500  0.32771900  0.87519100  1
  C  1856  1  0.63942600  0.33814100  0.89707000  1
  C  1857  1  0.65846300  0.33346100  0.91149100  1
  C  1858  1  0.66420100  0.34701100  0.92844400  1
  C  1859  1  0.64917200  0.36496900  0.93069300  1
  C  1860  1  0.63014800  0.36944800  0.91629800  1
  C  1877  1  0.52522600  0.30293500  0.90253500  1
  C  1878  1  0.62666600  0.35647400  0.79250300  1
  C  1881  1  0.58292800  0.45156800  0.88718400  1
  C  1883  1  0.68308200  0.34208900  0.94275400  1
  C  1885  1  0.58766200  0.58743300  0.58515100  1
  C  1886  1  0.56863400  0.60251600  0.58353900  1
  C  1887  1  0.57360900  0.62423200  0.58468100  1
  C  1888  1  0.59791900  0.63214500  0.58682000  1
  C  1889  1  0.61666000  0.61667100  0.58925700  1
  C  1890  1  0.61183000  0.59500000  0.58827600  1
  C  1891  1  0.60475600  0.65559900  0.58794300  1
  C  1892  1  0.61184100  0.65704600  0.61130700  1
  C  1893  1  0.63631900  0.65881500  0.61890500  1
  C  1894  1  0.64174800  0.65931400  0.64055300  1
  C  1895  1  0.62303500  0.65766400  0.65594500  1
  C  1896  1  0.59863100  0.65523800  0.64862500  1
  C  1897  1  0.59334500  0.65473100  0.62700500  1
  C  1898  1  0.58427900  0.67160400  0.58272300  1
  C  1899  1  0.62505600  0.66068300  0.57172600  1
  C  1900  1  0.63940000  0.67928100  0.57303100  1
  C  1901  1  0.65845600  0.68388900  0.55861500  1
  C  1902  1  0.66390100  0.67045000  0.54150800  1
  C  1903  1  0.64853600  0.65272400  0.53906500  1
  C  1904  1  0.62948700  0.64831300  0.55345800  1
  C  1905  1  0.56992800  0.66992700  0.56416900  1
  C  1906  1  0.55053300  0.68397600  0.55951300  1
  C  1907  1  0.54479900  0.70118900  0.57274400  1
  C  1908  1  0.56030000  0.70410100  0.59032200  1
  C  1909  1  0.57962500  0.68998900  0.59485800  1
  C  1926  1  0.68285800  0.67528000  0.52725600  1
  C  1927  1  0.58258600  0.56603300  0.58307600  1
  C  1930  1  0.62897800  0.65821500  0.67733800  1
  C  1932  1  0.52503100  0.71468700  0.56796300  1
  C  1934  1  0.08764110  0.93023800  0.38512500  1
  C  1935  1  0.06861710  0.91515200  0.38673700  1
  C  1936  1  0.07359510  0.89343700  0.38560300  1
  C  1937  1  0.09790710  0.88552800  0.38347400  1
  C  1938  1  0.11664600  0.90100500  0.38103500  1
  C  1939  1  0.11181300  0.92267400  0.38200900  1
  C  1940  1  0.10475000  0.86207600  0.38235100  1
  C  1941  1  0.11183900  0.86062800  0.35898600  1
  C  1942  1  0.13631700  0.85885900  0.35139200  1
  C  1943  1  0.14174900  0.85836300  0.32974400  1
  C  1944  1  0.12303800  0.86001200  0.31435000  1
  C  1945  1  0.09863410  0.86243600  0.32166700  1
  C  1946  1  0.09334510  0.86294300  0.34328800  1
  C  1947  1  0.08427510  0.84607000  0.38757000  1
  C  1948  1  0.12504900  0.85699200  0.39856900  1
  C  1949  1  0.13938800  0.83839000  0.39726900  1
  C  1950  1  0.15845100  0.83378600  0.41168100  1
  C  1951  1  0.16389300  0.84722600  0.42878900  1
  C  1952  1  0.14853100  0.86495500  0.43122900  1
  C  1953  1  0.12948100  0.86936200  0.41683600  1
  C  1954  1  0.06992010  0.84774800  0.40612400  1
  C  1955  1  0.05053310  0.83369700  0.41078700  1
  C  1956  1  0.04479810  0.81648200  0.39755600  1
  C  1957  1  0.06029110  0.81357400  0.37997100  1
  C  1958  1  0.07961510  0.82768700  0.37543600  1
  C  1975  1  0.18285300  0.84239800  0.44303800  1
  C  1976  1  0.08256210  0.95163800  0.38720500  1
  C  1979  1  0.12898200  0.85946600  0.29295800  1
  C  1981  1  0.02502510  0.80299100  0.40233500  1
  C  1983  1  0.83795200  0.35878300  0.15651200  1
  C  1984  1  0.81895500  0.35671100  0.14145600  1
  C  1985  1  0.82384800  0.35792700  0.11973400  1
  C  1986  1  0.84806500  0.36062100  0.11178500  1
  C  1987  1  0.86675600  0.36351200  0.12722600  1
  C  1988  1  0.86200000  0.36245200  0.14890700  1
  C  1989  1  0.85485400  0.36181900  0.08832100  1
  C  1990  1  0.86158300  0.38526600  0.08682000  1
  C  1991  1  0.88579300  0.39321600  0.08411700  1
  C  1992  1  0.89067400  0.41494400  0.08289400  1
  C  1993  1  0.87166400  0.42999800  0.08493200  1
  C  1994  1  0.84759900  0.42238200  0.08849300  1
  C  1995  1  0.84285400  0.40070200  0.08956100  1
  C  1996  1  0.83439000  0.35648500  0.07231600  1
  C  1997  1  0.87532300  0.34572500  0.08326500  1
  C  1998  1  0.88936700  0.34685700  0.06448600  1
  C  1999  1  0.90841600  0.33244800  0.05980800  1
  C  2000  1  0.91417100  0.31550000  0.07335900  1
  C  2001  1  0.89912700  0.31323200  0.09130600  1
  C  2002  1  0.88009700  0.32761900  0.09578900  1
  C  2003  1  0.82039600  0.33771800  0.07382900  1
  C  2004  1  0.80102500  0.33293900  0.05979100  1
  C  2005  1  0.79493500  0.34628100  0.04275000  1
  C  2006  1  0.81006200  0.36411600  0.03999700  1
  C  2007  1  0.82937300  0.36875800  0.05408400  1
  C  2024  1  0.93305700  0.30119800  0.06843700  1
  C  2025  1  0.83296000  0.35662000  0.17792000  1
  C  2028  1  0.87665400  0.45141900  0.08286800  1
  C  2030  1  0.77518800  0.34139400  0.02926300  1
  C  2032  1  0.33794900  0.15888900  0.81377800  1
  C  2033  1  0.31895400  0.16096700  0.82883400  1
  C  2034  1  0.32385000  0.15975300  0.85055700  1
  C  2035  1  0.34806600  0.15705500  0.85850500  1
  C  2036  1  0.36675600  0.15416600  0.84306100  1
  C  2037  1  0.36199600  0.15521300  0.82138200  1
  C  2038  1  0.35485700  0.15585700  0.88196700  1
  C  2039  1  0.36158600  0.13241100  0.88347100  1
  C  2040  1  0.38579800  0.12445900  0.88616900  1
  C  2041  1  0.39067800  0.10273100  0.88738700  1
  C  2042  1  0.37166600  0.08767800  0.88535300  1
  C  2043  1  0.34760200  0.09529500  0.88179300  1
  C  2044  1  0.34285900  0.11697500  0.88072600  1
  C  2045  1  0.33439800  0.16119300  0.89797500  1
  C  2046  1  0.37532800  0.17195000  0.88702200  1
  C  2047  1  0.38937500  0.17081600  0.90579800  1
  C  2048  1  0.40842000  0.18523000  0.91048200  1
  C  2049  1  0.41416800  0.20218100  0.89693200  1
  C  2050  1  0.39913200  0.20444400  0.87898100  1
  C  2051  1  0.38010400  0.19005600  0.87449700  1
  C  2052  1  0.32041300  0.17996600  0.89646500  1
  C  2053  1  0.30103000  0.18473700  0.91049200  1
  C  2054  1  0.29493100  0.17139300  0.92753000  1
  C  2055  1  0.31005900  0.15356000  0.93028800  1
  C  2056  1  0.32937200  0.14891700  0.91620400  1
  C  2073  1  0.43306100  0.21647900  0.90184900  1
  C  2074  1  0.33295600  0.16105000  0.79237000  1
  C  2077  1  0.37665500  0.06625700  0.88741700  1
  C  2079  1  0.27518300  0.17628400  0.94101400  1
  C  2081  1  0.96029200  0.27370000  0.39109500  1
  C  2083  1  0.98882900  0.25307700  0.37040100  1
  C  2084  1  0.99839900  0.24342700  0.38871000  1
  C  2086  1  0.96983000  0.26396500  0.40944200  1
  C  2087  1  0.96059300  0.26770000  0.42934200  1
  C  2088  1  0.99735600  0.24834400  0.35042700  1
  C  2097  1  0.46030300  0.24397300  0.57920300  1
  C  2099  1  0.48884400  0.26459600  0.59989700  1
  C  2100  1  0.49841600  0.27424300  0.58158600  1
  C  2102  1  0.46984600  0.25370300  0.56085500  1
  C  2103  1  0.46060700  0.24996700  0.54095700  1
  C  2104  1  0.49736900  0.26933200  0.61986900  1
  C  2113  1  0.21048000  0.85235200  0.00021100  1
  C  2115  1  0.23878200  0.87308000  0.97937500  1
  C  2116  1  0.24829200  0.85478400  0.96965600  1
  C  2118  1  0.21997300  0.83401800  0.99041300  1
  C  2119  1  0.21080900  0.81411100  0.99421500  1
  C  2120  1  0.24722700  0.89306600  0.97459000  1
  C  2129  1  0.71047100  0.66532700  0.97009300  1
  C  2131  1  0.73877000  0.64459800  0.99092900  1
  C  2132  1  0.74828500  0.66289300  0.00064600  1
  C  2134  1  0.71996800  0.68366000  0.97988700  1
  C  2135  1  0.71080800  0.70356800  0.97608200  1
  C  2136  1  0.74721000  0.62461200  0.99571700  1
  C  2145  1  0.49893000  0.74379500  0.57861200  1
  C  2147  1  0.47065200  0.76464500  0.59934600  1
  C  2148  1  0.46113900  0.77436100  0.58104900  1
  C  2150  1  0.48943500  0.75358900  0.56027900  1
  C  2151  1  0.49858900  0.74978000  0.54037000  1
  C  2152  1  0.46222100  0.76943900  0.61933400  1
  C  2161  1  0.99892200  0.77388400  0.39168800  1
  C  2163  1  0.97064400  0.75303400  0.37095600  1
  C  2164  1  0.96112500  0.74332200  0.38925200  1
  C  2166  1  0.98942400  0.76409400  0.41002100  1
  C  2167  1  0.99857400  0.76790600  0.42993200  1
  C  2168  1  0.96221500  0.74823600  0.35096800  1
  C  2177  1  0.24890100  0.16563900  0.97005600  1
  C  2179  1  0.22067800  0.14489300  0.99095600  1
  C  2180  1  0.21112800  0.16318600  0.00065200  1
  C  2182  1  0.23936500  0.18396900  0.97983000  1
  C  2183  1  0.24846500  0.20388800  0.97598300  1
  C  2184  1  0.21229300  0.12489800  0.99577700  1
  C  2193  1  0.74890800  0.35204100  0.00022100  1
  C  2195  1  0.72069100  0.37279000  0.97931800  1
  C  2196  1  0.71113800  0.35449700  0.96962400  1
  C  2198  1  0.73936800  0.33371100  0.99045000  1
  C  2199  1  0.74846300  0.31379200  0.99429900  1
  C  2200  1  0.71231200  0.39278600  0.97449300  1
  C  2209  1  0.46036800  0.77381200  0.89151200  1
  C  2211  1  0.48873900  0.75305900  0.87077100  1
  C  2212  1  0.49834800  0.74341200  0.88906900  1
  C  2214  1  0.46995800  0.76408500  0.90984500  1
  C  2215  1  0.46082000  0.76787700  0.92976400  1
  C  2216  1  0.49716300  0.74827100  0.85078000  1
  C  2225  1  0.96036900  0.74386800  0.07878300  1
  C  2227  1  0.98874800  0.76461800  0.09952300  1
  C  2228  1  0.99835300  0.77426700  0.08122500  1
  C  2230  1  0.96995600  0.75359900  0.06045000  1
  C  2231  1  0.96081200  0.74980900  0.04053300  1
  C  2232  1  0.99717900  0.76940000  0.11951300  1
  C  2241  1  0.71030400  0.35290200  0.50001800  1
  C  2243  1  0.73884900  0.37359500  0.47939400  1
  C  2244  1  0.74840000  0.35528600  0.46973000  1
  C  2246  1  0.71982800  0.33455600  0.49026900  1
  C  2247  1  0.71057800  0.31465900  0.49399600  1
  C  2248  1  0.74738500  0.39356700  0.47466900  1
  C  2257  1  0.21034400  0.16477200  0.47025100  1
  C  2259  1  0.23889900  0.14408000  0.49086500  1
  C  2260  1  0.24844000  0.16238800  0.50054200  1
  C  2262  1  0.21985700  0.18311700  0.48001100  1
  C  2263  1  0.21059400  0.20301100  0.47629600  1
  C  2264  1  0.24744600  0.12410900  0.49558100  1
  C  2273  1  0.99893300  0.24377500  0.07839400  1
  C  2275  1  0.97071200  0.26467100  0.09914400  1
  C  2276  1  0.96114000  0.27435100  0.08085000  1
  C  2278  1  0.98937600  0.25353200  0.06006400  1
  C  2279  1  0.99846400  0.24968000  0.04014400  1
  C  2280  1  0.96233800  0.26950200  0.11914100  1
  C  2289  1  0.49893400  0.27390300  0.89188700  1
  C  2291  1  0.47070200  0.25301300  0.87114100  1
  C  2292  1  0.46113900  0.24332800  0.88943400  1
  C  2294  1  0.48938400  0.26414100  0.91021900  1
  C  2295  1  0.49847900  0.26798800  0.93013700  1
  C  2296  1  0.46232000  0.24818900  0.85114500  1
  C  2305  1  0.74903700  0.66522900  0.47020200  1
  C  2307  1  0.72064000  0.64448500  0.49092200  1
  C  2308  1  0.71102900  0.66278200  0.50056700  1
  C  2310  1  0.73944900  0.68356200  0.47993100  1
  C  2311  1  0.74859900  0.70347900  0.47615900  1
  C  2312  1  0.71220100  0.62449200  0.49569300  1
  C  2321  1  0.24902900  0.85245300  0.50009600  1
  C  2323  1  0.22062800  0.87319600  0.47937800  1
  C  2324  1  0.21102100  0.85489900  0.46973000  1
  C  2326  1  0.23944500  0.83412000  0.49036600  1
  C  2327  1  0.24860000  0.81420500  0.49413600  1
  C  2328  1  0.21218600  0.89318600  0.47460800  1
  C  2337  1  0.11469300  0.15543300  0.25706400  1
  C  2339  1  0.09935410  0.13955700  0.22526600  1
  C  2340  1  0.11415200  0.15314800  0.21299700  1
  C  2342  1  0.12923100  0.16921300  0.24474400  1
  C  2343  1  0.14322000  0.18518900  0.25325100  1
  C  2344  1  0.08407310  0.12444100  0.21652200  1
  C  2353  1  0.61465200  0.36227400  0.71322400  1
  C  2355  1  0.59935400  0.37816100  0.74502900  1
  C  2356  1  0.61413100  0.36454500  0.75729100  1
  C  2358  1  0.62916300  0.34846800  0.72553600  1
  C  2359  1  0.64312100  0.33247800  0.71701600  1
  C  2360  1  0.58410800  0.39329700  0.75378100  1
  C  2369  1  0.36476700  0.98696100  0.88179000  1
  C  2371  1  0.34935600  0.01871300  0.86586100  1
  C  2372  1  0.36415800  0.03102700  0.87940600  1
  C  2374  1  0.37933400  0.99932300  0.89552100  1
  C  2375  1  0.39336900  0.99088900  0.91152300  1
  C  2376  1  0.33403200  0.02740600  0.85074800  1
  C  2385  1  0.86476500  0.53071600  0.08848200  1
  C  2387  1  0.84934000  0.49896500  0.10440500  1
  C  2388  1  0.86415400  0.48665000  0.09087100  1
  C  2390  1  0.87934400  0.51835200  0.07476100  1
  C  2391  1  0.89339200  0.52678400  0.05876700  1
  C  2392  1  0.83400200  0.49027500  0.11950900  1
  C  2401  1  0.84457900  0.36223200  0.25723800  1
  C  2403  1  0.85972700  0.37843800  0.22553800  1
  C  2404  1  0.84528400  0.36465400  0.21317900  1
  C  2406  1  0.83042600  0.34825300  0.24482600  1
  C  2407  1  0.81673900  0.33204800  0.25324300  1
  C  2408  1  0.87471200  0.39382000  0.21688800  1
  C  2417  1  0.34458700  0.15544100  0.71305200  1
  C  2419  1  0.35973300  0.13923800  0.74475400  1
  C  2420  1  0.34528400  0.15302100  0.75711100  1
  C  2422  1  0.33042900  0.16941900  0.72546200  1
  C  2423  1  0.31673800  0.18562000  0.71704200  1
  C  2424  1  0.37472100  0.12386000  0.75340500  1
  C  2433  1  0.59446800  0.53090700  0.88188500  1
  C  2435  1  0.61001600  0.49927300  0.86581200  1
  C  2436  1  0.59530000  0.48685100  0.87932700  1
  C  2438  1  0.57998900  0.51843900  0.89558800  1
  C  2439  1  0.56594000  0.52675100  0.91164300  1
  C  2440  1  0.62535400  0.49069200  0.85064700  1
  C  2449  1  0.09446410  0.98677600  0.08841100  1
  C  2451  1  0.11002100  0.01840900  0.10447800  1
  C  2452  1  0.09529710  0.03083000  0.09097100  1
  C  2454  1  0.07997610  0.99924500  0.07471600  1
  C  2455  1  0.06591710  0.99093200  0.05866500  1
  C  2456  1  0.12536800  0.02698900  0.11963700  1
  C  2465  1  0.34442100  0.86207900  0.71318700  1
  C  2467  1  0.36012700  0.87778300  0.74494500  1
  C  2468  1  0.34501500  0.86448000  0.75724700  1
  C  2470  1  0.32954500  0.84857300  0.72553400  1
  C  2471  1  0.31519300  0.83276800  0.71709800  1
  C  2472  1  0.37576800  0.89265500  0.75364300  1
  C  2481  1  0.84441900  0.65560000  0.25710500  1
  C  2483  1  0.86010700  0.63988800  0.22534300  1
  C  2484  1  0.84501000  0.65320400  0.21304300  1
  C  2486  1  0.82955700  0.66911800  0.24475700  1
  C  2487  1  0.81522600  0.68493400  0.25319800  1
  C  2488  1  0.87572800  0.62500400  0.21664200  1
  C  2497  1  0.61507500  0.65565800  0.71301200  1
  C  2499  1  0.59941700  0.63970300  0.74466500  1
  C  2500  1  0.61430200  0.65309900  0.75706700  1
  C  2502  1  0.62971900  0.66925000  0.72546200  1
  C  2503  1  0.64390700  0.68520800  0.71712900  1
  C  2504  1  0.58392800  0.62465700  0.75326300  1
  C  2513  1  0.11508200  0.86202100  0.25728200  1
  C  2515  1  0.09942210  0.87797500  0.22563000  1
  C  2516  1  0.11431100  0.86458000  0.21322900  1
  C  2518  1  0.12972600  0.84842900  0.24483200  1
  C  2519  1  0.14391600  0.83247000  0.25316500  1
  C  2520  1  0.08393510  0.89302000  0.21703200  1
  C  2529  1  0.86482700  0.48689300  0.38179300  1
  C  2531  1  0.84942800  0.51870700  0.36599600  1
  C  2532  1  0.86434500  0.53095800  0.37950900  1
  C  2534  1  0.87947100  0.49919600  0.39550500  1
  C  2535  1  0.89354300  0.49066800  0.41141800  1
  C  2536  1  0.83405500  0.52746600  0.35095800  1
  C  2545  1  0.36481200  0.03078700  0.58851800  1
  C  2547  1  0.34957400  0.99896600  0.60441000  1
  C  2548  1  0.36436000  0.98672300  0.59078500  1
  C  2550  1  0.37931000  0.01849100  0.57469100  1
  C  2551  1  0.39322700  0.02703200  0.55869200  1
  C  2552  1  0.33435200  0.99019700  0.61955400  1
  C  2561  1  0.09437910  0.03095900  0.38185000  1
  C  2563  1  0.10972200  0.99926100  0.36577900  1
  C  2564  1  0.09507110  0.98690300  0.37940400  1
  C  2566  1  0.08001610  0.01854700  0.39567700  1
  C  2567  1  0.06613210  0.02696100  0.41176400  1
  C  2568  1  0.12491900  0.99061100  0.35054700  1
  C  2577  1  0.59441800  0.48671600  0.58848100  1
  C  2579  1  0.60968600  0.51842400  0.60458400  1
  C  2580  1  0.59508800  0.53077300  0.59090900  1
  C  2582  1  0.58011800  0.49911900  0.57460100  1
  C  2583  1  0.56630000  0.49069000  0.55848200  1
  C  2584  1  0.62481500  0.52708400  0.61985800  1
  C  2593  1  0.30717300  0.08798900  0.38380100  1
  C  2594  1  0.28834800  0.10335900  0.38438500  1
  C  2595  1  0.29377500  0.12501100  0.38401000  1
  C  2596  1  0.31832400  0.13263000  0.38352200  1
  C  2597  1  0.33696600  0.11694900  0.38217700  1
  C  2598  1  0.33169000  0.09532600  0.38256100  1
  C  2599  1  0.32537100  0.15599700  0.38215500  1
  C  2600  1  0.33241100  0.15701000  0.35875400  1
  C  2601  1  0.35695900  0.15741000  0.35111600  1
  C  2602  1  0.36237700  0.15768900  0.32946500  1
  C  2603  1  0.34354400  0.15709100  0.31410600  1
  C  2604  1  0.31903300  0.15584700  0.32145800  1
  C  2605  1  0.31376600  0.15554000  0.34308900  1
  C  2606  1  0.30510800  0.17221400  0.38720000  1
  C  2607  1  0.34569900  0.16129000  0.39823400  1
  C  2608  1  0.36097800  0.17922600  0.39596900  1
  C  2609  1  0.38045700  0.18367100  0.40998700  1
  C  2610  1  0.38532100  0.17089500  0.42773100  1
  C  2611  1  0.36883700  0.15408200  0.43122500  1
  C  2612  1  0.34942600  0.14974200  0.41713100  1
  C  2613  1  0.28984600  0.17037400  0.40520700  1
  C  2614  1  0.27074400  0.18479900  0.40962100  1
  C  2615  1  0.26621700  0.20243100  0.39662400  1
  C  2616  1  0.28253900  0.20539500  0.37960900  1
  C  2617  1  0.30162500  0.19097200  0.37537800  1
  C  2634  1  0.40523800  0.17542900  0.44114300  1
  C  2635  1  0.30126700  0.06659000  0.38428600  1
  C  2638  1  0.34945900  0.15756500  0.29270800  1
  C  2640  1  0.24721300  0.21667200  0.40130300  1
  C  2642  1  0.80720200  0.42969100  0.58653300  1
  C  2643  1  0.78836700  0.41432800  0.58603900  1
  C  2644  1  0.79378700  0.39267500  0.58638200  1
  C  2645  1  0.81833600  0.38504400  0.58675700  1
  C  2646  1  0.83698900  0.40072100  0.58804200  1
  C  2647  1  0.83172200  0.42234600  0.58767000  1
  C  2648  1  0.82536800  0.36167700  0.58813100  1
  C  2649  1  0.83239100  0.36066000  0.61153200  1
  C  2650  1  0.85693700  0.36038000  0.61917900  1
  C  2651  1  0.86235200  0.36011800  0.64083200  1
  C  2652  1  0.84350900  0.36062800  0.65618500  1
  C  2653  1  0.81899300  0.36177400  0.64882600  1
  C  2654  1  0.81373500  0.36206600  0.62719300  1
  C  2655  1  0.80510000  0.34546900  0.58307900  1
  C  2656  1  0.84569600  0.35637700  0.57206000  1
  C  2657  1  0.86104700  0.33849100  0.57437400  1
  C  2658  1  0.88052200  0.33404900  0.56034900  1
  C  2659  1  0.88530700  0.34677500  0.54255400  1
  C  2660  1  0.86874200  0.36352000  0.53900800  1
  C  2661  1  0.84933200  0.36785300  0.55310600  1
  C  2662  1  0.78976700  0.34735400  0.56512100  1
  C  2663  1  0.77066600  0.33293000  0.56071300  1
  C  2664  1  0.76621900  0.31524600  0.57365800  1
  C  2665  1  0.78262800  0.31222700  0.59060400  1
  C  2666  1  0.80171000  0.32665300  0.59483000  1
  C  2683  1  0.90522400  0.34225100  0.52914000  1
  C  2684  1  0.80130500  0.45109100  0.58605900  1
  C  2687  1  0.84941900  0.36016000  0.67758400  1
  C  2689  1  0.74720900  0.30100900  0.56898900  1
  C  2691  1  0.55821000  0.85870800  0.81389600  1
  C  2692  1  0.53917300  0.85715200  0.82898200  1
  C  2693  1  0.54414300  0.85828600  0.85070200  1
  C  2694  1  0.56845600  0.86039000  0.85861300  1
  C  2695  1  0.58722300  0.86267200  0.84313800  1
  C  2696  1  0.58239800  0.86169400  0.82146900  1
  C  2697  1  0.57525100  0.86184700  0.88204400  1
  C  2698  1  0.58235300  0.88523900  0.88316200  1
  C  2699  1  0.60683400  0.89286000  0.88481800  1
  C  2700  1  0.61225500  0.91450900  0.88524900  1
  C  2701  1  0.59353000  0.92988700  0.88359500  1
  C  2702  1  0.56913500  0.92254900  0.88115300  1
  C  2703  1  0.56386000  0.90092000  0.88071500  1
  C  2704  1  0.55479300  0.85689400  0.89815400  1
  C  2705  1  0.59557800  0.84574400  0.88740000  1
  C  2706  1  0.60993100  0.84747500  0.90594700  1
  C  2707  1  0.62934200  0.83345200  0.91062600  1
  C  2708  1  0.63510000  0.81622300  0.89742000  1
  C  2709  1  0.61957000  0.81323900  0.87987300  1
  C  2710  1  0.60021500  0.82731500  0.87532500  1
  C  2711  1  0.54038000  0.83833200  0.89685700  1
  C  2712  1  0.52134600  0.83374600  0.91130300  1
  C  2713  1  0.51599000  0.84716500  0.92844700  1
  C  2714  1  0.53139200  0.86487400  0.93085800  1
  C  2715  1  0.55041500  0.86926400  0.91643000  1
  C  2732  1  0.65494700  0.80280400  0.90217900  1
  C  2733  1  0.55312700  0.85674800  0.79248200  1
  C  2736  1  0.59946600  0.95128200  0.88416700  1
  C  2738  1  0.49709600  0.84232500  0.94276300  1
  C  2740  1  0.05821420  0.65898900  0.15639500  1
  C  2741  1  0.03917920  0.66055900  0.14130800  1
  C  2742  1  0.04415020  0.65941600  0.11958800  1
  C  2743  1  0.06846020  0.65728100  0.11168000  1
  C  2744  1  0.08722720  0.65500100  0.12715500  1
  C  2745  1  0.08240120  0.65598800  0.14882300  1
  C  2746  1  0.07525320  0.65583100  0.08824800  1
  C  2747  1  0.08235320  0.63243800  0.08713500  1
  C  2748  1  0.10682900  0.62481700  0.08543700  1
  C  2749  1  0.11225100  0.60316800  0.08501000  1
  C  2750  1  0.09352720  0.58779000  0.08667800  1
  C  2751  1  0.06913420  0.59512900  0.08913200  1
  C  2752  1  0.06385920  0.61675700  0.08957700  1
  C  2753  1  0.05480020  0.66079200  0.07213600  1
  C  2754  1  0.09558420  0.67193300  0.08289700  1
  C  2755  1  0.10992700  0.67021100  0.06434300  1
  C  2756  1  0.12933900  0.68423400  0.05966600  1
  C  2757  1  0.13510300  0.70145700  0.07287700  1
  C  2758  1  0.11958300  0.70443400  0.09043100  1
  C  2759  1  0.10022600  0.69035700  0.09497800  1
  C  2760  1  0.04039020  0.67935500  0.07343100  1
  C  2761  1  0.02134920  0.68393600  0.05898900  1
  C  2762  1  0.01598620  0.67051100  0.04185100  1
  C  2763  1  0.03138120  0.65279600  0.03944500  1
  C  2764  1  0.05040620  0.64840900  0.05387200  1
  C  2781  1  0.15494500  0.71488100  0.06811400  1
  C  2782  1  0.05313320  0.66095500  0.17780900  1
  C  2785  1  0.09946420  0.56639600  0.08610600  1
  C  2787  1  0.99709000  0.67535100  0.02753700  1
  C  2789  1  0.09360920  0.42984600  0.38338900  1
  C  2790  1  0.11242600  0.41446900  0.38392700  1
  C  2791  1  0.10697800  0.39282400  0.38365100  1
  C  2792  1  0.08242020  0.38520800  0.38331100  1
  C  2793  1  0.06378920  0.40089000  0.38190400  1
  C  2794  1  0.06908420  0.42251500  0.38220800  1
  C  2795  1  0.07536520  0.36181300  0.38229000  1
  C  2796  1  0.06837220  0.36046100  0.35891200  1
  C  2797  1  0.04383320  0.36005800  0.35125800  1
  C  2798  1  0.03844720  0.35971500  0.32959700  1
  C  2799  1  0.05730320  0.36021800  0.31425300  1
  C  2800  1  0.08181220  0.36136200  0.32162500  1
  C  2801  1  0.08704820  0.36173000  0.34325600  1
  C  2802  1  0.09566920  0.34572500  0.38760800  1
  C  2803  1  0.05507720  0.35677900  0.39848500  1
  C  2804  1  0.03972620  0.33883300  0.39658600  1
  C  2805  1  0.02062420  0.33442400  0.41101100  1
  C  2806  1  0.01617920  0.34736500  0.42870000  1
  C  2807  1  0.03258820  0.36431300  0.43171700  1
  C  2808  1  0.05167720  0.36853400  0.41729600  1
  C  2809  1  0.11098100  0.34801600  0.40552100  1
  C  2810  1  0.13046600  0.33400100  0.40995800  1
  C  2811  1  0.13527800  0.31622300  0.39721600  1
  C  2812  1  0.11873500  0.31268800  0.38045400  1
  C  2813  1  0.09932920  0.32678800  0.37611200  1
  C  2830  1  0.99717100  0.34269800  0.44293900  1
  C  2831  1  0.09955620  0.45123700  0.38384600  1
  C  2834  1  0.05144220  0.35972900  0.29284700  1
  C  2836  1  0.15519500  0.30281100  0.40174800  1
  C  2838  1  0.59359600  0.08782900  0.58689900  1
  C  2839  1  0.61242100  0.10319800  0.58640500  1
  C  2840  1  0.60698300  0.12484600  0.58668100  1
  C  2841  1  0.58242800  0.13246900  0.58698200  1
  C  2842  1  0.56378500  0.11679300  0.58836500  1
  C  2843  1  0.56907100  0.09516600  0.58805200  1
  C  2844  1  0.57537900  0.15586400  0.58800200  1
  C  2845  1  0.56838400  0.15721700  0.61137800  1
  C  2846  1  0.54384500  0.15759000  0.61903200  1
  C  2847  1  0.53845600  0.15792700  0.64069100  1
  C  2848  1  0.55731400  0.15745200  0.65603600  1
  C  2849  1  0.58182500  0.15633900  0.64866500  1
  C  2850  1  0.58706300  0.15597200  0.62703500  1
  C  2851  1  0.59568500  0.17194900  0.58268200  1
  C  2852  1  0.55509600  0.16090400  0.57180300  1
  C  2853  1  0.53972500  0.17883600  0.57371200  1
  C  2854  1  0.52061700  0.18323500  0.55928900  1
  C  2855  1  0.51620500  0.17031100  0.54158300  1
  C  2856  1  0.53264000  0.15338600  0.53855000  1
  C  2857  1  0.55172500  0.14916600  0.55297600  1
  C  2858  1  0.61103300  0.16963400  0.56479600  1
  C  2859  1  0.63050900  0.18365500  0.56035400  1
  C  2860  1  0.63529400  0.20145000  0.57307900  1
  C  2861  1  0.61872700  0.20500100  0.58982100  1
  C  2862  1  0.59931800  0.19090300  0.59415600  1
  C  2879  1  0.49719100  0.17497400  0.52734700  1
  C  2880  1  0.59953200  0.06643700  0.58641900  1
  C  2883  1  0.55144900  0.15793500  0.67744200  1
  C  2885  1  0.65522000  0.21485700  0.56855700  1
  C  2887  1  0.84260900  0.65871300  0.81374600  1
  C  2888  1  0.86162600  0.66032600  0.82884200  1
  C  2889  1  0.85663500  0.65921500  0.85055500  1
  C  2890  1  0.83231800  0.65711000  0.85845800  1
  C  2891  1  0.81358600  0.65466200  0.84297600  1
  C  2892  1  0.81843200  0.65561600  0.82130600  1
  C  2893  1  0.82546800  0.65599100  0.88190800  1
  C  2894  1  0.81841200  0.63261800  0.88335400  1
  C  2895  1  0.79394300  0.62499600  0.88510900  1
  C  2896  1  0.78854700  0.60334100  0.88561900  1
  C  2897  1  0.80728300  0.58796700  0.88397400  1
  C  2898  1  0.83167700  0.59531200  0.88155400  1
  C  2899  1  0.83693000  0.61693900  0.88104700  1
  C  2900  1  0.84593500  0.66122100  0.89792100  1
  C  2901  1  0.80515300  0.67220300  0.88697900  1
  C  2902  1  0.79079200  0.67089700  0.90556900  1
  C  2903  1  0.77172600  0.68531000  0.91016100  1
  C  2904  1  0.76629300  0.70242200  0.89672300  1
  C  2905  1  0.78168600  0.70487300  0.87901600  1
  C  2906  1  0.80073400  0.69047500  0.87461400  1
  C  2907  1  0.86029600  0.67977100  0.89623900  1
  C  2908  1  0.87969600  0.68442300  0.91028100  1
  C  2909  1  0.88542100  0.67120100  0.92750500  1
  C  2910  1  0.86991000  0.65363000  0.93042300  1
  C  2911  1  0.85058200  0.64909600  0.91631400  1
  C  2928  1  0.74734400  0.71668600  0.90155700  1
  C  2929  1  0.84771300  0.66076300  0.79234700  1
  C  2932  1  0.80137900  0.56656700  0.88454500  1
  C  2934  1  0.90519800  0.67597700  0.94099400  1
  C  2936  1  0.34261600  0.85896900  0.15654700  1
  C  2937  1  0.36163100  0.85735200  0.14145000  1
  C  2938  1  0.35663800  0.85846000  0.11973700  1
  C  2939  1  0.33232100  0.86057200  0.11183600  1
  C  2940  1  0.31359100  0.86301800  0.12732000  1
  C  2941  1  0.31844000  0.86207200  0.14898900  1
  C  2942  1  0.32546900  0.86169100  0.08838600  1
  C  2943  1  0.31840500  0.88506400  0.08693800  1
  C  2944  1  0.29393900  0.89268600  0.08518700  1
  C  2945  1  0.28854100  0.91434100  0.08468300  1
  C  2946  1  0.30727800  0.92971500  0.08632600  1
  C  2947  1  0.33167100  0.92237000  0.08874700  1
  C  2948  1  0.33692600  0.90074100  0.08925200  1
  C  2949  1  0.34593100  0.85646200  0.07237000  1
  C  2950  1  0.30515100  0.84548000  0.08331600  1
  C  2951  1  0.29078800  0.84678700  0.06472700  1
  C  2952  1  0.27173100  0.83236700  0.06012900  1
  C  2953  1  0.26629800  0.81525400  0.07356600  1
  C  2954  1  0.28167400  0.81281700  0.09128600  1
  C  2955  1  0.30072800  0.82721200  0.09568500  1
  C  2956  1  0.36028600  0.83791000  0.07405300  1
  C  2957  1  0.37969000  0.83325600  0.06001300  1
  C  2958  1  0.38542600  0.84648400  0.04279600  1
  C  2959  1  0.36992100  0.86405800  0.03987600  1
  C  2960  1  0.35058900  0.86859200  0.05398200  1
  C  2977  1  0.24734700  0.80099300  0.06873600  1
  C  2978  1  0.34772300  0.85692200  0.17794700  1
  C  2981  1  0.30137400  0.95111500  0.08575600  1
  C  2983  1  0.40520100  0.84170200  0.02930400  1
  C  2985  1  0.59283300  0.93009900  0.58485400  1
  C  2986  1  0.61188300  0.91502600  0.58328200  1
  C  2987  1  0.60693800  0.89330600  0.58447000  1
  C  2988  1  0.58263700  0.88538200  0.58662900  1
  C  2989  1  0.56385800  0.90084700  0.58891600  1
  C  2990  1  0.56865900  0.92251600  0.58789300  1
  C  2991  1  0.57585300  0.86194900  0.58808800  1
  C  2992  1  0.56870700  0.86083200  0.61147100  1
  C  2993  1  0.54421400  0.85913200  0.61905400  1
  C  2994  1  0.53874800  0.85871000  0.64069400  1
  C  2995  1  0.55743700  0.86041000  0.65609900  1
  C  2996  1  0.58184400  0.86287500  0.64879700  1
  C  2997  1  0.58716500  0.86330700  0.62717500  1
  C  2998  1  0.59632400  0.84584400  0.58314900  1
  C  2999  1  0.55555000  0.85657200  0.57196900  1
  C  3000  1  0.54124200  0.83799900  0.57368400  1
  C  3001  1  0.52182400  0.83331400  0.55967200  1
  C  3002  1  0.51602200  0.84653900  0.54247000  1
  C  3003  1  0.53150800  0.86411800  0.53949900  1
  C  3004  1  0.55086400  0.86867700  0.55356900  1
  C  3005  1  0.61071900  0.84713000  0.56457600  1
  C  3006  1  0.62975600  0.83268700  0.55999400  1
  C  3007  1  0.63515000  0.81557200  0.57343900  1
  C  3008  1  0.61978200  0.81318200  0.59117300  1
  C  3009  1  0.60075200  0.82760500  0.59555800  1
  C  3026  1  0.49616900  0.84177700  0.52906300  1
  C  3027  1  0.59787400  0.95151200  0.58284500  1
  C  3030  1  0.55144700  0.85988300  0.67748200  1
  C  3032  1  0.65403100  0.80124800  0.56859000  1
  C  3034  1  0.09284720  0.58758600  0.38539500  1
  C  3035  1  0.11189400  0.60266200  0.38695100  1
  C  3036  1  0.10694000  0.62438300  0.38578800  1
  C  3037  1  0.08263520  0.63230300  0.38366100  1
  C  3038  1  0.06385920  0.61683500  0.38137600  1
  C  3039  1  0.06866620  0.59516600  0.38238200  1
  C  3040  1  0.07584820  0.65573700  0.38220200  1
  C  3041  1  0.06870520  0.65686000  0.35882100  1
  C  3042  1  0.04420920  0.65852800  0.35123400  1
  C  3043  1  0.03874320  0.65894700  0.32959500  1
  C  3044  1  0.05743620  0.65726900  0.31419100  1
  C  3045  1  0.08184420  0.65482100  0.32149500  1
  C  3046  1  0.08716420  0.65439200  0.34311500  1
  C  3047  1  0.09632220  0.67183500  0.38714100  1
  C  3048  1  0.05554020  0.66110700  0.39831600  1
  C  3049  1  0.04122720  0.67967800  0.39660000  1
  C  3050  1  0.02181520  0.68436500  0.41061800  1
  C  3051  1  0.01602720  0.67114600  0.42782800  1
  C  3052  1  0.03152520  0.65357700  0.43080300  1
  C  3053  1  0.05087720  0.64901800  0.41673000  1
  C  3054  1  0.11071600  0.67054900  0.40571500  1
  C  3055  1  0.12975300  0.68499000  0.41030000  1
  C  3056  1  0.13513300  0.70211700  0.39686500  1
  C  3057  1  0.11974700  0.70452200  0.37914600  1
  C  3058  1  0.10072300  0.69009600  0.37475600  1
  C  3075  1  0.99617600  0.67590800  0.44123600  1
  C  3076  1  0.09790120  0.56617100  0.38738400  1
  C  3079  1  0.05144520  0.65780100  0.29280600  1
  C  3081  1  0.15401700  0.71643800  0.40171300  1
  C  3083  1  0.34256100  0.15912900  0.15635900  1
  C  3084  1  0.36157600  0.16114700  0.14130900  1
  C  3085  1  0.35670100  0.15991600  0.11958100  1
  C  3086  1  0.33248800  0.15723100  0.11162600  1
  C  3087  1  0.31375700  0.15450400  0.12706100  1
  C  3088  1  0.31849700  0.15557000  0.14874000  1
  C  3089  1  0.32576200  0.15571100  0.08818200  1
  C  3090  1  0.31896300  0.13224900  0.08699800  1
  C  3091  1  0.29473200  0.12431100  0.08435800  1
  C  3092  1  0.28981500  0.10259100  0.08318600  1
  C  3093  1  0.30880000  0.08752100  0.08525200  1
  C  3094  1  0.33286200  0.09511700  0.08887800  1
  C  3095  1  0.33764300  0.11679800  0.08988800  1
  C  3096  1  0.34623300  0.16075800  0.07208900  1
  C  3097  1  0.30529800  0.17171300  0.08284100  1
  C  3098  1  0.29129400  0.17018400  0.06408000  1
  C  3099  1  0.27191800  0.18421500  0.05930000  1
  C  3100  1  0.26583600  0.20126700  0.07263000  1
  C  3101  1  0.28098400  0.20404600  0.09044800  1
  C  3102  1  0.30030100  0.18996500  0.09509000  1
  C  3103  1  0.36028100  0.17953500  0.07321300  1
  C  3104  1  0.37930900  0.18422100  0.05878700  1
  C  3105  1  0.38504000  0.17067700  0.04182900  1
  C  3106  1  0.37001400  0.15271600  0.03958300  1
  C  3107  1  0.35099400  0.14823400  0.05398000  1
  C  3124  1  0.24607300  0.21474100  0.06774900  1
  C  3125  1  0.34753900  0.16119600  0.17778000  1
  C  3128  1  0.30377000  0.06611400  0.08312100  1
  C  3130  1  0.40392400  0.17559500  0.02752300  1
  C  3132  1  0.84254100  0.35854000  0.81392400  1
  C  3133  1  0.86155800  0.35651200  0.82897200  1
  C  3134  1  0.85668900  0.35774900  0.85070100  1
  C  3135  1  0.83248000  0.36045800  0.85865900  1
  C  3136  1  0.81374400  0.36318100  0.84322600  1
  C  3137  1  0.81848000  0.36210500  0.82154600  1
  C  3138  1  0.82575700  0.36197200  0.88210300  1
  C  3139  1  0.81896200  0.38543500  0.88328500  1
  C  3140  1  0.79473600  0.39337300  0.88595300  1
  C  3141  1  0.78982100  0.41509300  0.88712400  1
  C  3142  1  0.80880600  0.43016100  0.88505300  1
  C  3143  1  0.83286800  0.42256400  0.88142700  1
  C  3144  1  0.83764600  0.40088400  0.88040300  1
  C  3145  1  0.84622600  0.35691700  0.89819800  1
  C  3146  1  0.80529300  0.34596900  0.88744100  1
  C  3147  1  0.79129300  0.34749400  0.90620500  1
  C  3148  1  0.77191700  0.33346300  0.91098300  1
  C  3149  1  0.76583300  0.31641100  0.89765100  1
  C  3150  1  0.78097700  0.31363800  0.87983000  1
  C  3151  1  0.80029500  0.32771900  0.87519100  1
  C  3152  1  0.86027600  0.33814100  0.89707000  1
  C  3153  1  0.87931300  0.33346100  0.91149100  1
  C  3154  1  0.88505100  0.34701100  0.92844400  1
  C  3155  1  0.87002200  0.36496900  0.93069300  1
  C  3156  1  0.85099800  0.36944800  0.91629800  1
  C  3173  1  0.74607600  0.30293500  0.90253500  1
  C  3174  1  0.84751600  0.35647400  0.79250300  1
  C  3177  1  0.80377800  0.45156800  0.88718400  1
  C  3179  1  0.90393200  0.34208900  0.94275400  1
  C  3181  1  0.80851200  0.58743300  0.58515100  1
  C  3182  1  0.78948400  0.60251600  0.58353900  1
  C  3183  1  0.79445900  0.62423200  0.58468100  1
  C  3184  1  0.81876900  0.63214500  0.58682000  1
  C  3185  1  0.83751000  0.61667100  0.58925700  1
  C  3186  1  0.83268000  0.59500000  0.58827600  1
  C  3187  1  0.82560600  0.65559900  0.58794300  1
  C  3188  1  0.83269100  0.65704600  0.61130700  1
  C  3189  1  0.85716900  0.65881500  0.61890500  1
  C  3190  1  0.86259800  0.65931400  0.64055300  1
  C  3191  1  0.84388500  0.65766400  0.65594500  1
  C  3192  1  0.81948100  0.65523800  0.64862500  1
  C  3193  1  0.81419500  0.65473100  0.62700500  1
  C  3194  1  0.80512900  0.67160400  0.58272300  1
  C  3195  1  0.84590600  0.66068300  0.57172600  1
  C  3196  1  0.86025000  0.67928100  0.57303100  1
  C  3197  1  0.87930600  0.68388900  0.55861500  1
  C  3198  1  0.88475100  0.67045000  0.54150800  1
  C  3199  1  0.86938600  0.65272400  0.53906500  1
  C  3200  1  0.85033700  0.64831300  0.55345800  1
  C  3201  1  0.79077800  0.66992700  0.56416900  1
  C  3202  1  0.77138300  0.68397600  0.55951300  1
  C  3203  1  0.76564900  0.70118900  0.57274400  1
  C  3204  1  0.78115000  0.70410100  0.59032200  1
  C  3205  1  0.80047500  0.68998900  0.59485800  1
  C  3222  1  0.90370800  0.67528000  0.52725600  1
  C  3223  1  0.80343600  0.56603300  0.58307600  1
  C  3226  1  0.84982800  0.65821500  0.67733800  1
  C  3228  1  0.74588100  0.71468700  0.56796300  1
  C  3230  1  0.30849100  0.93023800  0.38512500  1
  C  3231  1  0.28946700  0.91515200  0.38673700  1
  C  3232  1  0.29444500  0.89343700  0.38560300  1
  C  3233  1  0.31875700  0.88552800  0.38347400  1
  C  3234  1  0.33749600  0.90100500  0.38103500  1
  C  3235  1  0.33266300  0.92267400  0.38200900  1
  C  3236  1  0.32560000  0.86207600  0.38235100  1
  C  3237  1  0.33268900  0.86062800  0.35898600  1
  C  3238  1  0.35716700  0.85885900  0.35139200  1
  C  3239  1  0.36259900  0.85836300  0.32974400  1
  C  3240  1  0.34388800  0.86001200  0.31435000  1
  C  3241  1  0.31948400  0.86243600  0.32166700  1
  C  3242  1  0.31419500  0.86294300  0.34328800  1
  C  3243  1  0.30512500  0.84607000  0.38757000  1
  C  3244  1  0.34589900  0.85699200  0.39856900  1
  C  3245  1  0.36023800  0.83839000  0.39726900  1
  C  3246  1  0.37930100  0.83378600  0.41168100  1
  C  3247  1  0.38474300  0.84722600  0.42878900  1
  C  3248  1  0.36938100  0.86495500  0.43122900  1
  C  3249  1  0.35033100  0.86936200  0.41683600  1
  C  3250  1  0.29077000  0.84774800  0.40612400  1
  C  3251  1  0.27138300  0.83369700  0.41078700  1
  C  3252  1  0.26564800  0.81648200  0.39755600  1
  C  3253  1  0.28114100  0.81357400  0.37997100  1
  C  3254  1  0.30046500  0.82768700  0.37543600  1
  C  3271  1  0.40370300  0.84239800  0.44303800  1
  C  3272  1  0.30341200  0.95163800  0.38720500  1
  C  3275  1  0.34983200  0.85946600  0.29295800  1
  C  3277  1  0.24587500  0.80299100  0.40233500  1
  C  3279  1  0.05880220  0.35878300  0.15651200  1
  C  3280  1  0.03980520  0.35671100  0.14145600  1
  C  3281  1  0.04469820  0.35792700  0.11973400  1
  C  3282  1  0.06891520  0.36062100  0.11178500  1
  C  3283  1  0.08760620  0.36351200  0.12722600  1
  C  3284  1  0.08285020  0.36245200  0.14890700  1
  C  3285  1  0.07570420  0.36181900  0.08832100  1
  C  3286  1  0.08243320  0.38526600  0.08682000  1
  C  3287  1  0.10664300  0.39321600  0.08411700  1
  C  3288  1  0.11152400  0.41494400  0.08289400  1
  C  3289  1  0.09251420  0.42999800  0.08493200  1
  C  3290  1  0.06844920  0.42238200  0.08849300  1
  C  3291  1  0.06370420  0.40070200  0.08956100  1
  C  3292  1  0.05524020  0.35648500  0.07231600  1
  C  3293  1  0.09617320  0.34572500  0.08326500  1
  C  3294  1  0.11021700  0.34685700  0.06448600  1
  C  3295  1  0.12926600  0.33244800  0.05980800  1
  C  3296  1  0.13502100  0.31550000  0.07335900  1
  C  3297  1  0.11997700  0.31323200  0.09130600  1
  C  3298  1  0.10094700  0.32761900  0.09578900  1
  C  3299  1  0.04124620  0.33771800  0.07382900  1
  C  3300  1  0.02187520  0.33293900  0.05979100  1
  C  3301  1  0.01578520  0.34628100  0.04275000  1
  C  3302  1  0.03091220  0.36411600  0.03999700  1
  C  3303  1  0.05022320  0.36875800  0.05408400  1
  C  3320  1  0.15390700  0.30119800  0.06843700  1
  C  3321  1  0.05381020  0.35662000  0.17792000  1
  C  3324  1  0.09750420  0.45141900  0.08286800  1
  C  3326  1  0.99603800  0.34139400  0.02926300  1
  C  3328  1  0.55879900  0.15888900  0.81377800  1
  C  3329  1  0.53980400  0.16096700  0.82883400  1
  C  3330  1  0.54470000  0.15975300  0.85055700  1
  C  3331  1  0.56891600  0.15705500  0.85850500  1
  C  3332  1  0.58760600  0.15416600  0.84306100  1
  C  3333  1  0.58284600  0.15521300  0.82138200  1
  C  3334  1  0.57570700  0.15585700  0.88196700  1
  C  3335  1  0.58243600  0.13241100  0.88347100  1
  C  3336  1  0.60664800  0.12445900  0.88616900  1
  C  3337  1  0.61152800  0.10273100  0.88738700  1
  C  3338  1  0.59251600  0.08767800  0.88535300  1
  C  3339  1  0.56845200  0.09529500  0.88179300  1
  C  3340  1  0.56370900  0.11697500  0.88072600  1
  C  3341  1  0.55524800  0.16119300  0.89797500  1
  C  3342  1  0.59617800  0.17195000  0.88702200  1
  C  3343  1  0.61022500  0.17081600  0.90579800  1
  C  3344  1  0.62927000  0.18523000  0.91048200  1
  C  3345  1  0.63501800  0.20218100  0.89693200  1
  C  3346  1  0.61998200  0.20444400  0.87898100  1
  C  3347  1  0.60095400  0.19005600  0.87449700  1
  C  3348  1  0.54126300  0.17996600  0.89646500  1
  C  3349  1  0.52188000  0.18473700  0.91049200  1
  C  3350  1  0.51578100  0.17139300  0.92753000  1
  C  3351  1  0.53090900  0.15356000  0.93028800  1
  C  3352  1  0.55022200  0.14891700  0.91620400  1
  C  3369  1  0.65391100  0.21647900  0.90184900  1
  C  3370  1  0.55380600  0.16105000  0.79237000  1
  C  3373  1  0.59750500  0.06625700  0.88741700  1
  C  3375  1  0.49603300  0.17628400  0.94101400  1
  C  3377  1  0.18114200  0.27370000  0.39109500  1
  C  3379  1  0.20967900  0.25307700  0.37040100  1
  C  3380  1  0.21924900  0.24342700  0.38871000  1
  C  3382  1  0.19068000  0.26396500  0.40944200  1
  C  3383  1  0.18144300  0.26770000  0.42934200  1
  C  3384  1  0.21820600  0.24834400  0.35042700  1
  C  3393  1  0.68115300  0.24397300  0.57920300  1
  C  3395  1  0.70969400  0.26459600  0.59989700  1
  C  3396  1  0.71926600  0.27424300  0.58158600  1
  C  3398  1  0.69069600  0.25370300  0.56085500  1
  C  3399  1  0.68145700  0.24996700  0.54095700  1
  C  3400  1  0.71821900  0.26933200  0.61986900  1
  C  3409  1  0.43133000  0.85235200  0.00021100  1
  C  3411  1  0.45963200  0.87308000  0.97937500  1
  C  3412  1  0.46914200  0.85478400  0.96965600  1
  C  3414  1  0.44082300  0.83401800  0.99041300  1
  C  3415  1  0.43165900  0.81411100  0.99421500  1
  C  3416  1  0.46807700  0.89306600  0.97459000  1
  C  3425  1  0.93132100  0.66532700  0.97009300  1
  C  3427  1  0.95962000  0.64459800  0.99092900  1
  C  3428  1  0.96913500  0.66289300  0.00064600  1
  C  3430  1  0.94081800  0.68366000  0.97988700  1
  C  3431  1  0.93165800  0.70356800  0.97608200  1
  C  3432  1  0.96806000  0.62461200  0.99571700  1
  C  3441  1  0.71978000  0.74379500  0.57861200  1
  C  3443  1  0.69150200  0.76464500  0.59934600  1
  C  3444  1  0.68198900  0.77436100  0.58104900  1
  C  3446  1  0.71028500  0.75358900  0.56027900  1
  C  3447  1  0.71943900  0.74978000  0.54037000  1
  C  3448  1  0.68307100  0.76943900  0.61933400  1
  C  3457  1  0.21977200  0.77388400  0.39168800  1
  C  3459  1  0.19149400  0.75303400  0.37095600  1
  C  3460  1  0.18197500  0.74332200  0.38925200  1
  C  3462  1  0.21027400  0.76409400  0.41002100  1
  C  3463  1  0.21942400  0.76790600  0.42993200  1
  C  3464  1  0.18306500  0.74823600  0.35096800  1
  C  3473  1  0.46975100  0.16563900  0.97005600  1
  C  3475  1  0.44152800  0.14489300  0.99095600  1
  C  3476  1  0.43197800  0.16318600  0.00065200  1
  C  3478  1  0.46021500  0.18396900  0.97983000  1
  C  3479  1  0.46931500  0.20388800  0.97598300  1
  C  3480  1  0.43314300  0.12489800  0.99577700  1
  C  3489  1  0.96975800  0.35204100  0.00022100  1
  C  3491  1  0.94154100  0.37279000  0.97931800  1
  C  3492  1  0.93198800  0.35449700  0.96962400  1
  C  3494  1  0.96021800  0.33371100  0.99045000  1
  C  3495  1  0.96931300  0.31379200  0.99429900  1
  C  3496  1  0.93316200  0.39278600  0.97449300  1
  C  3505  1  0.68121800  0.77381200  0.89151200  1
  C  3507  1  0.70958900  0.75305900  0.87077100  1
  C  3508  1  0.71919800  0.74341200  0.88906900  1
  C  3510  1  0.69080800  0.76408500  0.90984500  1
  C  3511  1  0.68167000  0.76787700  0.92976400  1
  C  3512  1  0.71801300  0.74827100  0.85078000  1
  C  3521  1  0.18121900  0.74386800  0.07878300  1
  C  3523  1  0.20959800  0.76461800  0.09952300  1
  C  3524  1  0.21920300  0.77426700  0.08122500  1
  C  3526  1  0.19080600  0.75359900  0.06045000  1
  C  3527  1  0.18166200  0.74980900  0.04053300  1
  C  3528  1  0.21802900  0.76940000  0.11951300  1
  C  3537  1  0.93115400  0.35290200  0.50001800  1
  C  3539  1  0.95969900  0.37359500  0.47939400  1
  C  3540  1  0.96925000  0.35528600  0.46973000  1
  C  3542  1  0.94067800  0.33455600  0.49026900  1
  C  3543  1  0.93142800  0.31465900  0.49399600  1
  C  3544  1  0.96823500  0.39356700  0.47466900  1
  C  3553  1  0.43119400  0.16477200  0.47025100  1
  C  3555  1  0.45974900  0.14408000  0.49086500  1
  C  3556  1  0.46929000  0.16238800  0.50054200  1
  C  3558  1  0.44070700  0.18311700  0.48001100  1
  C  3559  1  0.43144400  0.20301100  0.47629600  1
  C  3560  1  0.46829600  0.12410900  0.49558100  1
  C  3569  1  0.21978300  0.24377500  0.07839400  1
  C  3571  1  0.19156200  0.26467100  0.09914400  1
  C  3572  1  0.18199000  0.27435100  0.08085000  1
  C  3574  1  0.21022600  0.25353200  0.06006400  1
  C  3575  1  0.21931400  0.24968000  0.04014400  1
  C  3576  1  0.18318800  0.26950200  0.11914100  1
  C  3585  1  0.71978400  0.27390300  0.89188700  1
  C  3587  1  0.69155200  0.25301300  0.87114100  1
  C  3588  1  0.68198900  0.24332800  0.88943400  1
  C  3590  1  0.71023400  0.26414100  0.91021900  1
  C  3591  1  0.71932900  0.26798800  0.93013700  1
  C  3592  1  0.68317000  0.24818900  0.85114500  1
  C  3601  1  0.96988700  0.66522900  0.47020200  1
  C  3603  1  0.94149000  0.64448500  0.49092200  1
  C  3604  1  0.93187900  0.66278200  0.50056700  1
  C  3606  1  0.96029900  0.68356200  0.47993100  1
  C  3607  1  0.96944900  0.70347900  0.47615900  1
  C  3608  1  0.93305100  0.62449200  0.49569300  1
  C  3617  1  0.46987900  0.85245300  0.50009600  1
  C  3619  1  0.44147800  0.87319600  0.47937800  1
  C  3620  1  0.43187100  0.85489900  0.46973000  1
  C  3622  1  0.46029500  0.83412000  0.49036600  1
  C  3623  1  0.46945000  0.81420500  0.49413600  1
  C  3624  1  0.43303600  0.89318600  0.47460800  1
  C  3633  1  0.33554300  0.15543300  0.25706400  1
  C  3635  1  0.32020400  0.13955700  0.22526600  1
  C  3636  1  0.33500200  0.15314800  0.21299700  1
  C  3638  1  0.35008100  0.16921300  0.24474400  1
  C  3639  1  0.36407000  0.18518900  0.25325100  1
  C  3640  1  0.30492300  0.12444100  0.21652200  1
  C  3649  1  0.83550200  0.36227400  0.71322400  1
  C  3651  1  0.82020400  0.37816100  0.74502900  1
  C  3652  1  0.83498100  0.36454500  0.75729100  1
  C  3654  1  0.85001300  0.34846800  0.72553600  1
  C  3655  1  0.86397100  0.33247800  0.71701600  1
  C  3656  1  0.80495800  0.39329700  0.75378100  1
  C  3665  1  0.58561700  0.98696100  0.88179000  1
  C  3667  1  0.57020600  0.01871300  0.86586100  1
  C  3668  1  0.58500800  0.03102700  0.87940600  1
  C  3670  1  0.60018400  0.99932300  0.89552100  1
  C  3671  1  0.61421900  0.99088900  0.91152300  1
  C  3672  1  0.55488200  0.02740600  0.85074800  1
  C  3681  1  0.08561520  0.53071600  0.08848200  1
  C  3683  1  0.07019020  0.49896500  0.10440500  1
  C  3684  1  0.08500420  0.48665000  0.09087100  1
  C  3686  1  0.10019400  0.51835200  0.07476100  1
  C  3687  1  0.11424200  0.52678400  0.05876700  1
  C  3688  1  0.05485220  0.49027500  0.11950900  1
  C  3697  1  0.06542920  0.36223200  0.25723800  1
  C  3699  1  0.08057720  0.37843800  0.22553800  1
  C  3700  1  0.06613420  0.36465400  0.21317900  1
  C  3702  1  0.05127620  0.34825300  0.24482600  1
  C  3703  1  0.03758920  0.33204800  0.25324300  1
  C  3704  1  0.09556220  0.39382000  0.21688800  1
  C  3713  1  0.56543700  0.15544100  0.71305200  1
  C  3715  1  0.58058300  0.13923800  0.74475400  1
  C  3716  1  0.56613400  0.15302100  0.75711100  1
  C  3718  1  0.55127900  0.16941900  0.72546200  1
  C  3719  1  0.53758800  0.18562000  0.71704200  1
  C  3720  1  0.59557100  0.12386000  0.75340500  1
  C  3729  1  0.81531800  0.53090700  0.88188500  1
  C  3731  1  0.83086600  0.49927300  0.86581200  1
  C  3732  1  0.81615000  0.48685100  0.87932700  1
  C  3734  1  0.80083900  0.51843900  0.89558800  1
  C  3735  1  0.78679000  0.52675100  0.91164300  1
  C  3736  1  0.84620400  0.49069200  0.85064700  1
  C  3745  1  0.31531400  0.98677600  0.08841100  1
  C  3747  1  0.33087100  0.01840900  0.10447800  1
  C  3748  1  0.31614700  0.03083000  0.09097100  1
  C  3750  1  0.30082600  0.99924500  0.07471600  1
  C  3751  1  0.28676700  0.99093200  0.05866500  1
  C  3752  1  0.34621800  0.02698900  0.11963700  1
  C  3761  1  0.56527100  0.86207900  0.71318700  1
  C  3763  1  0.58097700  0.87778300  0.74494500  1
  C  3764  1  0.56586500  0.86448000  0.75724700  1
  C  3766  1  0.55039500  0.84857300  0.72553400  1
  C  3767  1  0.53604300  0.83276800  0.71709800  1
  C  3768  1  0.59661800  0.89265500  0.75364300  1
  C  3777  1  0.06526920  0.65560000  0.25710500  1
  C  3779  1  0.08095720  0.63988800  0.22534300  1
  C  3780  1  0.06586020  0.65320400  0.21304300  1
  C  3782  1  0.05040720  0.66911800  0.24475700  1
  C  3783  1  0.03607620  0.68493400  0.25319800  1
  C  3784  1  0.09657820  0.62500400  0.21664200  1
  C  3793  1  0.83592500  0.65565800  0.71301200  1
  C  3795  1  0.82026700  0.63970300  0.74466500  1
  C  3796  1  0.83515200  0.65309900  0.75706700  1
  C  3798  1  0.85056900  0.66925000  0.72546200  1
  C  3799  1  0.86475700  0.68520800  0.71712900  1
  C  3800  1  0.80477800  0.62465700  0.75326300  1
  C  3809  1  0.33593200  0.86202100  0.25728200  1
  C  3811  1  0.32027200  0.87797500  0.22563000  1
  C  3812  1  0.33516100  0.86458000  0.21322900  1
  C  3814  1  0.35057600  0.84842900  0.24483200  1
  C  3815  1  0.36476600  0.83247000  0.25316500  1
  C  3816  1  0.30478500  0.89302000  0.21703200  1
  C  3825  1  0.08567720  0.48689300  0.38179300  1
  C  3827  1  0.07027820  0.51870700  0.36599600  1
  C  3828  1  0.08519520  0.53095800  0.37950900  1
  C  3830  1  0.10032100  0.49919600  0.39550500  1
  C  3831  1  0.11439300  0.49066800  0.41141800  1
  C  3832  1  0.05490520  0.52746600  0.35095800  1
  C  3841  1  0.58566200  0.03078700  0.58851800  1
  C  3843  1  0.57042400  0.99896600  0.60441000  1
  C  3844  1  0.58521000  0.98672300  0.59078500  1
  C  3846  1  0.60016000  0.01849100  0.57469100  1
  C  3847  1  0.61407700  0.02703200  0.55869200  1
  C  3848  1  0.55520200  0.99019700  0.61955400  1
  C  3857  1  0.31522900  0.03095900  0.38185000  1
  C  3859  1  0.33057200  0.99926100  0.36577900  1
  C  3860  1  0.31592100  0.98690300  0.37940400  1
  C  3862  1  0.30086600  0.01854700  0.39567700  1
  C  3863  1  0.28698200  0.02696100  0.41176400  1
  C  3864  1  0.34576900  0.99061100  0.35054700  1
  C  3873  1  0.81526800  0.48671600  0.58848100  1
  C  3875  1  0.83053600  0.51842400  0.60458400  1
  C  3876  1  0.81593800  0.53077300  0.59090900  1
  C  3878  1  0.80096800  0.49911900  0.57460100  1
  C  3879  1  0.78715000  0.49069000  0.55848200  1
  C  3880  1  0.84566500  0.52708400  0.61985800  1
  C  3889  1  0.52802300  0.08798900  0.38380100  1
  C  3890  1  0.50919800  0.10335900  0.38438500  1
  C  3891  1  0.51462500  0.12501100  0.38401000  1
  C  3892  1  0.53917400  0.13263000  0.38352200  1
  C  3893  1  0.55781600  0.11694900  0.38217700  1
  C  3894  1  0.55254000  0.09532600  0.38256100  1
  C  3895  1  0.54622100  0.15599700  0.38215500  1
  C  3896  1  0.55326100  0.15701000  0.35875400  1
  C  3897  1  0.57780900  0.15741000  0.35111600  1
  C  3898  1  0.58322700  0.15768900  0.32946500  1
  C  3899  1  0.56439400  0.15709100  0.31410600  1
  C  3900  1  0.53988300  0.15584700  0.32145800  1
  C  3901  1  0.53461600  0.15554000  0.34308900  1
  C  3902  1  0.52595800  0.17221400  0.38720000  1
  C  3903  1  0.56654900  0.16129000  0.39823400  1
  C  3904  1  0.58182800  0.17922600  0.39596900  1
  C  3905  1  0.60130700  0.18367100  0.40998700  1
  C  3906  1  0.60617100  0.17089500  0.42773100  1
  C  3907  1  0.58968700  0.15408200  0.43122500  1
  C  3908  1  0.57027600  0.14974200  0.41713100  1
  C  3909  1  0.51069600  0.17037400  0.40520700  1
  C  3910  1  0.49159400  0.18479900  0.40962100  1
  C  3911  1  0.48706700  0.20243100  0.39662400  1
  C  3912  1  0.50338900  0.20539500  0.37960900  1
  C  3913  1  0.52247500  0.19097200  0.37537800  1
  C  3930  1  0.62608800  0.17542900  0.44114300  1
  C  3931  1  0.52211700  0.06659000  0.38428600  1
  C  3934  1  0.57030900  0.15756500  0.29270800  1
  C  3936  1  0.46806300  0.21667200  0.40130300  1
  C  3938  1  0.02805230  0.42969100  0.58653300  1
  C  3939  1  0.00921727  0.41432800  0.58603900  1
  C  3940  1  0.01463730  0.39267500  0.58638200  1
  C  3941  1  0.03918630  0.38504400  0.58675700  1
  C  3942  1  0.05783930  0.40072100  0.58804200  1
  C  3943  1  0.05257230  0.42234600  0.58767000  1
  C  3944  1  0.04621830  0.36167700  0.58813100  1
  C  3945  1  0.05324130  0.36066000  0.61153200  1
  C  3946  1  0.07778730  0.36038000  0.61917900  1
  C  3947  1  0.08320230  0.36011800  0.64083200  1
  C  3948  1  0.06435930  0.36062800  0.65618500  1
  C  3949  1  0.03984330  0.36177400  0.64882600  1
  C  3950  1  0.03458530  0.36206600  0.62719300  1
  C  3951  1  0.02595030  0.34546900  0.58307900  1
  C  3952  1  0.06654630  0.35637700  0.57206000  1
  C  3953  1  0.08189730  0.33849100  0.57437400  1
  C  3954  1  0.10137200  0.33404900  0.56034900  1
  C  3955  1  0.10615700  0.34677500  0.54255400  1
  C  3956  1  0.08959230  0.36352000  0.53900800  1
  C  3957  1  0.07018230  0.36785300  0.55310600  1
  C  3958  1  0.01061730  0.34735400  0.56512100  1
  C  3959  1  0.99151600  0.33293000  0.56071300  1
  C  3960  1  0.98706900  0.31524600  0.57365800  1
  C  3961  1  0.00347827  0.31222700  0.59060400  1
  C  3962  1  0.02256030  0.32665300  0.59483000  1
  C  3979  1  0.12607400  0.34225100  0.52914000  1
  C  3980  1  0.02215530  0.45109100  0.58605900  1
  C  3983  1  0.07026930  0.36016000  0.67758400  1
  C  3985  1  0.96805900  0.30100900  0.56898900  1
  C  3987  1  0.77906000  0.85870800  0.81389600  1
  C  3988  1  0.76002300  0.85715200  0.82898200  1
  C  3989  1  0.76499300  0.85828600  0.85070200  1
  C  3990  1  0.78930600  0.86039000  0.85861300  1
  C  3991  1  0.80807300  0.86267200  0.84313800  1
  C  3992  1  0.80324800  0.86169400  0.82146900  1
  C  3993  1  0.79610100  0.86184700  0.88204400  1
  C  3994  1  0.80320300  0.88523900  0.88316200  1
  C  3995  1  0.82768400  0.89286000  0.88481800  1
  C  3996  1  0.83310500  0.91450900  0.88524900  1
  C  3997  1  0.81438000  0.92988700  0.88359500  1
  C  3998  1  0.78998500  0.92254900  0.88115300  1
  C  3999  1  0.78471000  0.90092000  0.88071500  1
  C  4000  1  0.77564300  0.85689400  0.89815400  1
  C  4001  1  0.81642800  0.84574400  0.88740000  1
  C  4002  1  0.83078100  0.84747500  0.90594700  1
  C  4003  1  0.85019200  0.83345200  0.91062600  1
  C  4004  1  0.85595000  0.81622300  0.89742000  1
  C  4005  1  0.84042000  0.81323900  0.87987300  1
  C  4006  1  0.82106500  0.82731500  0.87532500  1
  C  4007  1  0.76123000  0.83833200  0.89685700  1
  C  4008  1  0.74219600  0.83374600  0.91130300  1
  C  4009  1  0.73684000  0.84716500  0.92844700  1
  C  4010  1  0.75224200  0.86487400  0.93085800  1
  C  4011  1  0.77126500  0.86926400  0.91643000  1
  C  4028  1  0.87579700  0.80280400  0.90217900  1
  C  4029  1  0.77397700  0.85674800  0.79248200  1
  C  4032  1  0.82031600  0.95128200  0.88416700  1
  C  4034  1  0.71794600  0.84232500  0.94276300  1
  C  4036  1  0.27906400  0.65898900  0.15639500  1
  C  4037  1  0.26002900  0.66055900  0.14130800  1
  C  4038  1  0.26500000  0.65941600  0.11958800  1
  C  4039  1  0.28931000  0.65728100  0.11168000  1
  C  4040  1  0.30807700  0.65500100  0.12715500  1
  C  4041  1  0.30325100  0.65598800  0.14882300  1
  C  4042  1  0.29610300  0.65583100  0.08824800  1
  C  4043  1  0.30320300  0.63243800  0.08713500  1
  C  4044  1  0.32767900  0.62481700  0.08543700  1
  C  4045  1  0.33310100  0.60316800  0.08501000  1
  C  4046  1  0.31437700  0.58779000  0.08667800  1
  C  4047  1  0.28998400  0.59512900  0.08913200  1
  C  4048  1  0.28470900  0.61675700  0.08957700  1
  C  4049  1  0.27565000  0.66079200  0.07213600  1
  C  4050  1  0.31643400  0.67193300  0.08289700  1
  C  4051  1  0.33077700  0.67021100  0.06434300  1
  C  4052  1  0.35018900  0.68423400  0.05966600  1
  C  4053  1  0.35595300  0.70145700  0.07287700  1
  C  4054  1  0.34043300  0.70443400  0.09043100  1
  C  4055  1  0.32107600  0.69035700  0.09497800  1
  C  4056  1  0.26124000  0.67935500  0.07343100  1
  C  4057  1  0.24219900  0.68393600  0.05898900  1
  C  4058  1  0.23683600  0.67051100  0.04185100  1
  C  4059  1  0.25223100  0.65279600  0.03944500  1
  C  4060  1  0.27125600  0.64840900  0.05387200  1
  C  4077  1  0.37579500  0.71488100  0.06811400  1
  C  4078  1  0.27398300  0.66095500  0.17780900  1
  C  4081  1  0.32031400  0.56639600  0.08610600  1
  C  4083  1  0.21794000  0.67535100  0.02753700  1
  C  4085  1  0.31445900  0.42984600  0.38338900  1
  C  4086  1  0.33327600  0.41446900  0.38392700  1
  C  4087  1  0.32782800  0.39282400  0.38365100  1
  C  4088  1  0.30327000  0.38520800  0.38331100  1
  C  4089  1  0.28463900  0.40089000  0.38190400  1
  C  4090  1  0.28993400  0.42251500  0.38220800  1
  C  4091  1  0.29621500  0.36181300  0.38229000  1
  C  4092  1  0.28922200  0.36046100  0.35891200  1
  C  4093  1  0.26468300  0.36005800  0.35125800  1
  C  4094  1  0.25929700  0.35971500  0.32959700  1
  C  4095  1  0.27815300  0.36021800  0.31425300  1
  C  4096  1  0.30266200  0.36136200  0.32162500  1
  C  4097  1  0.30789800  0.36173000  0.34325600  1
  C  4098  1  0.31651900  0.34572500  0.38760800  1
  C  4099  1  0.27592700  0.35677900  0.39848500  1
  C  4100  1  0.26057600  0.33883300  0.39658600  1
  C  4101  1  0.24147400  0.33442400  0.41101100  1
  C  4102  1  0.23702900  0.34736500  0.42870000  1
  C  4103  1  0.25343800  0.36431300  0.43171700  1
  C  4104  1  0.27252700  0.36853400  0.41729600  1
  C  4105  1  0.33183100  0.34801600  0.40552100  1
  C  4106  1  0.35131600  0.33400100  0.40995800  1
  C  4107  1  0.35612800  0.31622300  0.39721600  1
  C  4108  1  0.33958500  0.31268800  0.38045400  1
  C  4109  1  0.32017900  0.32678800  0.37611200  1
  C  4126  1  0.21802100  0.34269800  0.44293900  1
  C  4127  1  0.32040600  0.45123700  0.38384600  1
  C  4130  1  0.27229200  0.35972900  0.29284700  1
  C  4132  1  0.37604500  0.30281100  0.40174800  1
  C  4134  1  0.81444600  0.08782900  0.58689900  1
  C  4135  1  0.83327100  0.10319800  0.58640500  1
  C  4136  1  0.82783300  0.12484600  0.58668100  1
  C  4137  1  0.80327800  0.13246900  0.58698200  1
  C  4138  1  0.78463500  0.11679300  0.58836500  1
  C  4139  1  0.78992100  0.09516600  0.58805200  1
  C  4140  1  0.79622900  0.15586400  0.58800200  1
  C  4141  1  0.78923400  0.15721700  0.61137800  1
  C  4142  1  0.76469500  0.15759000  0.61903200  1
  C  4143  1  0.75930600  0.15792700  0.64069100  1
  C  4144  1  0.77816400  0.15745200  0.65603600  1
  C  4145  1  0.80267500  0.15633900  0.64866500  1
  C  4146  1  0.80791300  0.15597200  0.62703500  1
  C  4147  1  0.81653500  0.17194900  0.58268200  1
  C  4148  1  0.77594600  0.16090400  0.57180300  1
  C  4149  1  0.76057500  0.17883600  0.57371200  1
  C  4150  1  0.74146700  0.18323500  0.55928900  1
  C  4151  1  0.73705500  0.17031100  0.54158300  1
  C  4152  1  0.75349000  0.15338600  0.53855000  1
  C  4153  1  0.77257500  0.14916600  0.55297600  1
  C  4154  1  0.83188300  0.16963400  0.56479600  1
  C  4155  1  0.85135900  0.18365500  0.56035400  1
  C  4156  1  0.85614400  0.20145000  0.57307900  1
  C  4157  1  0.83957700  0.20500100  0.58982100  1
  C  4158  1  0.82016800  0.19090300  0.59415600  1
  C  4175  1  0.71804100  0.17497400  0.52734700  1
  C  4176  1  0.82038200  0.06643700  0.58641900  1
  C  4179  1  0.77229900  0.15793500  0.67744200  1
  C  4181  1  0.87607000  0.21485700  0.56855700  1
  C  4183  1  0.06345930  0.65871300  0.81374600  1
  C  4184  1  0.08247630  0.66032600  0.82884200  1
  C  4185  1  0.07748530  0.65921500  0.85055500  1
  C  4186  1  0.05316830  0.65711000  0.85845800  1
  C  4187  1  0.03443630  0.65466200  0.84297600  1
  C  4188  1  0.03928230  0.65561600  0.82130600  1
  C  4189  1  0.04631830  0.65599100  0.88190800  1
  C  4190  1  0.03926230  0.63261800  0.88335400  1
  C  4191  1  0.01479330  0.62499600  0.88510900  1
  C  4192  1  0.00939727  0.60334100  0.88561900  1
  C  4193  1  0.02813330  0.58796700  0.88397400  1
  C  4194  1  0.05252730  0.59531200  0.88155400  1
  C  4195  1  0.05778030  0.61693900  0.88104700  1
  C  4196  1  0.06678530  0.66122100  0.89792100  1
  C  4197  1  0.02600330  0.67220300  0.88697900  1
  C  4198  1  0.01164230  0.67089700  0.90556900  1
  C  4199  1  0.99257600  0.68531000  0.91016100  1
  C  4200  1  0.98714300  0.70242200  0.89672300  1
  C  4201  1  0.00253627  0.70487300  0.87901600  1
  C  4202  1  0.02158430  0.69047500  0.87461400  1
  C  4203  1  0.08114630  0.67977100  0.89623900  1
  C  4204  1  0.10054600  0.68442300  0.91028100  1
  C  4205  1  0.10627100  0.67120100  0.92750500  1
  C  4206  1  0.09076030  0.65363000  0.93042300  1
  C  4207  1  0.07143230  0.64909600  0.91631400  1
  C  4224  1  0.96819400  0.71668600  0.90155700  1
  C  4225  1  0.06856330  0.66076300  0.79234700  1
  C  4228  1  0.02222930  0.56656700  0.88454500  1
  C  4230  1  0.12604800  0.67597700  0.94099400  1
  C  4232  1  0.56346600  0.85896900  0.15654700  1
  C  4233  1  0.58248100  0.85735200  0.14145000  1
  C  4234  1  0.57748800  0.85846000  0.11973700  1
  C  4235  1  0.55317100  0.86057200  0.11183600  1
  C  4236  1  0.53444100  0.86301800  0.12732000  1
  C  4237  1  0.53929000  0.86207200  0.14898900  1
  C  4238  1  0.54631900  0.86169100  0.08838600  1
  C  4239  1  0.53925500  0.88506400  0.08693800  1
  C  4240  1  0.51478900  0.89268600  0.08518700  1
  C  4241  1  0.50939100  0.91434100  0.08468300  1
  C  4242  1  0.52812800  0.92971500  0.08632600  1
  C  4243  1  0.55252100  0.92237000  0.08874700  1
  C  4244  1  0.55777600  0.90074100  0.08925200  1
  C  4245  1  0.56678100  0.85646200  0.07237000  1
  C  4246  1  0.52600100  0.84548000  0.08331600  1
  C  4247  1  0.51163800  0.84678700  0.06472700  1
  C  4248  1  0.49258100  0.83236700  0.06012900  1
  C  4249  1  0.48714800  0.81525400  0.07356600  1
  C  4250  1  0.50252400  0.81281700  0.09128600  1
  C  4251  1  0.52157800  0.82721200  0.09568500  1
  C  4252  1  0.58113600  0.83791000  0.07405300  1
  C  4253  1  0.60054000  0.83325600  0.06001300  1
  C  4254  1  0.60627600  0.84648400  0.04279600  1
  C  4255  1  0.59077100  0.86405800  0.03987600  1
  C  4256  1  0.57143900  0.86859200  0.05398200  1
  C  4273  1  0.46819700  0.80099300  0.06873600  1
  C  4274  1  0.56857300  0.85692200  0.17794700  1
  C  4277  1  0.52222400  0.95111500  0.08575600  1
  C  4279  1  0.62605100  0.84170200  0.02930400  1
  C  4281  1  0.81368300  0.93009900  0.58485400  1
  C  4282  1  0.83273300  0.91502600  0.58328200  1
  C  4283  1  0.82778800  0.89330600  0.58447000  1
  C  4284  1  0.80348700  0.88538200  0.58662900  1
  C  4285  1  0.78470800  0.90084700  0.58891600  1
  C  4286  1  0.78950900  0.92251600  0.58789300  1
  C  4287  1  0.79670300  0.86194900  0.58808800  1
  C  4288  1  0.78955700  0.86083200  0.61147100  1
  C  4289  1  0.76506400  0.85913200  0.61905400  1
  C  4290  1  0.75959800  0.85871000  0.64069400  1
  C  4291  1  0.77828700  0.86041000  0.65609900  1
  C  4292  1  0.80269400  0.86287500  0.64879700  1
  C  4293  1  0.80801500  0.86330700  0.62717500  1
  C  4294  1  0.81717400  0.84584400  0.58314900  1
  C  4295  1  0.77640000  0.85657200  0.57196900  1
  C  4296  1  0.76209200  0.83799900  0.57368400  1
  C  4297  1  0.74267400  0.83331400  0.55967200  1
  C  4298  1  0.73687200  0.84653900  0.54247000  1
  C  4299  1  0.75235800  0.86411800  0.53949900  1
  C  4300  1  0.77171400  0.86867700  0.55356900  1
  C  4301  1  0.83156900  0.84713000  0.56457600  1
  C  4302  1  0.85060600  0.83268700  0.55999400  1
  C  4303  1  0.85600000  0.81557200  0.57343900  1
  C  4304  1  0.84063200  0.81318200  0.59117300  1
  C  4305  1  0.82160200  0.82760500  0.59555800  1
  C  4322  1  0.71701900  0.84177700  0.52906300  1
  C  4323  1  0.81872400  0.95151200  0.58284500  1
  C  4326  1  0.77229700  0.85988300  0.67748200  1
  C  4328  1  0.87488100  0.80124800  0.56859000  1
  C  4330  1  0.31369700  0.58758600  0.38539500  1
  C  4331  1  0.33274400  0.60266200  0.38695100  1
  C  4332  1  0.32779000  0.62438300  0.38578800  1
  C  4333  1  0.30348500  0.63230300  0.38366100  1
  C  4334  1  0.28470900  0.61683500  0.38137600  1
  C  4335  1  0.28951600  0.59516600  0.38238200  1
  C  4336  1  0.29669800  0.65573700  0.38220200  1
  C  4337  1  0.28955500  0.65686000  0.35882100  1
  C  4338  1  0.26505900  0.65852800  0.35123400  1
  C  4339  1  0.25959300  0.65894700  0.32959500  1
  C  4340  1  0.27828600  0.65726900  0.31419100  1
  C  4341  1  0.30269400  0.65482100  0.32149500  1
  C  4342  1  0.30801400  0.65439200  0.34311500  1
  C  4343  1  0.31717200  0.67183500  0.38714100  1
  C  4344  1  0.27639000  0.66110700  0.39831600  1
  C  4345  1  0.26207700  0.67967800  0.39660000  1
  C  4346  1  0.24266500  0.68436500  0.41061800  1
  C  4347  1  0.23687700  0.67114600  0.42782800  1
  C  4348  1  0.25237500  0.65357700  0.43080300  1
  C  4349  1  0.27172700  0.64901800  0.41673000  1
  C  4350  1  0.33156600  0.67054900  0.40571500  1
  C  4351  1  0.35060300  0.68499000  0.41030000  1
  C  4352  1  0.35598300  0.70211700  0.39686500  1
  C  4353  1  0.34059700  0.70452200  0.37914600  1
  C  4354  1  0.32157300  0.69009600  0.37475600  1
  C  4371  1  0.21702600  0.67590800  0.44123600  1
  C  4372  1  0.31875100  0.56617100  0.38738400  1
  C  4375  1  0.27229500  0.65780100  0.29280600  1
  C  4377  1  0.37486700  0.71643800  0.40171300  1
  C  4379  1  0.56341100  0.15912900  0.15635900  1
  C  4380  1  0.58242600  0.16114700  0.14130900  1
  C  4381  1  0.57755100  0.15991600  0.11958100  1
  C  4382  1  0.55333800  0.15723100  0.11162600  1
  C  4383  1  0.53460700  0.15450400  0.12706100  1
  C  4384  1  0.53934700  0.15557000  0.14874000  1
  C  4385  1  0.54661200  0.15571100  0.08818200  1
  C  4386  1  0.53981300  0.13224900  0.08699800  1
  C  4387  1  0.51558200  0.12431100  0.08435800  1
  C  4388  1  0.51066500  0.10259100  0.08318600  1
  C  4389  1  0.52965000  0.08752100  0.08525200  1
  C  4390  1  0.55371200  0.09511700  0.08887800  1
  C  4391  1  0.55849300  0.11679800  0.08988800  1
  C  4392  1  0.56708300  0.16075800  0.07208900  1
  C  4393  1  0.52614800  0.17171300  0.08284100  1
  C  4394  1  0.51214400  0.17018400  0.06408000  1
  C  4395  1  0.49276800  0.18421500  0.05930000  1
  C  4396  1  0.48668600  0.20126700  0.07263000  1
  C  4397  1  0.50183400  0.20404600  0.09044800  1
  C  4398  1  0.52115100  0.18996500  0.09509000  1
  C  4399  1  0.58113100  0.17953500  0.07321300  1
  C  4400  1  0.60015900  0.18422100  0.05878700  1
  C  4401  1  0.60589000  0.17067700  0.04182900  1
  C  4402  1  0.59086400  0.15271600  0.03958300  1
  C  4403  1  0.57184400  0.14823400  0.05398000  1
  C  4420  1  0.46692300  0.21474100  0.06774900  1
  C  4421  1  0.56838900  0.16119600  0.17778000  1
  C  4424  1  0.52462000  0.06611400  0.08312100  1
  C  4426  1  0.62477400  0.17559500  0.02752300  1
  C  4428  1  0.06339130  0.35854000  0.81392400  1
  C  4429  1  0.08240830  0.35651200  0.82897200  1
  C  4430  1  0.07753930  0.35774900  0.85070100  1
  C  4431  1  0.05333030  0.36045800  0.85865900  1
  C  4432  1  0.03459430  0.36318100  0.84322600  1
  C  4433  1  0.03933030  0.36210500  0.82154600  1
  C  4434  1  0.04660730  0.36197200  0.88210300  1
  C  4435  1  0.03981230  0.38543500  0.88328500  1
  C  4436  1  0.01558630  0.39337300  0.88595300  1
  C  4437  1  0.01067130  0.41509300  0.88712400  1
  C  4438  1  0.02965630  0.43016100  0.88505300  1
  C  4439  1  0.05371830  0.42256400  0.88142700  1
  C  4440  1  0.05849630  0.40088400  0.88040300  1
  C  4441  1  0.06707630  0.35691700  0.89819800  1
  C  4442  1  0.02614330  0.34596900  0.88744100  1
  C  4443  1  0.01214330  0.34749400  0.90620500  1
  C  4444  1  0.99276700  0.33346300  0.91098300  1
  C  4445  1  0.98668300  0.31641100  0.89765100  1
  C  4446  1  0.00182727  0.31363800  0.87983000  1
  C  4447  1  0.02114530  0.32771900  0.87519100  1
  C  4448  1  0.08112630  0.33814100  0.89707000  1
  C  4449  1  0.10016300  0.33346100  0.91149100  1
  C  4450  1  0.10590100  0.34701100  0.92844400  1
  C  4451  1  0.09087230  0.36496900  0.93069300  1
  C  4452  1  0.07184830  0.36944800  0.91629800  1
  C  4469  1  0.96692600  0.30293500  0.90253500  1
  C  4470  1  0.06836630  0.35647400  0.79250300  1
  C  4473  1  0.02462830  0.45156800  0.88718400  1
  C  4475  1  0.12478200  0.34208900  0.94275400  1
  C  4477  1  0.02936230  0.58743300  0.58515100  1
  C  4478  1  0.01033430  0.60251600  0.58353900  1
  C  4479  1  0.01530930  0.62423200  0.58468100  1
  C  4480  1  0.03961930  0.63214500  0.58682000  1
  C  4481  1  0.05836030  0.61667100  0.58925700  1
  C  4482  1  0.05353030  0.59500000  0.58827600  1
  C  4483  1  0.04645630  0.65559900  0.58794300  1
  C  4484  1  0.05354130  0.65704600  0.61130700  1
  C  4485  1  0.07801930  0.65881500  0.61890500  1
  C  4486  1  0.08344830  0.65931400  0.64055300  1
  C  4487  1  0.06473530  0.65766400  0.65594500  1
  C  4488  1  0.04033130  0.65523800  0.64862500  1
  C  4489  1  0.03504530  0.65473100  0.62700500  1
  C  4490  1  0.02597930  0.67160400  0.58272300  1
  C  4491  1  0.06675630  0.66068300  0.57172600  1
  C  4492  1  0.08110030  0.67928100  0.57303100  1
  C  4493  1  0.10015600  0.68388900  0.55861500  1
  C  4494  1  0.10560100  0.67045000  0.54150800  1
  C  4495  1  0.09023630  0.65272400  0.53906500  1
  C  4496  1  0.07118730  0.64831300  0.55345800  1
  C  4497  1  0.01162830  0.66992700  0.56416900  1
  C  4498  1  0.99223300  0.68397600  0.55951300  1
  C  4499  1  0.98649900  0.70118900  0.57274400  1
  C  4500  1  0.00200027  0.70410100  0.59032200  1
  C  4501  1  0.02132530  0.68998900  0.59485800  1
  C  4518  1  0.12455800  0.67528000  0.52725600  1
  C  4519  1  0.02428630  0.56603300  0.58307600  1
  C  4522  1  0.07067830  0.65821500  0.67733800  1
  C  4524  1  0.96673100  0.71468700  0.56796300  1
  C  4526  1  0.52934100  0.93023800  0.38512500  1
  C  4527  1  0.51031700  0.91515200  0.38673700  1
  C  4528  1  0.51529500  0.89343700  0.38560300  1
  C  4529  1  0.53960700  0.88552800  0.38347400  1
  C  4530  1  0.55834600  0.90100500  0.38103500  1
  C  4531  1  0.55351300  0.92267400  0.38200900  1
  C  4532  1  0.54645000  0.86207600  0.38235100  1
  C  4533  1  0.55353900  0.86062800  0.35898600  1
  C  4534  1  0.57801700  0.85885900  0.35139200  1
  C  4535  1  0.58344900  0.85836300  0.32974400  1
  C  4536  1  0.56473800  0.86001200  0.31435000  1
  C  4537  1  0.54033400  0.86243600  0.32166700  1
  C  4538  1  0.53504500  0.86294300  0.34328800  1
  C  4539  1  0.52597500  0.84607000  0.38757000  1
  C  4540  1  0.56674900  0.85699200  0.39856900  1
  C  4541  1  0.58108800  0.83839000  0.39726900  1
  C  4542  1  0.60015100  0.83378600  0.41168100  1
  C  4543  1  0.60559300  0.84722600  0.42878900  1
  C  4544  1  0.59023100  0.86495500  0.43122900  1
  C  4545  1  0.57118100  0.86936200  0.41683600  1
  C  4546  1  0.51162000  0.84774800  0.40612400  1
  C  4547  1  0.49223300  0.83369700  0.41078700  1
  C  4548  1  0.48649800  0.81648200  0.39755600  1
  C  4549  1  0.50199100  0.81357400  0.37997100  1
  C  4550  1  0.52131500  0.82768700  0.37543600  1
  C  4567  1  0.62455300  0.84239800  0.44303800  1
  C  4568  1  0.52426200  0.95163800  0.38720500  1
  C  4571  1  0.57068200  0.85946600  0.29295800  1
  C  4573  1  0.46672500  0.80299100  0.40233500  1
  C  4575  1  0.27965200  0.35878300  0.15651200  1
  C  4576  1  0.26065500  0.35671100  0.14145600  1
  C  4577  1  0.26554800  0.35792700  0.11973400  1
  C  4578  1  0.28976500  0.36062100  0.11178500  1
  C  4579  1  0.30845600  0.36351200  0.12722600  1
  C  4580  1  0.30370000  0.36245200  0.14890700  1
  C  4581  1  0.29655400  0.36181900  0.08832100  1
  C  4582  1  0.30328300  0.38526600  0.08682000  1
  C  4583  1  0.32749300  0.39321600  0.08411700  1
  C  4584  1  0.33237400  0.41494400  0.08289400  1
  C  4585  1  0.31336400  0.42999800  0.08493200  1
  C  4586  1  0.28929900  0.42238200  0.08849300  1
  C  4587  1  0.28455400  0.40070200  0.08956100  1
  C  4588  1  0.27609000  0.35648500  0.07231600  1
  C  4589  1  0.31702300  0.34572500  0.08326500  1
  C  4590  1  0.33106700  0.34685700  0.06448600  1
  C  4591  1  0.35011600  0.33244800  0.05980800  1
  C  4592  1  0.35587100  0.31550000  0.07335900  1
  C  4593  1  0.34082700  0.31323200  0.09130600  1
  C  4594  1  0.32179700  0.32761900  0.09578900  1
  C  4595  1  0.26209600  0.33771800  0.07382900  1
  C  4596  1  0.24272500  0.33293900  0.05979100  1
  C  4597  1  0.23663500  0.34628100  0.04275000  1
  C  4598  1  0.25176200  0.36411600  0.03999700  1
  C  4599  1  0.27107300  0.36875800  0.05408400  1
  C  4616  1  0.37475700  0.30119800  0.06843700  1
  C  4617  1  0.27466000  0.35662000  0.17792000  1
  C  4620  1  0.31835400  0.45141900  0.08286800  1
  C  4622  1  0.21688800  0.34139400  0.02926300  1
  C  4624  1  0.77964900  0.15888900  0.81377800  1
  C  4625  1  0.76065400  0.16096700  0.82883400  1
  C  4626  1  0.76555000  0.15975300  0.85055700  1
  C  4627  1  0.78976600  0.15705500  0.85850500  1
  C  4628  1  0.80845600  0.15416600  0.84306100  1
  C  4629  1  0.80369600  0.15521300  0.82138200  1
  C  4630  1  0.79655700  0.15585700  0.88196700  1
  C  4631  1  0.80328600  0.13241100  0.88347100  1
  C  4632  1  0.82749800  0.12445900  0.88616900  1
  C  4633  1  0.83237800  0.10273100  0.88738700  1
  C  4634  1  0.81336600  0.08767800  0.88535300  1
  C  4635  1  0.78930200  0.09529500  0.88179300  1
  C  4636  1  0.78455900  0.11697500  0.88072600  1
  C  4637  1  0.77609800  0.16119300  0.89797500  1
  C  4638  1  0.81702800  0.17195000  0.88702200  1
  C  4639  1  0.83107500  0.17081600  0.90579800  1
  C  4640  1  0.85012000  0.18523000  0.91048200  1
  C  4641  1  0.85586800  0.20218100  0.89693200  1
  C  4642  1  0.84083200  0.20444400  0.87898100  1
  C  4643  1  0.82180400  0.19005600  0.87449700  1
  C  4644  1  0.76211300  0.17996600  0.89646500  1
  C  4645  1  0.74273000  0.18473700  0.91049200  1
  C  4646  1  0.73663100  0.17139300  0.92753000  1
  C  4647  1  0.75175900  0.15356000  0.93028800  1
  C  4648  1  0.77107200  0.14891700  0.91620400  1
  C  4665  1  0.87476100  0.21647900  0.90184900  1
  C  4666  1  0.77465600  0.16105000  0.79237000  1
  C  4669  1  0.81835500  0.06625700  0.88741700  1
  C  4671  1  0.71688300  0.17628400  0.94101400  1
  C  4673  1  0.40199200  0.27370000  0.39109500  1
  C  4675  1  0.43052900  0.25307700  0.37040100  1
  C  4676  1  0.44009900  0.24342700  0.38871000  1
  C  4678  1  0.41153000  0.26396500  0.40944200  1
  C  4679  1  0.40229300  0.26770000  0.42934200  1
  C  4680  1  0.43905600  0.24834400  0.35042700  1
  C  4689  1  0.90200300  0.24397300  0.57920300  1
  C  4691  1  0.93054400  0.26459600  0.59989700  1
  C  4692  1  0.94011600  0.27424300  0.58158600  1
  C  4694  1  0.91154600  0.25370300  0.56085500  1
  C  4695  1  0.90230700  0.24996700  0.54095700  1
  C  4696  1  0.93906900  0.26933200  0.61986900  1
  C  4705  1  0.65218000  0.85235200  0.00021100  1
  C  4707  1  0.68048200  0.87308000  0.97937500  1
  C  4708  1  0.68999200  0.85478400  0.96965600  1
  C  4710  1  0.66167300  0.83401800  0.99041300  1
  C  4711  1  0.65250900  0.81411100  0.99421500  1
  C  4712  1  0.68892700  0.89306600  0.97459000  1
  C  4721  1  0.15217100  0.66532700  0.97009300  1
  C  4723  1  0.18047000  0.64459800  0.99092900  1
  C  4724  1  0.18998500  0.66289300  0.00064600  1
  C  4726  1  0.16166800  0.68366000  0.97988700  1
  C  4727  1  0.15250800  0.70356800  0.97608200  1
  C  4728  1  0.18891000  0.62461200  0.99571700  1
  C  4737  1  0.94063000  0.74379500  0.57861200  1
  C  4739  1  0.91235200  0.76464500  0.59934600  1
  C  4740  1  0.90283900  0.77436100  0.58104900  1
  C  4742  1  0.93113500  0.75358900  0.56027900  1
  C  4743  1  0.94028900  0.74978000  0.54037000  1
  C  4744  1  0.90392100  0.76943900  0.61933400  1
  C  4753  1  0.44062200  0.77388400  0.39168800  1
  C  4755  1  0.41234400  0.75303400  0.37095600  1
  C  4756  1  0.40282500  0.74332200  0.38925200  1
  C  4758  1  0.43112400  0.76409400  0.41002100  1
  C  4759  1  0.44027400  0.76790600  0.42993200  1
  C  4760  1  0.40391500  0.74823600  0.35096800  1
  C  4769  1  0.69060100  0.16563900  0.97005600  1
  C  4771  1  0.66237800  0.14489300  0.99095600  1
  C  4772  1  0.65282800  0.16318600  0.00065200  1
  C  4774  1  0.68106500  0.18396900  0.97983000  1
  C  4775  1  0.69016500  0.20388800  0.97598300  1
  C  4776  1  0.65399300  0.12489800  0.99577700  1
  C  4785  1  0.19060800  0.35204100  0.00022100  1
  C  4787  1  0.16239100  0.37279000  0.97931800  1
  C  4788  1  0.15283800  0.35449700  0.96962400  1
  C  4790  1  0.18106800  0.33371100  0.99045000  1
  C  4791  1  0.19016300  0.31379200  0.99429900  1
  C  4792  1  0.15401200  0.39278600  0.97449300  1
  C  4801  1  0.90206800  0.77381200  0.89151200  1
  C  4803  1  0.93043900  0.75305900  0.87077100  1
  C  4804  1  0.94004800  0.74341200  0.88906900  1
  C  4806  1  0.91165800  0.76408500  0.90984500  1
  C  4807  1  0.90252000  0.76787700  0.92976400  1
  C  4808  1  0.93886300  0.74827100  0.85078000  1
  C  4817  1  0.40206900  0.74386800  0.07878300  1
  C  4819  1  0.43044800  0.76461800  0.09952300  1
  C  4820  1  0.44005300  0.77426700  0.08122500  1
  C  4822  1  0.41165600  0.75359900  0.06045000  1
  C  4823  1  0.40251200  0.74980900  0.04053300  1
  C  4824  1  0.43887900  0.76940000  0.11951300  1
  C  4833  1  0.15200400  0.35290200  0.50001800  1
  C  4835  1  0.18054900  0.37359500  0.47939400  1
  C  4836  1  0.19010000  0.35528600  0.46973000  1
  C  4838  1  0.16152800  0.33455600  0.49026900  1
  C  4839  1  0.15227800  0.31465900  0.49399600  1
  C  4840  1  0.18908500  0.39356700  0.47466900  1
  C  4849  1  0.65204400  0.16477200  0.47025100  1
  C  4851  1  0.68059900  0.14408000  0.49086500  1
  C  4852  1  0.69014000  0.16238800  0.50054200  1
  C  4854  1  0.66155700  0.18311700  0.48001100  1
  C  4855  1  0.65229400  0.20301100  0.47629600  1
  C  4856  1  0.68914600  0.12410900  0.49558100  1
  C  4865  1  0.44063300  0.24377500  0.07839400  1
  C  4867  1  0.41241200  0.26467100  0.09914400  1
  C  4868  1  0.40284000  0.27435100  0.08085000  1
  C  4870  1  0.43107600  0.25353200  0.06006400  1
  C  4871  1  0.44016400  0.24968000  0.04014400  1
  C  4872  1  0.40403800  0.26950200  0.11914100  1
  C  4881  1  0.94063400  0.27390300  0.89188700  1
  C  4883  1  0.91240200  0.25301300  0.87114100  1
  C  4884  1  0.90283900  0.24332800  0.88943400  1
  C  4886  1  0.93108400  0.26414100  0.91021900  1
  C  4887  1  0.94017900  0.26798800  0.93013700  1
  C  4888  1  0.90402000  0.24818900  0.85114500  1
  C  4897  1  0.19073700  0.66522900  0.47020200  1
  C  4899  1  0.16234000  0.64448500  0.49092200  1
  C  4900  1  0.15272900  0.66278200  0.50056700  1
  C  4902  1  0.18114900  0.68356200  0.47993100  1
  C  4903  1  0.19029900  0.70347900  0.47615900  1
  C  4904  1  0.15390100  0.62449200  0.49569300  1
  C  4913  1  0.69072900  0.85245300  0.50009600  1
  C  4915  1  0.66232800  0.87319600  0.47937800  1
  C  4916  1  0.65272100  0.85489900  0.46973000  1
  C  4918  1  0.68114500  0.83412000  0.49036600  1
  C  4919  1  0.69030000  0.81420500  0.49413600  1
  C  4920  1  0.65388600  0.89318600  0.47460800  1
  C  4929  1  0.55639300  0.15543300  0.25706400  1
  C  4931  1  0.54105400  0.13955700  0.22526600  1
  C  4932  1  0.55585200  0.15314800  0.21299700  1
  C  4934  1  0.57093100  0.16921300  0.24474400  1
  C  4935  1  0.58492000  0.18518900  0.25325100  1
  C  4936  1  0.52577300  0.12444100  0.21652200  1
  C  4945  1  0.05635230  0.36227400  0.71322400  1
  C  4947  1  0.04105430  0.37816100  0.74502900  1
  C  4948  1  0.05583130  0.36454500  0.75729100  1
  C  4950  1  0.07086330  0.34846800  0.72553600  1
  C  4951  1  0.08482130  0.33247800  0.71701600  1
  C  4952  1  0.02580830  0.39329700  0.75378100  1
  C  4961  1  0.80646700  0.98696100  0.88179000  1
  C  4963  1  0.79105600  0.01871300  0.86586100  1
  C  4964  1  0.80585800  0.03102700  0.87940600  1
  C  4966  1  0.82103400  0.99932300  0.89552100  1
  C  4967  1  0.83506900  0.99088900  0.91152300  1
  C  4968  1  0.77573200  0.02740600  0.85074800  1
  C  4977  1  0.30646500  0.53071600  0.08848200  1
  C  4979  1  0.29104000  0.49896500  0.10440500  1
  C  4980  1  0.30585400  0.48665000  0.09087100  1
  C  4982  1  0.32104400  0.51835200  0.07476100  1
  C  4983  1  0.33509200  0.52678400  0.05876700  1
  C  4984  1  0.27570200  0.49027500  0.11950900  1
  C  4993  1  0.28627900  0.36223200  0.25723800  1
  C  4995  1  0.30142700  0.37843800  0.22553800  1
  C  4996  1  0.28698400  0.36465400  0.21317900  1
  C  4998  1  0.27212600  0.34825300  0.24482600  1
  C  4999  1  0.25843900  0.33204800  0.25324300  1
  C  5000  1  0.31641200  0.39382000  0.21688800  1
  C  5009  1  0.78628700  0.15544100  0.71305200  1
  C  5011  1  0.80143300  0.13923800  0.74475400  1
  C  5012  1  0.78698400  0.15302100  0.75711100  1
  C  5014  1  0.77212900  0.16941900  0.72546200  1
  C  5015  1  0.75843800  0.18562000  0.71704200  1
  C  5016  1  0.81642100  0.12386000  0.75340500  1
  C  5025  1  0.03616830  0.53090700  0.88188500  1
  C  5027  1  0.05171630  0.49927300  0.86581200  1
  C  5028  1  0.03700030  0.48685100  0.87932700  1
  C  5030  1  0.02168930  0.51843900  0.89558800  1
  C  5031  1  0.00764027  0.52675100  0.91164300  1
  C  5032  1  0.06705430  0.49069200  0.85064700  1
  C  5041  1  0.53616400  0.98677600  0.08841100  1
  C  5043  1  0.55172100  0.01840900  0.10447800  1
  C  5044  1  0.53699700  0.03083000  0.09097100  1
  C  5046  1  0.52167600  0.99924500  0.07471600  1
  C  5047  1  0.50761700  0.99093200  0.05866500  1
  C  5048  1  0.56706800  0.02698900  0.11963700  1
  C  5057  1  0.78612100  0.86207900  0.71318700  1
  C  5059  1  0.80182700  0.87778300  0.74494500  1
  C  5060  1  0.78671500  0.86448000  0.75724700  1
  C  5062  1  0.77124500  0.84857300  0.72553400  1
  C  5063  1  0.75689300  0.83276800  0.71709800  1
  C  5064  1  0.81746800  0.89265500  0.75364300  1
  C  5073  1  0.28611900  0.65560000  0.25710500  1
  C  5075  1  0.30180700  0.63988800  0.22534300  1
  C  5076  1  0.28671000  0.65320400  0.21304300  1
  C  5078  1  0.27125700  0.66911800  0.24475700  1
  C  5079  1  0.25692600  0.68493400  0.25319800  1
  C  5080  1  0.31742800  0.62500400  0.21664200  1
  C  5089  1  0.05677530  0.65565800  0.71301200  1
  C  5091  1  0.04111730  0.63970300  0.74466500  1
  C  5092  1  0.05600230  0.65309900  0.75706700  1
  C  5094  1  0.07141930  0.66925000  0.72546200  1
  C  5095  1  0.08560730  0.68520800  0.71712900  1
  C  5096  1  0.02562830  0.62465700  0.75326300  1
  C  5105  1  0.55678200  0.86202100  0.25728200  1
  C  5107  1  0.54112200  0.87797500  0.22563000  1
  C  5108  1  0.55601100  0.86458000  0.21322900  1
  C  5110  1  0.57142600  0.84842900  0.24483200  1
  C  5111  1  0.58561600  0.83247000  0.25316500  1
  C  5112  1  0.52563500  0.89302000  0.21703200  1
  C  5121  1  0.30652700  0.48689300  0.38179300  1
  C  5123  1  0.29112800  0.51870700  0.36599600  1
  C  5124  1  0.30604500  0.53095800  0.37950900  1
  C  5126  1  0.32117100  0.49919600  0.39550500  1
  C  5127  1  0.33524300  0.49066800  0.41141800  1
  C  5128  1  0.27575500  0.52746600  0.35095800  1
  C  5137  1  0.80651200  0.03078700  0.58851800  1
  C  5139  1  0.79127400  0.99896600  0.60441000  1
  C  5140  1  0.80606000  0.98672300  0.59078500  1
  C  5142  1  0.82101000  0.01849100  0.57469100  1
  C  5143  1  0.83492700  0.02703200  0.55869200  1
  C  5144  1  0.77605200  0.99019700  0.61955400  1
  C  5153  1  0.53607900  0.03095900  0.38185000  1
  C  5155  1  0.55142200  0.99926100  0.36577900  1
  C  5156  1  0.53677100  0.98690300  0.37940400  1
  C  5158  1  0.52171600  0.01854700  0.39567700  1
  C  5159  1  0.50783200  0.02696100  0.41176400  1
  C  5160  1  0.56661900  0.99061100  0.35054700  1
  C  5169  1  0.03611830  0.48671600  0.58848100  1
  C  5171  1  0.05138630  0.51842400  0.60458400  1
  C  5172  1  0.03678830  0.53077300  0.59090900  1
  C  5174  1  0.02181830  0.49911900  0.57460100  1
  C  5175  1  0.00800027  0.49069000  0.55848200  1
  C  5176  1  0.06651530  0.52708400  0.61985800  1
  N  786  1  0.74950700  0.26744400  0.37259200  1
  N  789  1  0.76730500  0.24942600  0.40727500  1
  N  799  1  0.72104300  0.28780000  0.38972600  1
  N  800  1  0.79560400  0.22900600  0.38762300  1
  N  802  1  0.24952000  0.25023200  0.59770700  1
  N  805  1  0.26732100  0.26824100  0.56302100  1
  N  815  1  0.22105100  0.22987800  0.58057200  1
  N  816  1  0.29562100  0.28866400  0.58267100  1
  N  818  1  0.99960900  0.87086300  0.99387500  1
  N  821  1  0.01729900  0.83620300  0.97573500  1
  N  831  1  0.97136600  0.85375700  0.01443600  1
  N  832  1  0.04536000  0.85592400  0.95511400  1
  N  834  1  0.49959600  0.64681500  0.97643000  1
  N  837  1  0.51729400  0.68147400  0.99456400  1
  N  847  1  0.47135700  0.66392400  0.95586600  1
  N  848  1  0.54535300  0.66175100  0.01518600  1
  N  850  1  0.26811600  0.75013900  0.59712700  1
  N  853  1  0.25041800  0.76827400  0.56246700  1
  N  863  1  0.29633500  0.72956300  0.58001600  1
  N  864  1  0.22237800  0.78890600  0.58219300  1
  N  866  1  0.76811000  0.76753700  0.37317400  1
  N  869  1  0.75040300  0.74941300  0.40783500  1
  N  879  1  0.79633300  0.78811100  0.39028500  1
  N  880  1  0.72236400  0.72877900  0.38811100  1
  N  882  1  0.01812600  0.14712100  0.97643600  1
  N  885  1  0.00036000  0.18177600  0.99452900  1
  N  895  1  0.04630000  0.16422300  0.95581500  1
  N  896  1  0.97237200  0.16202700  0.01520100  1
  N  898  1  0.51813900  0.37055900  0.99384000  1
  N  901  1  0.50036600  0.33590500  0.97575000  1
  N  911  1  0.54630800  0.35345500  0.01446300  1
  N  912  1  0.47238200  0.35565700  0.95507400  1
  N  914  1  0.24949100  0.76748700  0.87299400  1
  N  917  1  0.26736300  0.74948200  0.90765400  1
  N  927  1  0.22117400  0.78796500  0.89011600  1
  N  928  1  0.29549400  0.72894200  0.88793000  1
  N  930  1  0.74949800  0.75019000  0.09730100  1
  N  933  1  0.76736100  0.76820200  0.06264000  1
  N  943  1  0.72117500  0.72971500  0.08017900  1
  N  944  1  0.79550100  0.78873600  0.08236200  1
  N  946  1  0.49953200  0.37140600  0.49376700  1
  N  949  1  0.51729700  0.33672300  0.47572400  1
  N  959  1  0.47106200  0.35427200  0.51412400  1
  N  960  1  0.54560300  0.35637200  0.45530400  1
  N  962  1  0.99958100  0.14627000  0.47649300  1
  N  965  1  0.01732500  0.18095000  0.49455700  1
  N  975  1  0.97110400  0.16340100  0.45614300  1
  N  976  1  0.04564100  0.16130200  0.51496800  1
  N  978  1  0.76816700  0.25016000  0.09691400  1
  N  981  1  0.75036300  0.26822400  0.06225900  1
  N  991  1  0.79634200  0.22954200  0.07980800  1
  N  992  1  0.72237500  0.28889300  0.08201000  1
  N  994  1  0.26816000  0.26752400  0.87336900  1
  N  997  1  0.25036900  0.24945100  0.90802400  1
  N  1007  1  0.29634200  0.28813400  0.89047400  1
  N  1008  1  0.22237000  0.22878900  0.88827700  1
  N  1010  1  0.51820300  0.64670900  0.47650800  1
  N  1013  1  0.50032900  0.68136900  0.49451800  1
  N  1023  1  0.54653800  0.66383700  0.45606200  1
  N  1024  1  0.47217000  0.66164600  0.51502000  1
  N  1026  1  0.01819200  0.87097200  0.49379100  1
  N  1029  1  0.00032500  0.83631300  0.47577800  1
  N  1039  1  0.04653100  0.85384600  0.51423700  1
  N  1040  1  0.97216200  0.85603300  0.45527800  1
  N  1042  1  0.87951800  0.14149400  0.24654600  1
  N  1045  1  0.90726700  0.16747400  0.22345600  1
  N  1055  1  0.89174200  0.15536500  0.27794300  1
  N  1056  1  0.89218300  0.15286300  0.19205400  1
  N  1058  1  0.37950500  0.37623000  0.72374800  1
  N  1061  1  0.40721300  0.35020100  0.74682300  1
  N  1071  1  0.39169300  0.36234200  0.69234400  1
  N  1072  1  0.39216700  0.36482500  0.77823300  1
  N  1074  1  0.12955700  0.99743800  0.86784500  1
  N  1077  1  0.15731400  0.02060500  0.89372800  1
  N  1087  1  0.14183600  0.96607500  0.88171400  1
  N  1088  1  0.14215400  0.05197000  0.87909700  1
  N  1090  1  0.62954300  0.52023900  0.10241900  1
  N  1093  1  0.65732200  0.49707100  0.07655600  1
  N  1103  1  0.64183500  0.55160200  0.08855700  1
  N  1104  1  0.64215000  0.46570600  0.09118100  1
  N  1106  1  0.63780400  0.37642400  0.24681000  1
  N  1109  1  0.61073900  0.35007100  0.22354800  1
  N  1119  1  0.62574600  0.36224500  0.27812400  1
  N  1120  1  0.62563600  0.36502500  0.19224000  1
  N  1122  1  0.13781300  0.14125200  0.72348200  1
  N  1125  1  0.11073800  0.16759900  0.74674100  1
  N  1135  1  0.12575600  0.15542800  0.69216600  1
  N  1136  1  0.12563500  0.15264900  0.77805000  1
  N  1138  1  0.38800600  0.52053600  0.86788100  1
  N  1141  1  0.36041700  0.49716800  0.89370700  1
  N  1151  1  0.37559800  0.55180200  0.88187500  1
  N  1152  1  0.37569600  0.46591300  0.87892500  1
  N  1154  1  0.88801100  0.99714800  0.10240800  1
  N  1157  1  0.86040300  0.02051500  0.07659700  1
  N  1167  1  0.87559400  0.96588000  0.08841900  1
  N  1168  1  0.87569100  0.05177000  0.09137300  1
  N  1170  1  0.13820900  0.87580500  0.72367100  1
  N  1173  1  0.10987900  0.85036700  0.74681900  1
  N  1183  1  0.12568100  0.86214500  0.69230200  1
  N  1184  1  0.12531400  0.86476500  0.77819000  1
  N  1186  1  0.63819100  0.64186200  0.24661700  1
  N  1189  1  0.60988900  0.66732700  0.22347400  1
  N  1199  1  0.62568200  0.65553600  0.27798800  1
  N  1200  1  0.62530800  0.65292000  0.19210100  1
  N  1202  1  0.37971000  0.64176400  0.72340300  1
  N  1205  1  0.40761200  0.66737700  0.74673600  1
  N  1215  1  0.39220800  0.65565700  0.69212300  1
  N  1216  1  0.39221900  0.65272200  0.77800300  1
  N  1218  1  0.87971600  0.87591400  0.24689300  1
  N  1221  1  0.90762100  0.85030300  0.22356000  1
  N  1231  1  0.89221500  0.86202200  0.27817200  1
  N  1232  1  0.89222600  0.86495700  0.19229100  1
  N  1234  1  0.62957200  0.49742500  0.36792500  1
  N  1237  1  0.65753400  0.52048500  0.39377400  1
  N  1247  1  0.64184400  0.46601600  0.38173000  1
  N  1248  1  0.64238300  0.55189900  0.37924900  1
  N  1250  1  0.12969500  0.02024700  0.60248400  1
  N  1253  1  0.15740200  0.99720100  0.57642200  1
  N  1263  1  0.14182200  0.05166300  0.58859100  1
  N  1264  1  0.14240200  0.96578200  0.59104600  1
  N  1266  1  0.88778800  0.02053100  0.36779400  1
  N  1269  1  0.86033900  0.99727000  0.39385600  1
  N  1279  1  0.87555900  0.05184400  0.38184200  1
  N  1280  1  0.87543200  0.96596500  0.37904800  1
  N  1282  1  0.38776700  0.49715200  0.60257600  1
  N  1285  1  0.36042200  0.52039800  0.57641500  1
  N  1295  1  0.37560700  0.46583100  0.58848900  1
  N  1296  1  0.37544400  0.55171100  0.59125900  1
  N  2082  1  0.97035700  0.26744400  0.37259200  1
  N  2085  1  0.98815500  0.24942600  0.40727500  1
  N  2095  1  0.94189300  0.28780000  0.38972600  1
  N  2096  1  0.01645410  0.22900600  0.38762300  1
  N  2098  1  0.47037000  0.25023200  0.59770700  1
  N  2101  1  0.48817100  0.26824100  0.56302100  1
  N  2111  1  0.44190100  0.22987800  0.58057200  1
  N  2112  1  0.51647100  0.28866400  0.58267100  1
  N  2114  1  0.22045900  0.87086300  0.99387500  1
  N  2117  1  0.23814900  0.83620300  0.97573500  1
  N  2127  1  0.19221600  0.85375700  0.01443600  1
  N  2128  1  0.26621000  0.85592400  0.95511400  1
  N  2130  1  0.72044600  0.64681500  0.97643000  1
  N  2133  1  0.73814400  0.68147400  0.99456400  1
  N  2143  1  0.69220700  0.66392400  0.95586600  1
  N  2144  1  0.76620300  0.66175100  0.01518600  1
  N  2146  1  0.48896600  0.75013900  0.59712700  1
  N  2149  1  0.47126800  0.76827400  0.56246700  1
  N  2159  1  0.51718500  0.72956300  0.58001600  1
  N  2160  1  0.44322800  0.78890600  0.58219300  1
  N  2162  1  0.98896000  0.76753700  0.37317400  1
  N  2165  1  0.97125300  0.74941300  0.40783500  1
  N  2175  1  0.01718310  0.78811100  0.39028500  1
  N  2176  1  0.94321400  0.72877900  0.38811100  1
  N  2178  1  0.23897600  0.14712100  0.97643600  1
  N  2181  1  0.22121000  0.18177600  0.99452900  1
  N  2191  1  0.26715000  0.16422300  0.95581500  1
  N  2192  1  0.19322200  0.16202700  0.01520100  1
  N  2194  1  0.73898900  0.37055900  0.99384000  1
  N  2197  1  0.72121600  0.33590500  0.97575000  1
  N  2207  1  0.76715800  0.35345500  0.01446300  1
  N  2208  1  0.69323200  0.35565700  0.95507400  1
  N  2210  1  0.47034100  0.76748700  0.87299400  1
  N  2213  1  0.48821300  0.74948200  0.90765400  1
  N  2223  1  0.44202400  0.78796500  0.89011600  1
  N  2224  1  0.51634400  0.72894200  0.88793000  1
  N  2226  1  0.97034800  0.75019000  0.09730100  1
  N  2229  1  0.98821100  0.76820200  0.06264000  1
  N  2239  1  0.94202500  0.72971500  0.08017900  1
  N  2240  1  0.01635110  0.78873600  0.08236200  1
  N  2242  1  0.72038200  0.37140600  0.49376700  1
  N  2245  1  0.73814700  0.33672300  0.47572400  1
  N  2255  1  0.69191200  0.35427200  0.51412400  1
  N  2256  1  0.76645300  0.35637200  0.45530400  1
  N  2258  1  0.22043100  0.14627000  0.47649300  1
  N  2261  1  0.23817500  0.18095000  0.49455700  1
  N  2271  1  0.19195400  0.16340100  0.45614300  1
  N  2272  1  0.26649100  0.16130200  0.51496800  1
  N  2274  1  0.98901700  0.25016000  0.09691400  1
  N  2277  1  0.97121300  0.26822400  0.06225900  1
  N  2287  1  0.01719210  0.22954200  0.07980800  1
  N  2288  1  0.94322500  0.28889300  0.08201000  1
  N  2290  1  0.48901000  0.26752400  0.87336900  1
  N  2293  1  0.47121900  0.24945100  0.90802400  1
  N  2303  1  0.51719200  0.28813400  0.89047400  1
  N  2304  1  0.44322000  0.22878900  0.88827700  1
  N  2306  1  0.73905300  0.64670900  0.47650800  1
  N  2309  1  0.72117900  0.68136900  0.49451800  1
  N  2319  1  0.76738800  0.66383700  0.45606200  1
  N  2320  1  0.69302000  0.66164600  0.51502000  1
  N  2322  1  0.23904200  0.87097200  0.49379100  1
  N  2325  1  0.22117500  0.83631300  0.47577800  1
  N  2335  1  0.26738100  0.85384600  0.51423700  1
  N  2336  1  0.19301200  0.85603300  0.45527800  1
  N  2338  1  0.10036800  0.14149400  0.24654600  1
  N  2341  1  0.12811700  0.16747400  0.22345600  1
  N  2351  1  0.11259200  0.15536500  0.27794300  1
  N  2352  1  0.11303300  0.15286300  0.19205400  1
  N  2354  1  0.60035500  0.37623000  0.72374800  1
  N  2357  1  0.62806300  0.35020100  0.74682300  1
  N  2367  1  0.61254300  0.36234200  0.69234400  1
  N  2368  1  0.61301700  0.36482500  0.77823300  1
  N  2370  1  0.35040700  0.99743800  0.86784500  1
  N  2373  1  0.37816400  0.02060500  0.89372800  1
  N  2383  1  0.36268600  0.96607500  0.88171400  1
  N  2384  1  0.36300400  0.05197000  0.87909700  1
  N  2386  1  0.85039300  0.52023900  0.10241900  1
  N  2389  1  0.87817200  0.49707100  0.07655600  1
  N  2399  1  0.86268500  0.55160200  0.08855700  1
  N  2400  1  0.86300000  0.46570600  0.09118100  1
  N  2402  1  0.85865400  0.37642400  0.24681000  1
  N  2405  1  0.83158900  0.35007100  0.22354800  1
  N  2415  1  0.84659600  0.36224500  0.27812400  1
  N  2416  1  0.84648600  0.36502500  0.19224000  1
  N  2418  1  0.35866300  0.14125200  0.72348200  1
  N  2421  1  0.33158800  0.16759900  0.74674100  1
  N  2431  1  0.34660600  0.15542800  0.69216600  1
  N  2432  1  0.34648500  0.15264900  0.77805000  1
  N  2434  1  0.60885600  0.52053600  0.86788100  1
  N  2437  1  0.58126700  0.49716800  0.89370700  1
  N  2447  1  0.59644800  0.55180200  0.88187500  1
  N  2448  1  0.59654600  0.46591300  0.87892500  1
  N  2450  1  0.10886100  0.99714800  0.10240800  1
  N  2453  1  0.08125310  0.02051500  0.07659700  1
  N  2463  1  0.09644410  0.96588000  0.08841900  1
  N  2464  1  0.09654110  0.05177000  0.09137300  1
  N  2466  1  0.35905900  0.87580500  0.72367100  1
  N  2469  1  0.33072900  0.85036700  0.74681900  1
  N  2479  1  0.34653100  0.86214500  0.69230200  1
  N  2480  1  0.34616400  0.86476500  0.77819000  1
  N  2482  1  0.85904100  0.64186200  0.24661700  1
  N  2485  1  0.83073900  0.66732700  0.22347400  1
  N  2495  1  0.84653200  0.65553600  0.27798800  1
  N  2496  1  0.84615800  0.65292000  0.19210100  1
  N  2498  1  0.60056000  0.64176400  0.72340300  1
  N  2501  1  0.62846200  0.66737700  0.74673600  1
  N  2511  1  0.61305800  0.65565700  0.69212300  1
  N  2512  1  0.61306900  0.65272200  0.77800300  1
  N  2514  1  0.10056600  0.87591400  0.24689300  1
  N  2517  1  0.12847100  0.85030300  0.22356000  1
  N  2527  1  0.11306500  0.86202200  0.27817200  1
  N  2528  1  0.11307600  0.86495700  0.19229100  1
  N  2530  1  0.85042200  0.49742500  0.36792500  1
  N  2533  1  0.87838400  0.52048500  0.39377400  1
  N  2543  1  0.86269400  0.46601600  0.38173000  1
  N  2544  1  0.86323300  0.55189900  0.37924900  1
  N  2546  1  0.35054500  0.02024700  0.60248400  1
  N  2549  1  0.37825200  0.99720100  0.57642200  1
  N  2559  1  0.36267200  0.05166300  0.58859100  1
  N  2560  1  0.36325200  0.96578200  0.59104600  1
  N  2562  1  0.10863800  0.02053100  0.36779400  1
  N  2565  1  0.08118910  0.99727000  0.39385600  1
  N  2575  1  0.09640910  0.05184400  0.38184200  1
  N  2576  1  0.09628210  0.96596500  0.37904800  1
  N  2578  1  0.60861700  0.49715200  0.60257600  1
  N  2581  1  0.58127200  0.52039800  0.57641500  1
  N  2591  1  0.59645700  0.46583100  0.58848900  1
  N  2592  1  0.59629400  0.55171100  0.59125900  1
  N  3378  1  0.19120700  0.26744400  0.37259200  1
  N  3381  1  0.20900500  0.24942600  0.40727500  1
  N  3391  1  0.16274300  0.28780000  0.38972600  1
  N  3392  1  0.23730400  0.22900600  0.38762300  1
  N  3394  1  0.69122000  0.25023200  0.59770700  1
  N  3397  1  0.70902100  0.26824100  0.56302100  1
  N  3407  1  0.66275100  0.22987800  0.58057200  1
  N  3408  1  0.73732100  0.28866400  0.58267100  1
  N  3410  1  0.44130900  0.87086300  0.99387500  1
  N  3413  1  0.45899900  0.83620300  0.97573500  1
  N  3423  1  0.41306600  0.85375700  0.01443600  1
  N  3424  1  0.48706000  0.85592400  0.95511400  1
  N  3426  1  0.94129600  0.64681500  0.97643000  1
  N  3429  1  0.95899400  0.68147400  0.99456400  1
  N  3439  1  0.91305700  0.66392400  0.95586600  1
  N  3440  1  0.98705300  0.66175100  0.01518600  1
  N  3442  1  0.70981600  0.75013900  0.59712700  1
  N  3445  1  0.69211800  0.76827400  0.56246700  1
  N  3455  1  0.73803500  0.72956300  0.58001600  1
  N  3456  1  0.66407800  0.78890600  0.58219300  1
  N  3458  1  0.20981000  0.76753700  0.37317400  1
  N  3461  1  0.19210300  0.74941300  0.40783500  1
  N  3471  1  0.23803300  0.78811100  0.39028500  1
  N  3472  1  0.16406400  0.72877900  0.38811100  1
  N  3474  1  0.45982600  0.14712100  0.97643600  1
  N  3477  1  0.44206000  0.18177600  0.99452900  1
  N  3487  1  0.48800000  0.16422300  0.95581500  1
  N  3488  1  0.41407200  0.16202700  0.01520100  1
  N  3490  1  0.95983900  0.37055900  0.99384000  1
  N  3493  1  0.94206600  0.33590500  0.97575000  1
  N  3503  1  0.98800800  0.35345500  0.01446300  1
  N  3504  1  0.91408200  0.35565700  0.95507400  1
  N  3506  1  0.69119100  0.76748700  0.87299400  1
  N  3509  1  0.70906300  0.74948200  0.90765400  1
  N  3519  1  0.66287400  0.78796500  0.89011600  1
  N  3520  1  0.73719400  0.72894200  0.88793000  1
  N  3522  1  0.19119800  0.75019000  0.09730100  1
  N  3525  1  0.20906100  0.76820200  0.06264000  1
  N  3535  1  0.16287500  0.72971500  0.08017900  1
  N  3536  1  0.23720100  0.78873600  0.08236200  1
  N  3538  1  0.94123200  0.37140600  0.49376700  1
  N  3541  1  0.95899700  0.33672300  0.47572400  1
  N  3551  1  0.91276200  0.35427200  0.51412400  1
  N  3552  1  0.98730300  0.35637200  0.45530400  1
  N  3554  1  0.44128100  0.14627000  0.47649300  1
  N  3557  1  0.45902500  0.18095000  0.49455700  1
  N  3567  1  0.41280400  0.16340100  0.45614300  1
  N  3568  1  0.48734100  0.16130200  0.51496800  1
  N  3570  1  0.20986700  0.25016000  0.09691400  1
  N  3573  1  0.19206300  0.26822400  0.06225900  1
  N  3583  1  0.23804200  0.22954200  0.07980800  1
  N  3584  1  0.16407500  0.28889300  0.08201000  1
  N  3586  1  0.70986000  0.26752400  0.87336900  1
  N  3589  1  0.69206900  0.24945100  0.90802400  1
  N  3599  1  0.73804200  0.28813400  0.89047400  1
  N  3600  1  0.66407000  0.22878900  0.88827700  1
  N  3602  1  0.95990300  0.64670900  0.47650800  1
  N  3605  1  0.94202900  0.68136900  0.49451800  1
  N  3615  1  0.98823800  0.66383700  0.45606200  1
  N  3616  1  0.91387000  0.66164600  0.51502000  1
  N  3618  1  0.45989200  0.87097200  0.49379100  1
  N  3621  1  0.44202500  0.83631300  0.47577800  1
  N  3631  1  0.48823100  0.85384600  0.51423700  1
  N  3632  1  0.41386200  0.85603300  0.45527800  1
  N  3634  1  0.32121800  0.14149400  0.24654600  1
  N  3637  1  0.34896700  0.16747400  0.22345600  1
  N  3647  1  0.33344200  0.15536500  0.27794300  1
  N  3648  1  0.33388300  0.15286300  0.19205400  1
  N  3650  1  0.82120500  0.37623000  0.72374800  1
  N  3653  1  0.84891300  0.35020100  0.74682300  1
  N  3663  1  0.83339300  0.36234200  0.69234400  1
  N  3664  1  0.83386700  0.36482500  0.77823300  1
  N  3666  1  0.57125700  0.99743800  0.86784500  1
  N  3669  1  0.59901400  0.02060500  0.89372800  1
  N  3679  1  0.58353600  0.96607500  0.88171400  1
  N  3680  1  0.58385400  0.05197000  0.87909700  1
  N  3682  1  0.07124320  0.52023900  0.10241900  1
  N  3685  1  0.09902220  0.49707100  0.07655600  1
  N  3695  1  0.08353520  0.55160200  0.08855700  1
  N  3696  1  0.08385020  0.46570600  0.09118100  1
  N  3698  1  0.07950420  0.37642400  0.24681000  1
  N  3701  1  0.05243920  0.35007100  0.22354800  1
  N  3711  1  0.06744620  0.36224500  0.27812400  1
  N  3712  1  0.06733620  0.36502500  0.19224000  1
  N  3714  1  0.57951300  0.14125200  0.72348200  1
  N  3717  1  0.55243800  0.16759900  0.74674100  1
  N  3727  1  0.56745600  0.15542800  0.69216600  1
  N  3728  1  0.56733500  0.15264900  0.77805000  1
  N  3730  1  0.82970600  0.52053600  0.86788100  1
  N  3733  1  0.80211700  0.49716800  0.89370700  1
  N  3743  1  0.81729800  0.55180200  0.88187500  1
  N  3744  1  0.81739600  0.46591300  0.87892500  1
  N  3746  1  0.32971100  0.99714800  0.10240800  1
  N  3749  1  0.30210300  0.02051500  0.07659700  1
  N  3759  1  0.31729400  0.96588000  0.08841900  1
  N  3760  1  0.31739100  0.05177000  0.09137300  1
  N  3762  1  0.57990900  0.87580500  0.72367100  1
  N  3765  1  0.55157900  0.85036700  0.74681900  1
  N  3775  1  0.56738100  0.86214500  0.69230200  1
  N  3776  1  0.56701400  0.86476500  0.77819000  1
  N  3778  1  0.07989120  0.64186200  0.24661700  1
  N  3781  1  0.05158920  0.66732700  0.22347400  1
  N  3791  1  0.06738220  0.65553600  0.27798800  1
  N  3792  1  0.06700820  0.65292000  0.19210100  1
  N  3794  1  0.82141000  0.64176400  0.72340300  1
  N  3797  1  0.84931200  0.66737700  0.74673600  1
  N  3807  1  0.83390800  0.65565700  0.69212300  1
  N  3808  1  0.83391900  0.65272200  0.77800300  1
  N  3810  1  0.32141600  0.87591400  0.24689300  1
  N  3813  1  0.34932100  0.85030300  0.22356000  1
  N  3823  1  0.33391500  0.86202200  0.27817200  1
  N  3824  1  0.33392600  0.86495700  0.19229100  1
  N  3826  1  0.07127220  0.49742500  0.36792500  1
  N  3829  1  0.09923420  0.52048500  0.39377400  1
  N  3839  1  0.08354420  0.46601600  0.38173000  1
  N  3840  1  0.08408320  0.55189900  0.37924900  1
  N  3842  1  0.57139500  0.02024700  0.60248400  1
  N  3845  1  0.59910200  0.99720100  0.57642200  1
  N  3855  1  0.58352200  0.05166300  0.58859100  1
  N  3856  1  0.58410200  0.96578200  0.59104600  1
  N  3858  1  0.32948800  0.02053100  0.36779400  1
  N  3861  1  0.30203900  0.99727000  0.39385600  1
  N  3871  1  0.31725900  0.05184400  0.38184200  1
  N  3872  1  0.31713200  0.96596500  0.37904800  1
  N  3874  1  0.82946700  0.49715200  0.60257600  1
  N  3877  1  0.80212200  0.52039800  0.57641500  1
  N  3887  1  0.81730700  0.46583100  0.58848900  1
  N  3888  1  0.81714400  0.55171100  0.59125900  1
  N  4674  1  0.41205700  0.26744400  0.37259200  1
  N  4677  1  0.42985500  0.24942600  0.40727500  1
  N  4687  1  0.38359300  0.28780000  0.38972600  1
  N  4688  1  0.45815400  0.22900600  0.38762300  1
  N  4690  1  0.91207000  0.25023200  0.59770700  1
  N  4693  1  0.92987100  0.26824100  0.56302100  1
  N  4703  1  0.88360100  0.22987800  0.58057200  1
  N  4704  1  0.95817100  0.28866400  0.58267100  1
  N  4706  1  0.66215900  0.87086300  0.99387500  1
  N  4709  1  0.67984900  0.83620300  0.97573500  1
  N  4719  1  0.63391600  0.85375700  0.01443600  1
  N  4720  1  0.70791000  0.85592400  0.95511400  1
  N  4722  1  0.16214600  0.64681500  0.97643000  1
  N  4725  1  0.17984400  0.68147400  0.99456400  1
  N  4735  1  0.13390700  0.66392400  0.95586600  1
  N  4736  1  0.20790300  0.66175100  0.01518600  1
  N  4738  1  0.93066600  0.75013900  0.59712700  1
  N  4741  1  0.91296800  0.76827400  0.56246700  1
  N  4751  1  0.95888500  0.72956300  0.58001600  1
  N  4752  1  0.88492800  0.78890600  0.58219300  1
  N  4754  1  0.43066000  0.76753700  0.37317400  1
  N  4757  1  0.41295300  0.74941300  0.40783500  1
  N  4767  1  0.45888300  0.78811100  0.39028500  1
  N  4768  1  0.38491400  0.72877900  0.38811100  1
  N  4770  1  0.68067600  0.14712100  0.97643600  1
  N  4773  1  0.66291000  0.18177600  0.99452900  1
  N  4783  1  0.70885000  0.16422300  0.95581500  1
  N  4784  1  0.63492200  0.16202700  0.01520100  1
  N  4786  1  0.18068900  0.37055900  0.99384000  1
  N  4789  1  0.16291600  0.33590500  0.97575000  1
  N  4799  1  0.20885800  0.35345500  0.01446300  1
  N  4800  1  0.13493200  0.35565700  0.95507400  1
  N  4802  1  0.91204100  0.76748700  0.87299400  1
  N  4805  1  0.92991300  0.74948200  0.90765400  1
  N  4815  1  0.88372400  0.78796500  0.89011600  1
  N  4816  1  0.95804400  0.72894200  0.88793000  1
  N  4818  1  0.41204800  0.75019000  0.09730100  1
  N  4821  1  0.42991100  0.76820200  0.06264000  1
  N  4831  1  0.38372500  0.72971500  0.08017900  1
  N  4832  1  0.45805100  0.78873600  0.08236200  1
  N  4834  1  0.16208200  0.37140600  0.49376700  1
  N  4837  1  0.17984700  0.33672300  0.47572400  1
  N  4847  1  0.13361200  0.35427200  0.51412400  1
  N  4848  1  0.20815300  0.35637200  0.45530400  1
  N  4850  1  0.66213100  0.14627000  0.47649300  1
  N  4853  1  0.67987500  0.18095000  0.49455700  1
  N  4863  1  0.63365400  0.16340100  0.45614300  1
  N  4864  1  0.70819100  0.16130200  0.51496800  1
  N  4866  1  0.43071700  0.25016000  0.09691400  1
  N  4869  1  0.41291300  0.26822400  0.06225900  1
  N  4879  1  0.45889200  0.22954200  0.07980800  1
  N  4880  1  0.38492500  0.28889300  0.08201000  1
  N  4882  1  0.93071000  0.26752400  0.87336900  1
  N  4885  1  0.91291900  0.24945100  0.90802400  1
  N  4895  1  0.95889200  0.28813400  0.89047400  1
  N  4896  1  0.88492000  0.22878900  0.88827700  1
  N  4898  1  0.18075300  0.64670900  0.47650800  1
  N  4901  1  0.16287900  0.68136900  0.49451800  1
  N  4911  1  0.20908800  0.66383700  0.45606200  1
  N  4912  1  0.13472000  0.66164600  0.51502000  1
  N  4914  1  0.68074200  0.87097200  0.49379100  1
  N  4917  1  0.66287500  0.83631300  0.47577800  1
  N  4927  1  0.70908100  0.85384600  0.51423700  1
  N  4928  1  0.63471200  0.85603300  0.45527800  1
  N  4930  1  0.54206800  0.14149400  0.24654600  1
  N  4933  1  0.56981700  0.16747400  0.22345600  1
  N  4943  1  0.55429200  0.15536500  0.27794300  1
  N  4944  1  0.55473300  0.15286300  0.19205400  1
  N  4946  1  0.04205530  0.37623000  0.72374800  1
  N  4949  1  0.06976330  0.35020100  0.74682300  1
  N  4959  1  0.05424330  0.36234200  0.69234400  1
  N  4960  1  0.05471730  0.36482500  0.77823300  1
  N  4962  1  0.79210700  0.99743800  0.86784500  1
  N  4965  1  0.81986400  0.02060500  0.89372800  1
  N  4975  1  0.80438600  0.96607500  0.88171400  1
  N  4976  1  0.80470400  0.05197000  0.87909700  1
  N  4978  1  0.29209300  0.52023900  0.10241900  1
  N  4981  1  0.31987200  0.49707100  0.07655600  1
  N  4991  1  0.30438500  0.55160200  0.08855700  1
  N  4992  1  0.30470000  0.46570600  0.09118100  1
  N  4994  1  0.30035400  0.37642400  0.24681000  1
  N  4997  1  0.27328900  0.35007100  0.22354800  1
  N  5007  1  0.28829600  0.36224500  0.27812400  1
  N  5008  1  0.28818600  0.36502500  0.19224000  1
  N  5010  1  0.80036300  0.14125200  0.72348200  1
  N  5013  1  0.77328800  0.16759900  0.74674100  1
  N  5023  1  0.78830600  0.15542800  0.69216600  1
  N  5024  1  0.78818500  0.15264900  0.77805000  1
  N  5026  1  0.05055630  0.52053600  0.86788100  1
  N  5029  1  0.02296730  0.49716800  0.89370700  1
  N  5039  1  0.03814830  0.55180200  0.88187500  1
  N  5040  1  0.03824630  0.46591300  0.87892500  1
  N  5042  1  0.55056100  0.99714800  0.10240800  1
  N  5045  1  0.52295300  0.02051500  0.07659700  1
  N  5055  1  0.53814400  0.96588000  0.08841900  1
  N  5056  1  0.53824100  0.05177000  0.09137300  1
  N  5058  1  0.80075900  0.87580500  0.72367100  1
  N  5061  1  0.77242900  0.85036700  0.74681900  1
  N  5071  1  0.78823100  0.86214500  0.69230200  1
  N  5072  1  0.78786400  0.86476500  0.77819000  1
  N  5074  1  0.30074100  0.64186200  0.24661700  1
  N  5077  1  0.27243900  0.66732700  0.22347400  1
  N  5087  1  0.28823200  0.65553600  0.27798800  1
  N  5088  1  0.28785800  0.65292000  0.19210100  1
  N  5090  1  0.04226030  0.64176400  0.72340300  1
  N  5093  1  0.07016230  0.66737700  0.74673600  1
  N  5103  1  0.05475830  0.65565700  0.69212300  1
  N  5104  1  0.05476930  0.65272200  0.77800300  1
  N  5106  1  0.54226600  0.87591400  0.24689300  1
  N  5109  1  0.57017100  0.85030300  0.22356000  1
  N  5119  1  0.55476500  0.86202200  0.27817200  1
  N  5120  1  0.55477600  0.86495700  0.19229100  1
  N  5122  1  0.29212200  0.49742500  0.36792500  1
  N  5125  1  0.32008400  0.52048500  0.39377400  1
  N  5135  1  0.30439400  0.46601600  0.38173000  1
  N  5136  1  0.30493300  0.55189900  0.37924900  1
  N  5138  1  0.79224500  0.02024700  0.60248400  1
  N  5141  1  0.81995200  0.99720100  0.57642200  1
  N  5151  1  0.80437200  0.05166300  0.58859100  1
  N  5152  1  0.80495200  0.96578200  0.59104600  1
  N  5154  1  0.55033800  0.02053100  0.36779400  1
  N  5157  1  0.52288900  0.99727000  0.39385600  1
  N  5167  1  0.53810900  0.05184400  0.38184200  1
  N  5168  1  0.53798200  0.96596500  0.37904800  1
  N  5170  1  0.05031730  0.49715200  0.60257600  1
  N  5173  1  0.02297230  0.52039800  0.57641500  1
  N  5183  1  0.03815730  0.46583100  0.58848900  1
  N  5184  1  0.03799430  0.55171100  0.59125900  1
  O  793  1  0.75446100  0.26964900  0.44370400  1
  O  794  1  0.71909000  0.26141700  0.43452400  1
  O  796  1  0.76156000  0.24723700  0.33613800  1
  O  797  1  0.79760200  0.25294700  0.34477200  1
  O  809  1  0.25447500  0.24801900  0.52659400  1
  O  810  1  0.21910000  0.25623900  0.53577500  1
  O  812  1  0.26157300  0.27044300  0.63415800  1
  O  813  1  0.29761800  0.26473100  0.62552600  1
  O  825  1  0.00474900  0.79980800  0.99621200  1
  O  826  1  0.96936900  0.80884600  0.98785700  1
  O  828  1  0.01139200  0.90733200  0.97357100  1
  O  829  1  0.04749800  0.89875400  0.97907600  1
  O  841  1  0.50475000  0.71787000  0.97408600  1
  O  842  1  0.46936700  0.70883800  0.98243700  1
  O  844  1  0.51137100  0.61034700  0.99673800  1
  O  845  1  0.54747900  0.61891800  0.99123000  1
  O  857  1  0.26294400  0.74778900  0.52607100  1
  O  858  1  0.29833200  0.75612700  0.53509900  1
  O  860  1  0.25636500  0.77045700  0.63359300  1
  O  861  1  0.22025000  0.76496500  0.62503100  1
  O  873  1  0.76292900  0.76989900  0.44422800  1
  O  874  1  0.79831800  0.76156100  0.43520600  1
  O  876  1  0.75636000  0.74721400  0.33671000  1
  O  877  1  0.72024600  0.75271200  0.34526700  1
  O  889  1  0.01277400  0.21814100  0.97391400  1
  O  890  1  0.04815600  0.20922800  0.98239600  1
  O  892  1  0.00646800  0.11066400  0.99681400  1
  O  893  1  0.97033700  0.11915800  0.99130700  1
  O  905  1  0.51276800  0.29954100  0.99636800  1
  O  906  1  0.54815200  0.30844500  0.98788800  1
  O  908  1  0.50649100  0.40701600  0.97345700  1
  O  909  1  0.47035800  0.39853000  0.97896200  1
  O  921  1  0.25478000  0.76995700  0.94403800  1
  O  922  1  0.21942400  0.76145200  0.93507300  1
  O  924  1  0.26130300  0.74717400  0.83653900  1
  O  925  1  0.29739900  0.75282200  0.84504900  1
  O  937  1  0.75476700  0.74773400  0.02625500  1
  O  938  1  0.71941400  0.75623700  0.03523000  1
  O  940  1  0.76132000  0.77049700  0.13375700  1
  O  941  1  0.79741500  0.76484700  0.12523900  1
  O  953  1  0.50443800  0.30028900  0.49593100  1
  O  954  1  0.46906700  0.30949100  0.48772200  1
  O  956  1  0.51159600  0.40786300  0.47357100  1
  O  957  1  0.54763500  0.39921200  0.47927200  1
  O  969  1  0.00444700  0.21738700  0.47436400  1
  O  970  1  0.96908700  0.20816900  0.48258500  1
  O  972  1  0.01166600  0.10980600  0.49666800  1
  O  973  1  0.04770200  0.11847600  0.49097800  1
  O  985  1  0.76276500  0.24759400  0.02590100  1
  O  986  1  0.79814500  0.25610400  0.03478800  1
  O  988  1  0.75652400  0.27055600  0.13336600  1
  O  989  1  0.72039100  0.26502100  0.12489600  1
  O  1001  1  0.26278600  0.27007100  0.94438600  1
  O  1002  1  0.29816300  0.26156400  0.93548500  1
  O  1004  1  0.25650100  0.24713600  0.83691500  1
  O  1005  1  0.22037200  0.25267100  0.84539700  1
  O  1017  1  0.51295000  0.71776200  0.47407900  1
  O  1018  1  0.54829400  0.70877500  0.48260200  1
  O  1020  1  0.50635600  0.61024700  0.49679400  1
  O  1021  1  0.47026700  0.61877100  0.49112700  1
  O  1033  1  0.01295400  0.79992000  0.49621400  1
  O  1034  1  0.04829600  0.80891100  0.48769400  1
  O  1036  1  0.00633700  0.90743500  0.47350900  1
  O  1037  1  0.97025000  0.89890500  0.47917500  1
  O  1049  1  0.91167300  0.20185000  0.25573800  1
  O  1050  1  0.94449500  0.18668500  0.24904300  1
  O  1052  1  0.84343600  0.12094400  0.22495500  1
  O  1053  1  0.87159100  0.10945300  0.20646700  1
  O  1065  1  0.41162100  0.31576300  0.71475300  1
  O  1066  1  0.44444600  0.33108500  0.72106100  1
  O  1068  1  0.34347500  0.39682500  0.74535400  1
  O  1069  1  0.37166000  0.40826900  0.76383700  1
  O  1081  1  0.16136800  0.98663500  0.92760200  1
  O  1082  1  0.19415900  0.99628100  0.91404400  1
  O  1084  1  0.09341300  0.01893000  0.84728200  1
  O  1085  1  0.12150100  0.03745900  0.83574000  1
  O  1097  1  0.66139100  0.53111600  0.04270900  1
  O  1098  1  0.69416200  0.52134300  0.05621300  1
  O  1100  1  0.59338000  0.49875200  0.12296200  1
  O  1101  1  0.62145800  0.48022100  0.13452400  1
  O  1113  1  0.60646600  0.31519400  0.25450100  1
  O  1114  1  0.57354400  0.33094100  0.24984100  1
  O  1116  1  0.67353600  0.39760100  0.22538900  1
  O  1117  1  0.64521400  0.40869900  0.20684400  1
  O  1129  1  0.10646200  0.20247600  0.71578500  1
  O  1130  1  0.07354300  0.18672500  0.72044200  1
  O  1132  1  0.17354700  0.12008300  0.74490600  1
  O  1133  1  0.14522400  0.10897800  0.76344700  1
  O  1145  1  0.35627900  0.53116300  0.92766100  1
  O  1146  1  0.32353300  0.52117500  0.91427000  1
  O  1148  1  0.42422800  0.49924600  0.84719100  1
  O  1149  1  0.39620900  0.48065900  0.83561400  1
  O  1161  1  0.85625500  0.98647200  0.04266000  1
  O  1162  1  0.82352100  0.99653800  0.05601900  1
  O  1164  1  0.92424500  0.01843500  0.12308400  1
  O  1165  1  0.89623400  0.03702100  0.13467400  1
  O  1177  1  0.10533200  0.81687300  0.71194000  1
  O  1178  1  0.07292400  0.83002100  0.72300100  1
  O  1180  1  0.17476300  0.89581400  0.74517700  1
  O  1181  1  0.14691700  0.90779000  0.76369700  1
  O  1193  1  0.60536700  0.70086100  0.25825300  1
  O  1194  1  0.57292600  0.68763600  0.24735500  1
  O  1196  1  0.67472000  0.62182600  0.22510800  1
  O  1197  1  0.64685900  0.60987600  0.20658900  1
  O  1209  1  0.41200300  0.70128600  0.71268300  1
  O  1210  1  0.44463600  0.68771200  0.72270300  1
  O  1212  1  0.34331200  0.62134500  0.74472500  1
  O  1213  1  0.37122700  0.60956600  0.76329800  1
  O  1225  1  0.91201400  0.81639400  0.25761600  1
  O  1226  1  0.94464500  0.82996600  0.24758800  1
  O  1228  1  0.84331700  0.89633100  0.22557000  1
  O  1229  1  0.87123000  0.90811300  0.20699900  1
  O  1241  1  0.66216100  0.48838800  0.42818400  1
  O  1242  1  0.69487800  0.49471200  0.41270100  1
  O  1244  1  0.59338800  0.51904900  0.34755200  1
  O  1245  1  0.62148400  0.53752100  0.33593300  1
  O  1257  1  0.16194400  0.02864100  0.54180300  1
  O  1258  1  0.19469400  0.02347800  0.55765400  1
  O  1260  1  0.09371700  0.99861000  0.62310500  1
  O  1261  1  0.12193300  0.98014200  0.63451700  1
  O  1273  1  0.85582200  0.02862500  0.42859900  1
  O  1274  1  0.82300600  0.02326000  0.41291200  1
  O  1276  1  0.92379300  0.99911200  0.34696300  1
  O  1277  1  0.89562300  0.98057200  0.33558000  1
  O  1289  1  0.35589800  0.48940700  0.54157200  1
  O  1290  1  0.32310000  0.49409900  0.55749400  1
  O  1292  1  0.42367700  0.51858900  0.62350600  1
  O  1293  1  0.39545300  0.53712800  0.63479500  1
  O  2089  1  0.97531100  0.26964900  0.44370400  1
  O  2090  1  0.93994000  0.26141700  0.43452400  1
  O  2092  1  0.98241000  0.24723700  0.33613800  1
  O  2093  1  0.01845210  0.25294700  0.34477200  1
  O  2105  1  0.47532500  0.24801900  0.52659400  1
  O  2106  1  0.43995000  0.25623900  0.53577500  1
  O  2108  1  0.48242300  0.27044300  0.63415800  1
  O  2109  1  0.51846800  0.26473100  0.62552600  1
  O  2121  1  0.22559900  0.79980800  0.99621200  1
  O  2122  1  0.19021900  0.80884600  0.98785700  1
  O  2124  1  0.23224200  0.90733200  0.97357100  1
  O  2125  1  0.26834800  0.89875400  0.97907600  1
  O  2137  1  0.72560000  0.71787000  0.97408600  1
  O  2138  1  0.69021700  0.70883800  0.98243700  1
  O  2140  1  0.73222100  0.61034700  0.99673800  1
  O  2141  1  0.76832900  0.61891800  0.99123000  1
  O  2153  1  0.48379400  0.74778900  0.52607100  1
  O  2154  1  0.51918200  0.75612700  0.53509900  1
  O  2156  1  0.47721500  0.77045700  0.63359300  1
  O  2157  1  0.44110000  0.76496500  0.62503100  1
  O  2169  1  0.98377900  0.76989900  0.44422800  1
  O  2170  1  0.01916810  0.76156100  0.43520600  1
  O  2172  1  0.97721000  0.74721400  0.33671000  1
  O  2173  1  0.94109600  0.75271200  0.34526700  1
  O  2185  1  0.23362400  0.21814100  0.97391400  1
  O  2186  1  0.26900600  0.20922800  0.98239600  1
  O  2188  1  0.22731800  0.11066400  0.99681400  1
  O  2189  1  0.19118700  0.11915800  0.99130700  1
  O  2201  1  0.73361800  0.29954100  0.99636800  1
  O  2202  1  0.76900200  0.30844500  0.98788800  1
  O  2204  1  0.72734100  0.40701600  0.97345700  1
  O  2205  1  0.69120800  0.39853000  0.97896200  1
  O  2217  1  0.47563000  0.76995700  0.94403800  1
  O  2218  1  0.44027400  0.76145200  0.93507300  1
  O  2220  1  0.48215300  0.74717400  0.83653900  1
  O  2221  1  0.51824900  0.75282200  0.84504900  1
  O  2233  1  0.97561700  0.74773400  0.02625500  1
  O  2234  1  0.94026400  0.75623700  0.03523000  1
  O  2236  1  0.98217000  0.77049700  0.13375700  1
  O  2237  1  0.01826510  0.76484700  0.12523900  1
  O  2249  1  0.72528800  0.30028900  0.49593100  1
  O  2250  1  0.68991700  0.30949100  0.48772200  1
  O  2252  1  0.73244600  0.40786300  0.47357100  1
  O  2253  1  0.76848500  0.39921200  0.47927200  1
  O  2265  1  0.22529700  0.21738700  0.47436400  1
  O  2266  1  0.18993700  0.20816900  0.48258500  1
  O  2268  1  0.23251600  0.10980600  0.49666800  1
  O  2269  1  0.26855200  0.11847600  0.49097800  1
  O  2281  1  0.98361500  0.24759400  0.02590100  1
  O  2282  1  0.01899510  0.25610400  0.03478800  1
  O  2284  1  0.97737400  0.27055600  0.13336600  1
  O  2285  1  0.94124100  0.26502100  0.12489600  1
  O  2297  1  0.48363600  0.27007100  0.94438600  1
  O  2298  1  0.51901300  0.26156400  0.93548500  1
  O  2300  1  0.47735100  0.24713600  0.83691500  1
  O  2301  1  0.44122200  0.25267100  0.84539700  1
  O  2313  1  0.73380000  0.71776200  0.47407900  1
  O  2314  1  0.76914400  0.70877500  0.48260200  1
  O  2316  1  0.72720600  0.61024700  0.49679400  1
  O  2317  1  0.69111700  0.61877100  0.49112700  1
  O  2329  1  0.23380400  0.79992000  0.49621400  1
  O  2330  1  0.26914600  0.80891100  0.48769400  1
  O  2332  1  0.22718700  0.90743500  0.47350900  1
  O  2333  1  0.19110000  0.89890500  0.47917500  1
  O  2345  1  0.13252300  0.20185000  0.25573800  1
  O  2346  1  0.16534500  0.18668500  0.24904300  1
  O  2348  1  0.06428610  0.12094400  0.22495500  1
  O  2349  1  0.09244110  0.10945300  0.20646700  1
  O  2361  1  0.63247100  0.31576300  0.71475300  1
  O  2362  1  0.66529600  0.33108500  0.72106100  1
  O  2364  1  0.56432500  0.39682500  0.74535400  1
  O  2365  1  0.59251000  0.40826900  0.76383700  1
  O  2377  1  0.38221800  0.98663500  0.92760200  1
  O  2378  1  0.41500900  0.99628100  0.91404400  1
  O  2380  1  0.31426300  0.01893000  0.84728200  1
  O  2381  1  0.34235100  0.03745900  0.83574000  1
  O  2393  1  0.88224100  0.53111600  0.04270900  1
  O  2394  1  0.91501200  0.52134300  0.05621300  1
  O  2396  1  0.81423000  0.49875200  0.12296200  1
  O  2397  1  0.84230800  0.48022100  0.13452400  1
  O  2409  1  0.82731600  0.31519400  0.25450100  1
  O  2410  1  0.79439400  0.33094100  0.24984100  1
  O  2412  1  0.89438600  0.39760100  0.22538900  1
  O  2413  1  0.86606400  0.40869900  0.20684400  1
  O  2425  1  0.32731200  0.20247600  0.71578500  1
  O  2426  1  0.29439300  0.18672500  0.72044200  1
  O  2428  1  0.39439700  0.12008300  0.74490600  1
  O  2429  1  0.36607400  0.10897800  0.76344700  1
  O  2441  1  0.57712900  0.53116300  0.92766100  1
  O  2442  1  0.54438300  0.52117500  0.91427000  1
  O  2444  1  0.64507800  0.49924600  0.84719100  1
  O  2445  1  0.61705900  0.48065900  0.83561400  1
  O  2457  1  0.07710510  0.98647200  0.04266000  1
  O  2458  1  0.04437110  0.99653800  0.05601900  1
  O  2460  1  0.14509500  0.01843500  0.12308400  1
  O  2461  1  0.11708400  0.03702100  0.13467400  1
  O  2473  1  0.32618200  0.81687300  0.71194000  1
  O  2474  1  0.29377400  0.83002100  0.72300100  1
  O  2476  1  0.39561300  0.89581400  0.74517700  1
  O  2477  1  0.36776700  0.90779000  0.76369700  1
  O  2489  1  0.82621700  0.70086100  0.25825300  1
  O  2490  1  0.79377600  0.68763600  0.24735500  1
  O  2492  1  0.89557000  0.62182600  0.22510800  1
  O  2493  1  0.86770900  0.60987600  0.20658900  1
  O  2505  1  0.63285300  0.70128600  0.71268300  1
  O  2506  1  0.66548600  0.68771200  0.72270300  1
  O  2508  1  0.56416200  0.62134500  0.74472500  1
  O  2509  1  0.59207700  0.60956600  0.76329800  1
  O  2521  1  0.13286400  0.81639400  0.25761600  1
  O  2522  1  0.16549500  0.82996600  0.24758800  1
  O  2524  1  0.06416710  0.89633100  0.22557000  1
  O  2525  1  0.09208010  0.90811300  0.20699900  1
  O  2537  1  0.88301100  0.48838800  0.42818400  1
  O  2538  1  0.91572800  0.49471200  0.41270100  1
  O  2540  1  0.81423800  0.51904900  0.34755200  1
  O  2541  1  0.84233400  0.53752100  0.33593300  1
  O  2553  1  0.38279400  0.02864100  0.54180300  1
  O  2554  1  0.41554400  0.02347800  0.55765400  1
  O  2556  1  0.31456700  0.99861000  0.62310500  1
  O  2557  1  0.34278300  0.98014200  0.63451700  1
  O  2569  1  0.07667210  0.02862500  0.42859900  1
  O  2570  1  0.04385610  0.02326000  0.41291200  1
  O  2572  1  0.14464300  0.99911200  0.34696300  1
  O  2573  1  0.11647300  0.98057200  0.33558000  1
  O  2585  1  0.57674800  0.48940700  0.54157200  1
  O  2586  1  0.54395000  0.49409900  0.55749400  1
  O  2588  1  0.64452700  0.51858900  0.62350600  1
  O  2589  1  0.61630300  0.53712800  0.63479500  1
  O  3385  1  0.19616100  0.26964900  0.44370400  1
  O  3386  1  0.16079000  0.26141700  0.43452400  1
  O  3388  1  0.20326000  0.24723700  0.33613800  1
  O  3389  1  0.23930200  0.25294700  0.34477200  1
  O  3401  1  0.69617500  0.24801900  0.52659400  1
  O  3402  1  0.66080000  0.25623900  0.53577500  1
  O  3404  1  0.70327300  0.27044300  0.63415800  1
  O  3405  1  0.73931800  0.26473100  0.62552600  1
  O  3417  1  0.44644900  0.79980800  0.99621200  1
  O  3418  1  0.41106900  0.80884600  0.98785700  1
  O  3420  1  0.45309200  0.90733200  0.97357100  1
  O  3421  1  0.48919800  0.89875400  0.97907600  1
  O  3433  1  0.94645000  0.71787000  0.97408600  1
  O  3434  1  0.91106700  0.70883800  0.98243700  1
  O  3436  1  0.95307100  0.61034700  0.99673800  1
  O  3437  1  0.98917900  0.61891800  0.99123000  1
  O  3449  1  0.70464400  0.74778900  0.52607100  1
  O  3450  1  0.74003200  0.75612700  0.53509900  1
  O  3452  1  0.69806500  0.77045700  0.63359300  1
  O  3453  1  0.66195000  0.76496500  0.62503100  1
  O  3465  1  0.20462900  0.76989900  0.44422800  1
  O  3466  1  0.24001800  0.76156100  0.43520600  1
  O  3468  1  0.19806000  0.74721400  0.33671000  1
  O  3469  1  0.16194600  0.75271200  0.34526700  1
  O  3481  1  0.45447400  0.21814100  0.97391400  1
  O  3482  1  0.48985600  0.20922800  0.98239600  1
  O  3484  1  0.44816800  0.11066400  0.99681400  1
  O  3485  1  0.41203700  0.11915800  0.99130700  1
  O  3497  1  0.95446800  0.29954100  0.99636800  1
  O  3498  1  0.98985200  0.30844500  0.98788800  1
  O  3500  1  0.94819100  0.40701600  0.97345700  1
  O  3501  1  0.91205800  0.39853000  0.97896200  1
  O  3513  1  0.69648000  0.76995700  0.94403800  1
  O  3514  1  0.66112400  0.76145200  0.93507300  1
  O  3516  1  0.70300300  0.74717400  0.83653900  1
  O  3517  1  0.73909900  0.75282200  0.84504900  1
  O  3529  1  0.19646700  0.74773400  0.02625500  1
  O  3530  1  0.16111400  0.75623700  0.03523000  1
  O  3532  1  0.20302000  0.77049700  0.13375700  1
  O  3533  1  0.23911500  0.76484700  0.12523900  1
  O  3545  1  0.94613800  0.30028900  0.49593100  1
  O  3546  1  0.91076700  0.30949100  0.48772200  1
  O  3548  1  0.95329600  0.40786300  0.47357100  1
  O  3549  1  0.98933500  0.39921200  0.47927200  1
  O  3561  1  0.44614700  0.21738700  0.47436400  1
  O  3562  1  0.41078700  0.20816900  0.48258500  1
  O  3564  1  0.45336600  0.10980600  0.49666800  1
  O  3565  1  0.48940200  0.11847600  0.49097800  1
  O  3577  1  0.20446500  0.24759400  0.02590100  1
  O  3578  1  0.23984500  0.25610400  0.03478800  1
  O  3580  1  0.19822400  0.27055600  0.13336600  1
  O  3581  1  0.16209100  0.26502100  0.12489600  1
  O  3593  1  0.70448600  0.27007100  0.94438600  1
  O  3594  1  0.73986300  0.26156400  0.93548500  1
  O  3596  1  0.69820100  0.24713600  0.83691500  1
  O  3597  1  0.66207200  0.25267100  0.84539700  1
  O  3609  1  0.95465000  0.71776200  0.47407900  1
  O  3610  1  0.98999400  0.70877500  0.48260200  1
  O  3612  1  0.94805600  0.61024700  0.49679400  1
  O  3613  1  0.91196700  0.61877100  0.49112700  1
  O  3625  1  0.45465400  0.79992000  0.49621400  1
  O  3626  1  0.48999600  0.80891100  0.48769400  1
  O  3628  1  0.44803700  0.90743500  0.47350900  1
  O  3629  1  0.41195000  0.89890500  0.47917500  1
  O  3641  1  0.35337300  0.20185000  0.25573800  1
  O  3642  1  0.38619500  0.18668500  0.24904300  1
  O  3644  1  0.28513600  0.12094400  0.22495500  1
  O  3645  1  0.31329100  0.10945300  0.20646700  1
  O  3657  1  0.85332100  0.31576300  0.71475300  1
  O  3658  1  0.88614600  0.33108500  0.72106100  1
  O  3660  1  0.78517500  0.39682500  0.74535400  1
  O  3661  1  0.81336000  0.40826900  0.76383700  1
  O  3673  1  0.60306800  0.98663500  0.92760200  1
  O  3674  1  0.63585900  0.99628100  0.91404400  1
  O  3676  1  0.53511300  0.01893000  0.84728200  1
  O  3677  1  0.56320100  0.03745900  0.83574000  1
  O  3689  1  0.10309100  0.53111600  0.04270900  1
  O  3690  1  0.13586200  0.52134300  0.05621300  1
  O  3692  1  0.03508020  0.49875200  0.12296200  1
  O  3693  1  0.06315820  0.48022100  0.13452400  1
  O  3705  1  0.04816620  0.31519400  0.25450100  1
  O  3706  1  0.01524420  0.33094100  0.24984100  1
  O  3708  1  0.11523600  0.39760100  0.22538900  1
  O  3709  1  0.08691420  0.40869900  0.20684400  1
  O  3721  1  0.54816200  0.20247600  0.71578500  1
  O  3722  1  0.51524300  0.18672500  0.72044200  1
  O  3724  1  0.61524700  0.12008300  0.74490600  1
  O  3725  1  0.58692400  0.10897800  0.76344700  1
  O  3737  1  0.79797900  0.53116300  0.92766100  1
  O  3738  1  0.76523300  0.52117500  0.91427000  1
  O  3740  1  0.86592800  0.49924600  0.84719100  1
  O  3741  1  0.83790900  0.48065900  0.83561400  1
  O  3753  1  0.29795500  0.98647200  0.04266000  1
  O  3754  1  0.26522100  0.99653800  0.05601900  1
  O  3756  1  0.36594500  0.01843500  0.12308400  1
  O  3757  1  0.33793400  0.03702100  0.13467400  1
  O  3769  1  0.54703200  0.81687300  0.71194000  1
  O  3770  1  0.51462400  0.83002100  0.72300100  1
  O  3772  1  0.61646300  0.89581400  0.74517700  1
  O  3773  1  0.58861700  0.90779000  0.76369700  1
  O  3785  1  0.04706720  0.70086100  0.25825300  1
  O  3786  1  0.01462620  0.68763600  0.24735500  1
  O  3788  1  0.11642000  0.62182600  0.22510800  1
  O  3789  1  0.08855920  0.60987600  0.20658900  1
  O  3801  1  0.85370300  0.70128600  0.71268300  1
  O  3802  1  0.88633600  0.68771200  0.72270300  1
  O  3804  1  0.78501200  0.62134500  0.74472500  1
  O  3805  1  0.81292700  0.60956600  0.76329800  1
  O  3817  1  0.35371400  0.81639400  0.25761600  1
  O  3818  1  0.38634500  0.82996600  0.24758800  1
  O  3820  1  0.28501700  0.89633100  0.22557000  1
  O  3821  1  0.31293000  0.90811300  0.20699900  1
  O  3833  1  0.10386100  0.48838800  0.42818400  1
  O  3834  1  0.13657800  0.49471200  0.41270100  1
  O  3836  1  0.03508820  0.51904900  0.34755200  1
  O  3837  1  0.06318420  0.53752100  0.33593300  1
  O  3849  1  0.60364400  0.02864100  0.54180300  1
  O  3850  1  0.63639400  0.02347800  0.55765400  1
  O  3852  1  0.53541700  0.99861000  0.62310500  1
  O  3853  1  0.56363300  0.98014200  0.63451700  1
  O  3865  1  0.29752200  0.02862500  0.42859900  1
  O  3866  1  0.26470600  0.02326000  0.41291200  1
  O  3868  1  0.36549300  0.99911200  0.34696300  1
  O  3869  1  0.33732300  0.98057200  0.33558000  1
  O  3881  1  0.79759800  0.48940700  0.54157200  1
  O  3882  1  0.76480000  0.49409900  0.55749400  1
  O  3884  1  0.86537700  0.51858900  0.62350600  1
  O  3885  1  0.83715300  0.53712800  0.63479500  1
  O  4681  1  0.41701100  0.26964900  0.44370400  1
  O  4682  1  0.38164000  0.26141700  0.43452400  1
  O  4684  1  0.42411000  0.24723700  0.33613800  1
  O  4685  1  0.46015200  0.25294700  0.34477200  1
  O  4697  1  0.91702500  0.24801900  0.52659400  1
  O  4698  1  0.88165000  0.25623900  0.53577500  1
  O  4700  1  0.92412300  0.27044300  0.63415800  1
  O  4701  1  0.96016800  0.26473100  0.62552600  1
  O  4713  1  0.66729900  0.79980800  0.99621200  1
  O  4714  1  0.63191900  0.80884600  0.98785700  1
  O  4716  1  0.67394200  0.90733200  0.97357100  1
  O  4717  1  0.71004800  0.89875400  0.97907600  1
  O  4729  1  0.16730000  0.71787000  0.97408600  1
  O  4730  1  0.13191700  0.70883800  0.98243700  1
  O  4732  1  0.17392100  0.61034700  0.99673800  1
  O  4733  1  0.21002900  0.61891800  0.99123000  1
  O  4745  1  0.92549400  0.74778900  0.52607100  1
  O  4746  1  0.96088200  0.75612700  0.53509900  1
  O  4748  1  0.91891500  0.77045700  0.63359300  1
  O  4749  1  0.88280000  0.76496500  0.62503100  1
  O  4761  1  0.42547900  0.76989900  0.44422800  1
  O  4762  1  0.46086800  0.76156100  0.43520600  1
  O  4764  1  0.41891000  0.74721400  0.33671000  1
  O  4765  1  0.38279600  0.75271200  0.34526700  1
  O  4777  1  0.67532400  0.21814100  0.97391400  1
  O  4778  1  0.71070600  0.20922800  0.98239600  1
  O  4780  1  0.66901800  0.11066400  0.99681400  1
  O  4781  1  0.63288700  0.11915800  0.99130700  1
  O  4793  1  0.17531800  0.29954100  0.99636800  1
  O  4794  1  0.21070200  0.30844500  0.98788800  1
  O  4796  1  0.16904100  0.40701600  0.97345700  1
  O  4797  1  0.13290800  0.39853000  0.97896200  1
  O  4809  1  0.91733000  0.76995700  0.94403800  1
  O  4810  1  0.88197400  0.76145200  0.93507300  1
  O  4812  1  0.92385300  0.74717400  0.83653900  1
  O  4813  1  0.95994900  0.75282200  0.84504900  1
  O  4825  1  0.41731700  0.74773400  0.02625500  1
  O  4826  1  0.38196400  0.75623700  0.03523000  1
  O  4828  1  0.42387000  0.77049700  0.13375700  1
  O  4829  1  0.45996500  0.76484700  0.12523900  1
  O  4841  1  0.16698800  0.30028900  0.49593100  1
  O  4842  1  0.13161700  0.30949100  0.48772200  1
  O  4844  1  0.17414600  0.40786300  0.47357100  1
  O  4845  1  0.21018500  0.39921200  0.47927200  1
  O  4857  1  0.66699700  0.21738700  0.47436400  1
  O  4858  1  0.63163700  0.20816900  0.48258500  1
  O  4860  1  0.67421600  0.10980600  0.49666800  1
  O  4861  1  0.71025200  0.11847600  0.49097800  1
  O  4873  1  0.42531500  0.24759400  0.02590100  1
  O  4874  1  0.46069500  0.25610400  0.03478800  1
  O  4876  1  0.41907400  0.27055600  0.13336600  1
  O  4877  1  0.38294100  0.26502100  0.12489600  1
  O  4889  1  0.92533600  0.27007100  0.94438600  1
  O  4890  1  0.96071300  0.26156400  0.93548500  1
  O  4892  1  0.91905100  0.24713600  0.83691500  1
  O  4893  1  0.88292200  0.25267100  0.84539700  1
  O  4905  1  0.17550000  0.71776200  0.47407900  1
  O  4906  1  0.21084400  0.70877500  0.48260200  1
  O  4908  1  0.16890600  0.61024700  0.49679400  1
  O  4909  1  0.13281700  0.61877100  0.49112700  1
  O  4921  1  0.67550400  0.79992000  0.49621400  1
  O  4922  1  0.71084600  0.80891100  0.48769400  1
  O  4924  1  0.66888700  0.90743500  0.47350900  1
  O  4925  1  0.63280000  0.89890500  0.47917500  1
  O  4937  1  0.57422300  0.20185000  0.25573800  1
  O  4938  1  0.60704500  0.18668500  0.24904300  1
  O  4940  1  0.50598600  0.12094400  0.22495500  1
  O  4941  1  0.53414100  0.10945300  0.20646700  1
  O  4953  1  0.07417130  0.31576300  0.71475300  1
  O  4954  1  0.10699600  0.33108500  0.72106100  1
  O  4956  1  0.00602527  0.39682500  0.74535400  1
  O  4957  1  0.03421030  0.40826900  0.76383700  1
  O  4969  1  0.82391800  0.98663500  0.92760200  1
  O  4970  1  0.85670900  0.99628100  0.91404400  1
  O  4972  1  0.75596300  0.01893000  0.84728200  1
  O  4973  1  0.78405100  0.03745900  0.83574000  1
  O  4985  1  0.32394100  0.53111600  0.04270900  1
  O  4986  1  0.35671200  0.52134300  0.05621300  1
  O  4988  1  0.25593000  0.49875200  0.12296200  1
  O  4989  1  0.28400800  0.48022100  0.13452400  1
  O  5001  1  0.26901600  0.31519400  0.25450100  1
  O  5002  1  0.23609400  0.33094100  0.24984100  1
  O  5004  1  0.33608600  0.39760100  0.22538900  1
  O  5005  1  0.30776400  0.40869900  0.20684400  1
  O  5017  1  0.76901200  0.20247600  0.71578500  1
  O  5018  1  0.73609300  0.18672500  0.72044200  1
  O  5020  1  0.83609700  0.12008300  0.74490600  1
  O  5021  1  0.80777400  0.10897800  0.76344700  1
  O  5033  1  0.01882930  0.53116300  0.92766100  1
  O  5034  1  0.98608300  0.52117500  0.91427000  1
  O  5036  1  0.08677830  0.49924600  0.84719100  1
  O  5037  1  0.05875930  0.48065900  0.83561400  1
  O  5049  1  0.51880500  0.98647200  0.04266000  1
  O  5050  1  0.48607100  0.99653800  0.05601900  1
  O  5052  1  0.58679500  0.01843500  0.12308400  1
  O  5053  1  0.55878400  0.03702100  0.13467400  1
  O  5065  1  0.76788200  0.81687300  0.71194000  1
  O  5066  1  0.73547400  0.83002100  0.72300100  1
  O  5068  1  0.83731300  0.89581400  0.74517700  1
  O  5069  1  0.80946700  0.90779000  0.76369700  1
  O  5081  1  0.26791700  0.70086100  0.25825300  1
  O  5082  1  0.23547600  0.68763600  0.24735500  1
  O  5084  1  0.33727000  0.62182600  0.22510800  1
  O  5085  1  0.30940900  0.60987600  0.20658900  1
  O  5097  1  0.07455330  0.70128600  0.71268300  1
  O  5098  1  0.10718600  0.68771200  0.72270300  1
  O  5100  1  0.00586227  0.62134500  0.74472500  1
  O  5101  1  0.03377730  0.60956600  0.76329800  1
  O  5113  1  0.57456400  0.81639400  0.25761600  1
  O  5114  1  0.60719500  0.82996600  0.24758800  1
  O  5116  1  0.50586700  0.89633100  0.22557000  1
  O  5117  1  0.53378000  0.90811300  0.20699900  1
  O  5129  1  0.32471100  0.48838800  0.42818400  1
  O  5130  1  0.35742800  0.49471200  0.41270100  1
  O  5132  1  0.25593800  0.51904900  0.34755200  1
  O  5133  1  0.28403400  0.53752100  0.33593300  1
  O  5145  1  0.82449400  0.02864100  0.54180300  1
  O  5146  1  0.85724400  0.02347800  0.55765400  1
  O  5148  1  0.75626700  0.99861000  0.62310500  1
  O  5149  1  0.78448300  0.98014200  0.63451700  1
  O  5161  1  0.51837200  0.02862500  0.42859900  1
  O  5162  1  0.48555600  0.02326000  0.41291200  1
  O  5164  1  0.58634300  0.99911200  0.34696300  1
  O  5165  1  0.55817300  0.98057200  0.33558000  1
  O  5177  1  0.01844830  0.48940700  0.54157200  1
  O  5178  1  0.98565000  0.49409900  0.55749400  1
  O  5180  1  0.08622730  0.51858900  0.62350600  1
  O  5181  1  0.05800330  0.53712800  0.63479500  1
