# generated using pymatgen
data_H52C55N8
_symmetry_space_group_name_H-M   'P 1'
_cell_length_a   28.85740000
_cell_length_b   32.35260000
_cell_length_c   60.14050000
_cell_angle_alpha   90.00000000
_cell_angle_beta   90.00000000
_cell_angle_gamma   89.99970000
_symmetry_Int_Tables_number   1
_chemical_formula_structural   H52C55N8
_chemical_formula_sum   'H416 C440 N64'
_cell_volume   56147.88762828
_cell_formula_units_Z   8
loop_
 _symmetry_equiv_pos_site_id
 _symmetry_equiv_pos_as_xyz
  1  'x, y, z'
loop_
 _atom_site_type_symbol
 _atom_site_label
 _atom_site_symmetry_multiplicity
 _atom_site_fract_x
 _atom_site_fract_y
 _atom_site_fract_z
 _atom_site_occupancy
  H  25  1  0.92014200  0.61615200  0.82804600  1
  H  26  1  0.95790400  0.68125600  0.82572500  1
  H  27  1  0.96665000  0.83109600  0.84229400  1
  H  28  1  0.93506700  0.89273000  0.85786200  1
  H  29  1  0.81897900  0.82643000  0.88035100  1
  H  30  1  0.81512400  0.66894300  0.86735000  1
  H  31  1  0.81916100  0.76002600  0.82420500  1
  H  32  1  0.67434600  0.76406400  0.83179400  1
  H  33  1  0.68244100  0.75297800  0.87077100  1
  H  34  1  0.91916800  0.74367200  0.89488900  1
  H  35  1  0.77818800  0.73074900  0.93789600  1
  H  36  1  0.85154100  0.72925700  0.95625500  1
  H  39  1  0.96782600  0.75071600  0.84969800  1
  H  40  1  0.93799100  0.76019100  0.82443600  1
  H  42  1  0.74024500  0.76783900  0.90348100  1
  H  43  1  0.73929800  0.71376700  0.89868500  1
  H  45  1  0.96599400  0.73706700  0.92734300  1
  H  46  1  0.94057700  0.71523800  0.95107000  1
  H  48  1  0.77278700  0.76630800  0.79098100  1
  H  49  1  0.72587200  0.79905100  0.79738400  1
  H  51  1  0.87769300  0.91907500  0.89008800  1
  H  52  1  0.82182600  0.89811900  0.88842600  1
  H  54  1  0.83359900  0.58712200  0.86634900  1
  H  55  1  0.80190100  0.60335000  0.84312100  1
  H  80  1  0.91963700  0.87724500  0.16653500  1
  H  81  1  0.95678900  0.81176900  0.16731000  1
  H  82  1  0.95976200  0.66162600  0.15131600  1
  H  83  1  0.92383400  0.60001100  0.13808700  1
  H  84  1  0.80425200  0.66720600  0.12139400  1
  H  85  1  0.80620200  0.82520600  0.13265900  1
  H  86  1  0.81743200  0.73916900  0.17668600  1
  H  87  1  0.67179400  0.73406500  0.17570700  1
  H  88  1  0.67205300  0.73904800  0.13642900  1
  H  89  1  0.90225700  0.75220600  0.10093900  1
  H  90  1  0.75234700  0.75577800  0.06483300  1
  H  91  1  0.82123100  0.75933600  0.04298300  1
  H  94  1  0.96044100  0.74176300  0.14328600  1
  H  95  1  0.93632400  0.73328900  0.17001700  1
  H  97  1  0.72386000  0.72033400  0.10181800  1
  H  98  1  0.72112800  0.77480600  0.10491600  1
  H  100  1  0.90827400  0.72917300  0.04523200  1
  H  101  1  0.94178000  0.75327100  0.06590200  1
  H  103  1  0.77709200  0.74274500  0.21213000  1
  H  104  1  0.73373000  0.70494900  0.21014400  1
  H  106  1  0.85852200  0.57384400  0.10923600  1
  H  107  1  0.80378900  0.59542200  0.11408300  1
  H  109  1  0.82785600  0.90779500  0.13240200  1
  H  110  1  0.79851200  0.89115200  0.15625400  1
  H  135  1  0.88376700  0.10199600  0.14301700  1
  H  136  1  0.85111300  0.16444200  0.15705500  1
  H  137  1  0.85773400  0.31542200  0.17032600  1
  H  138  1  0.89484600  0.38058900  0.16680900  1
  H  139  1  0.00030500  0.32621400  0.12837400  1
  H  140  1  0.99989300  0.16754700  0.12000100  1
  H  141  1  0.99646800  0.24330700  0.17445600  1
  H  142  1  0.14131900  0.25211400  0.16845400  1
  H  143  1  0.13488800  0.24928600  0.12903400  1
  H  144  1  0.89934600  0.25401800  0.10245500  1
  H  145  1  0.04161900  0.24480700  0.06014600  1
  H  146  1  0.96911100  0.24703800  0.04126500  1
  H  149  1  0.84893700  0.24397200  0.14780700  1
  H  150  1  0.87855400  0.23713500  0.17337600  1
  H  152  1  0.07968900  0.27281100  0.09759500  1
  H  153  1  0.07775800  0.21802700  0.09761300  1
  H  155  1  0.85367300  0.25507500  0.06976800  1
  H  156  1  0.87857000  0.22827000  0.04751000  1
  H  158  1  0.04149700  0.24535800  0.20831000  1
  H  159  1  0.08202800  0.28466200  0.20258600  1
  H  161  1  0.98033200  0.40867500  0.12818100  1
  H  162  1  0.01324500  0.39297800  0.15111100  1
  H  164  1  0.94186400  0.07494700  0.11096300  1
  H  165  1  0.99780900  0.09553200  0.11312500  1
  H  190  1  0.88829600  0.39354600  0.86042600  1
  H  191  1  0.85228900  0.33081500  0.84869000  1
  H  192  1  0.85685300  0.18033900  0.83385500  1
  H  193  1  0.89544200  0.11555600  0.83409600  1
  H  194  1  0.01284600  0.17097400  0.86298700  1
  H  195  1  0.01180000  0.32924300  0.87339600  1
  H  196  1  0.98646800  0.25427400  0.81837000  1
  H  197  1  0.12915300  0.27362700  0.80889100  1
  H  198  1  0.14153800  0.26789000  0.84784100  1
  H  199  1  0.92523500  0.24121500  0.89851500  1
  H  200  1  0.08369800  0.24839900  0.92473000  1
  H  201  1  0.02167600  0.24268700  0.95086600  1
  H  204  1  0.85490100  0.25089600  0.85714200  1
  H  205  1  0.87518500  0.25917600  0.82966900  1
  H  207  1  0.10529400  0.22872800  0.88295200  1
  H  208  1  0.09903200  0.28299000  0.88575200  1
  H  210  1  0.93840200  0.21681800  0.95632800  1
  H  211  1  0.89710200  0.22969500  0.93594800  1
  H  213  1  0.01394100  0.27866300  0.78301000  1
  H  214  1  0.04126900  0.23072800  0.78005000  1
  H  216  1  0.99036000  0.08749900  0.86605800  1
  H  217  1  0.01822100  0.10317800  0.84161800  1
  H  219  1  0.95499200  0.42158000  0.88728700  1
  H  220  1  0.00982100  0.40038400  0.88227900  1
  H  245  1  0.42540200  0.11520600  0.33147700  1
  H  246  1  0.46047100  0.18147200  0.32874200  1
  H  247  1  0.46076200  0.33241500  0.34212900  1
  H  248  1  0.42590800  0.39378300  0.35630200  1
  H  249  1  0.31050600  0.32511800  0.37767900  1
  H  250  1  0.31411700  0.16667000  0.36706700  1
  H  251  1  0.31942300  0.25730600  0.32216600  1
  H  252  1  0.17540100  0.23784600  0.32439900  1
  H  253  1  0.17849900  0.23272400  0.36384300  1
  H  254  1  0.41062300  0.24784100  0.39614700  1
  H  255  1  0.26502400  0.22660400  0.43444400  1
  H  256  1  0.33548100  0.22917200  0.45515100  1
  H  259  1  0.46470200  0.25291600  0.35112300  1
  H  260  1  0.43664400  0.25947500  0.32513200  1
  H  262  1  0.22851000  0.25948200  0.39831200  1
  H  263  1  0.23453300  0.20539400  0.39448900  1
  H  265  1  0.45304500  0.24494500  0.43019600  1
  H  266  1  0.42628200  0.21784300  0.45196300  1
  H  268  1  0.23914200  0.21811000  0.28965700  1
  H  269  1  0.27666800  0.26094700  0.28741200  1
  H  271  1  0.36689000  0.41883500  0.38807800  1
  H  272  1  0.31151500  0.39708100  0.38575300  1
  H  274  1  0.33618400  0.08526100  0.36790200  1
  H  275  1  0.30597000  0.09959100  0.34387500  1
  H  300  1  0.43305400  0.37588900  0.66156600  1
  H  301  1  0.46900600  0.30980200  0.66107000  1
  H  302  1  0.46376700  0.15823400  0.64844200  1
  H  303  1  0.42298000  0.09676500  0.63866600  1
  H  304  1  0.30026600  0.16523300  0.63098100  1
  H  305  1  0.30954600  0.32360000  0.63739400  1
  H  306  1  0.33930300  0.24158500  0.68277300  1
  H  307  1  0.19797000  0.25435200  0.69818300  1
  H  308  1  0.17925400  0.25215400  0.65979700  1
  H  309  1  0.38750200  0.24182900  0.60038400  1
  H  310  1  0.22552600  0.25356000  0.58039300  1
  H  311  1  0.28313700  0.25041300  0.55189900  1
  H  314  1  0.46360000  0.23740900  0.63904900  1
  H  315  1  0.44784000  0.23208000  0.66739400  1
  H  317  1  0.21146800  0.22310800  0.62086800  1
  H  318  1  0.21481500  0.27776200  0.62219600  1
  H  320  1  0.36032000  0.22138900  0.54242800  1
  H  321  1  0.40483900  0.22174400  0.56201600  1
  H  323  1  0.28284600  0.28905000  0.72091300  1
  H  324  1  0.32042800  0.24715200  0.72013900  1
  H  326  1  0.34979600  0.07223300  0.61409200  1
  H  327  1  0.29725500  0.09414800  0.62256500  1
  H  329  1  0.33511400  0.40728800  0.63359800  1
  H  330  1  0.30889800  0.39073600  0.65829700  1
  H  355  1  0.38733900  0.60382500  0.64151300  1
  H  356  1  0.35509800  0.66609800  0.65608500  1
  H  357  1  0.36316500  0.81627800  0.67119300  1
  H  358  1  0.40086800  0.88128900  0.66862600  1
  H  359  1  0.50804300  0.82730400  0.63109500  1
  H  360  1  0.50478200  0.66915400  0.61990200  1
  H  361  1  0.49836400  0.74174100  0.67658200  1
  H  362  1  0.64351600  0.73112900  0.67397500  1
  H  363  1  0.64125300  0.73585400  0.63445800  1
  H  364  1  0.40970400  0.75782200  0.60200200  1
  H  365  1  0.55704600  0.74974800  0.56373500  1
  H  366  1  0.48722400  0.75467100  0.54285700  1
  H  369  1  0.35439800  0.74614900  0.64787500  1
  H  370  1  0.38311900  0.73754300  0.67352600  1
  H  372  1  0.59190400  0.77150000  0.60294800  1
  H  373  1  0.58621000  0.71703400  0.60095800  1
  H  375  1  0.36821400  0.76194700  0.56755400  1
  H  376  1  0.39641500  0.73122300  0.54772200  1
  H  378  1  0.58682400  0.70490600  0.70816500  1
  H  379  1  0.54031900  0.73975800  0.71150100  1
  H  381  1  0.48636800  0.91014500  0.63055700  1
  H  382  1  0.51971800  0.89441300  0.65333200  1
  H  384  1  0.44482500  0.57710900  0.60962900  1
  H  385  1  0.50078000  0.59785600  0.61120000  1
  H  410  1  0.39057900  0.89739100  0.36876000  1
  H  411  1  0.35028800  0.83745400  0.35609100  1
  H  412  1  0.34572400  0.68910700  0.33607300  1
  H  413  1  0.38080700  0.62290800  0.33324500  1
  H  414  1  0.50412400  0.67041500  0.36036100  1
  H  415  1  0.51130100  0.82663800  0.37781900  1
  H  416  1  0.47926000  0.77143700  0.32172700  1
  H  417  1  0.62277600  0.77064100  0.30968100  1
  H  418  1  0.63649900  0.75117500  0.34737800  1
  H  419  1  0.42122000  0.73903300  0.40063500  1
  H  420  1  0.58066600  0.72197600  0.42387100  1
  H  421  1  0.51955800  0.71377500  0.45032700  1
  H  424  1  0.34968200  0.75623900  0.36178900  1
  H  425  1  0.36764900  0.76792900  0.33430500  1
  H  427  1  0.59589600  0.71042600  0.38065200  1
  H  428  1  0.59985700  0.76376800  0.38712000  1
  H  430  1  0.43878500  0.70412700  0.45886400  1
  H  431  1  0.40098600  0.69862100  0.43648800  1
  H  433  1  0.55830800  0.81766900  0.28687600  1
  H  434  1  0.50414100  0.79466600  0.28717200  1
  H  436  1  0.47863600  0.58818400  0.36136700  1
  H  437  1  0.50327800  0.60491500  0.33628600  1
  H  439  1  0.46093200  0.92171800  0.39398100  1
  H  440  1  0.51379600  0.89740300  0.38823400  1
  H  451  1  0.85595900  0.81570900  0.01065700  1
  H  452  1  0.86738300  0.81027000  0.97114500  1
  H  455  1  0.08037800  0.71415400  0.96751800  1
  H  456  1  0.10736600  0.70754200  0.99336100  1
  H  457  1  0.13306100  0.78225500  0.99254100  1
  H  458  1  0.10600400  0.78798000  0.96617600  1
  H  459  1  0.15368000  0.75395700  0.96933700  1
  H  462  1  0.06980900  0.75705800  0.04921600  1
  H  463  1  0.10978500  0.74317300  0.02861500  1
  H  464  1  0.03537400  0.68625600  0.04868100  1
  H  465  1  0.09559800  0.68474700  0.05440100  1
  H  466  1  0.07509400  0.67124300  0.02760200  1
  H  468  1  0.96867900  0.79784100  0.94475900  1
  H  470  1  0.93528400  0.81599100  0.04968200  1
  H  481  1  0.97296800  0.31452500  0.98500300  1
  H  482  1  0.95398300  0.32125800  0.02375300  1
  H  485  1  0.74526800  0.21451900  0.02622300  1
  H  486  1  0.71955300  0.20728300  0.00013500  1
  H  487  1  0.69767100  0.28244300  0.99876500  1
  H  488  1  0.72263700  0.28947100  0.02553000  1
  H  489  1  0.67381900  0.25683800  0.02217100  1
  H  492  1  0.77155200  0.23488200  0.94335200  1
  H  493  1  0.72661700  0.23003300  0.96275000  1
  H  494  1  0.80256100  0.16548700  0.95339000  1
  H  495  1  0.74398100  0.16268700  0.94468400  1
  H  496  1  0.75772200  0.15917300  0.97332800  1
  H  498  1  0.84948700  0.30990200  0.04738900  1
  H  500  1  0.90253500  0.29923500  0.94346600  1
  H  511  1  0.33364100  0.29928100  0.51587700  1
  H  512  1  0.34478500  0.30163900  0.47626500  1
  H  515  1  0.56702600  0.22386100  0.46850600  1
  H  516  1  0.59698700  0.22010800  0.49374000  1
  H  517  1  0.61165300  0.29681900  0.49319500  1
  H  518  1  0.58195800  0.30021600  0.46735900  1
  H  519  1  0.63423600  0.27170800  0.46934900  1
  H  522  1  0.55378200  0.25452000  0.55144400  1
  H  523  1  0.59496400  0.24984600  0.53019800  1
  H  524  1  0.52999200  0.18100500  0.54677100  1
  H  525  1  0.59011200  0.18528000  0.55233200  1
  H  526  1  0.57084500  0.17490300  0.52492900  1
  H  528  1  0.44585500  0.30402200  0.44911300  1
  H  530  1  0.37847800  0.30532000  0.55249300  1
  H  541  1  0.46921800  0.79087500  0.47419800  1
  H  542  1  0.46770700  0.80765100  0.51319300  1
  H  545  1  0.24979100  0.74498300  0.54227800  1
  H  546  1  0.22101500  0.71660500  0.52167300  1
  H  547  1  0.19011100  0.78438800  0.50578700  1
  H  548  1  0.21990900  0.81126000  0.52717900  1
  H  549  1  0.17415300  0.77695600  0.53393100  1
  H  552  1  0.23501100  0.74370100  0.45931100  1
  H  553  1  0.20863600  0.72337300  0.48319700  1
  H  554  1  0.28137700  0.67861400  0.45502600  1
  H  555  1  0.22126800  0.66783900  0.45626500  1
  H  556  1  0.25651700  0.65895800  0.47992900  1
  H  558  1  0.37568500  0.81833000  0.54614100  1
  H  560  1  0.40891100  0.78336300  0.44009100  1
  H  571  1  0.94950600  0.99223300  0.81673900  1
  H  572  1  0.89661100  0.93807900  0.82611100  1
  H  575  1  0.77831200  0.03187200  0.91313500  1
  H  576  1  0.80883100  0.07182600  0.92630100  1
  H  577  1  0.83118600  0.97973800  0.93091100  1
  H  578  1  0.80455600  0.01183400  0.95107000  1
  H  579  1  0.86308200  0.02058400  0.94345300  1
  H  582  1  0.91251300  0.12928300  0.90166000  1
  H  583  1  0.87939000  0.10953500  0.92364600  1
  H  584  1  0.80646800  0.13367500  0.90376900  1
  H  585  1  0.84141000  0.15241200  0.88172600  1
  H  586  1  0.84580500  0.17472000  0.90853000  1
  H  588  1  0.80699400  0.94368900  0.86154900  1
  H  590  1  0.95725400  0.07114500  0.82003500  1
  H  601  1  0.94736800  0.50377800  0.17959400  1
  H  602  1  0.89111200  0.55655900  0.17279500  1
  H  605  1  0.76187700  0.46499000  0.08967300  1
  H  606  1  0.78671900  0.42096300  0.07762100  1
  H  607  1  0.81623000  0.51018600  0.06788900  1
  H  608  1  0.78348300  0.47745900  0.05023900  1
  H  609  1  0.84213500  0.46538300  0.05610300  1
  H  612  1  0.89992200  0.36768100  0.09511000  1
  H  613  1  0.85925200  0.38538000  0.07567300  1
  H  614  1  0.79471100  0.35870200  0.10061100  1
  H  615  1  0.83712400  0.34153800  0.11985400  1
  H  616  1  0.83409200  0.31923100  0.09303900  1
  H  618  1  0.79568900  0.54910400  0.14122900  1
  H  620  1  0.95876100  0.42605300  0.17556200  1
  H  631  1  0.86647700  0.00109500  0.18317800  1
  H  632  1  0.91992800  0.05538800  0.17478100  1
  H  635  1  0.04161200  0.96379200  0.08813800  1
  H  636  1  0.01173700  0.92398500  0.07452200  1
  H  637  1  0.98930300  0.01614200  0.07017900  1
  H  638  1  0.01677600  0.98447600  0.05008300  1
  H  639  1  0.95799000  0.97547900  0.05713400  1
  H  642  1  0.90592300  0.86691400  0.09723600  1
  H  643  1  0.94111800  0.88668500  0.07601900  1
  H  644  1  0.01195600  0.86097700  0.09698300  1
  H  645  1  0.97500100  0.84217900  0.11826500  1
  H  646  1  0.97232400  0.82059300  0.09125000  1
  H  648  1  0.01114500  0.05069400  0.14048100  1
  H  650  1  0.85801800  0.92233300  0.17906600  1
  H  661  1  0.86583800  0.49099700  0.81613400  1
  H  662  1  0.92061700  0.43729800  0.82373600  1
  H  665  1  0.05071200  0.53015100  0.90659500  1
  H  666  1  0.02520000  0.57377600  0.91876400  1
  H  667  1  0.99561700  0.48428600  0.92756800  1
  H  668  1  0.02740400  0.51673300  0.94575700  1
  H  669  1  0.96898600  0.52875200  0.93934800  1
  H  672  1  0.91547300  0.62955700  0.89894500  1
  H  673  1  0.95386800  0.61112900  0.91923100  1
  H  674  1  0.02130200  0.63524900  0.89527300  1
  H  675  1  0.98105100  0.65309500  0.87516400  1
  H  676  1  0.98283700  0.67602900  0.90186000  1
  H  678  1  0.01674100  0.44549600  0.85452700  1
  H  680  1  0.85771800  0.56995500  0.81919000  1
  H  691  1  0.43514700  0.49528000  0.31304000  1
  H  692  1  0.38576300  0.43904700  0.32342600  1
  H  695  1  0.27218700  0.52684500  0.41350000  1
  H  696  1  0.30018000  0.56978500  0.42511900  1
  H  697  1  0.33199100  0.48004200  0.43055200  1
  H  698  1  0.30450800  0.51112200  0.45091400  1
  H  699  1  0.36101700  0.52393300  0.44163900  1
  H  702  1  0.40094400  0.62986900  0.39918500  1
  H  703  1  0.36981200  0.60920900  0.42159300  1
  H  704  1  0.29503700  0.63220000  0.40310300  1
  H  705  1  0.32774300  0.65169400  0.38046600  1
  H  706  1  0.33371400  0.67398000  0.40720600  1
  H  708  1  0.29734500  0.44319800  0.35914700  1
  H  710  1  0.43608200  0.57643000  0.31648700  1
  H  721  1  0.45220300  0.00354800  0.68295200  1
  H  722  1  0.39346900  0.05471600  0.67755300  1
  H  725  1  0.26477800  0.96308700  0.59394700  1
  H  726  1  0.29189400  0.92158800  0.58049700  1
  H  727  1  0.31596800  0.01286800  0.57328700  1
  H  728  1  0.28481800  0.98044000  0.55483400  1
  H  729  1  0.34420600  0.97055500  0.56015200  1
  H  732  1  0.40709200  0.87057200  0.59684400  1
  H  733  1  0.36623200  0.88890200  0.57766400  1
  H  734  1  0.30215100  0.85851100  0.60181400  1
  H  735  1  0.34508000  0.84052100  0.62055300  1
  H  736  1  0.34271300  0.82083100  0.59312900  1
  H  738  1  0.29628500  0.04393800  0.64790800  1
  H  740  1  0.46551000  0.92652700  0.67804900  1
  H  751  1  0.37641300  0.50012400  0.68330700  1
  H  752  1  0.42670900  0.55622400  0.67377600  1
  H  755  1  0.54350400  0.46727600  0.58444300  1
  H  756  1  0.51202800  0.42861100  0.57068500  1
  H  757  1  0.49027300  0.52113200  0.56859000  1
  H  758  1  0.51536200  0.49053500  0.54733800  1
  H  759  1  0.45720300  0.48161500  0.55552900  1
  H  762  1  0.41097600  0.36849000  0.59589300  1
  H  763  1  0.44252800  0.38987300  0.57382800  1
  H  764  1  0.51686900  0.36512300  0.59225300  1
  H  765  1  0.48338000  0.34453800  0.61435500  1
  H  766  1  0.47766600  0.32408800  0.58716800  1
  H  768  1  0.51578800  0.55307100  0.63835300  1
  H  770  1  0.37382500  0.41980600  0.67914600  1
  H  781  1  0.37371000  0.98740700  0.31974500  1
  H  782  1  0.42816800  0.93445500  0.32922100  1
  H  785  1  0.55225000  0.03638600  0.41179900  1
  H  786  1  0.52197700  0.07683400  0.42464900  1
  H  787  1  0.50188900  0.98477300  0.43152600  1
  H  788  1  0.52920900  0.01870900  0.45056700  1
  H  789  1  0.46999400  0.02594200  0.44375900  1
  H  792  1  0.41450700  0.13027400  0.40120900  1
  H  793  1  0.45087900  0.11315300  0.42263000  1
  H  794  1  0.52039700  0.13769200  0.40023400  1
  H  795  1  0.48211900  0.15410200  0.37890800  1
  H  796  1  0.48030700  0.17800700  0.40538100  1
  H  798  1  0.52176200  0.94541600  0.36184900  1
  H  800  1  0.36553900  0.06697800  0.32147500  1
  H  811  1  0.72304900  0.70717300  0.74980400  1
  H  812  1  0.67893700  0.72083700  0.71680300  1
  H  815  1  0.52227500  0.86276400  0.75426200  1
  H  816  1  0.53717900  0.88404500  0.78008200  1
  H  817  1  0.48881800  0.82796300  0.79889100  1
  H  818  1  0.47507400  0.80801400  0.77221500  1
  H  819  1  0.45607400  0.85805500  0.77999300  1
  H  822  1  0.58551400  0.81389600  0.82707700  1
  H  823  1  0.55809300  0.85703000  0.81525100  1
  H  824  1  0.66261900  0.84850100  0.82242400  1
  H  825  1  0.62385400  0.88027800  0.83751800  1
  H  826  1  0.63517200  0.89101000  0.80912400  1
  H  828  1  0.59110000  0.79691100  0.71107500  1
  H  830  1  0.72415600  0.70791700  0.79030300  1
  H  841  1  0.69377200  0.81336100  0.24880900  1
  H  842  1  0.62968600  0.81123300  0.27328300  1
  H  845  1  0.52024100  0.63403500  0.23986200  1
  H  846  1  0.55229900  0.60391400  0.22116200  1
  H  847  1  0.51760700  0.64582100  0.18926000  1
  H  848  1  0.48594100  0.67503300  0.20907700  1
  H  849  1  0.47476200  0.62152900  0.20578100  1
  H  852  1  0.62799500  0.65588700  0.17587300  1
  H  853  1  0.59553900  0.61663900  0.18861200  1
  H  854  1  0.69878500  0.63245500  0.19642500  1
  H  855  1  0.67372300  0.59122200  0.18127000  1
  H  856  1  0.66529400  0.59435900  0.21042200  1
  H  858  1  0.52929900  0.75800600  0.25978200  1
  H  860  1  0.72416800  0.79599800  0.21344000  1
  H  871  1  0.09824200  0.19983400  0.25088200  1
  H  872  1  0.13910500  0.22202400  0.28355600  1
  H  875  1  0.27891000  0.37341700  0.24169200  1
  H  876  1  0.26202300  0.39014900  0.21519300  1
  H  877  1  0.31726400  0.33702700  0.19835000  1
  H  878  1  0.33280900  0.32161300  0.22565800  1
  H  879  1  0.34579700  0.37220800  0.21625200  1
  H  882  1  0.22301100  0.31071500  0.17048100  1
  H  883  1  0.24531000  0.35727700  0.18094000  1
  H  884  1  0.14224400  0.33866000  0.17432200  1
  H  885  1  0.17724800  0.37188500  0.15805500  1
  H  886  1  0.16488300  0.38483300  0.18607600  1
  H  888  1  0.21359900  0.30744500  0.28769000  1
  H  890  1  0.10007500  0.19512300  0.20998700  1
  H  901  1  0.13665800  0.32450100  0.74548400  1
  H  902  1  0.20960000  0.30660700  0.73042000  1
  H  905  1  0.23214500  0.10543900  0.77121200  1
  H  906  1  0.19726000  0.09587600  0.79451600  1
  H  907  1  0.24444400  0.14547900  0.81719600  1
  H  908  1  0.28103000  0.15406600  0.79386300  1
  H  909  1  0.27819200  0.10446500  0.80626200  1
  H  912  1  0.09358800  0.16091000  0.81370500  1
  H  913  1  0.14271900  0.13018900  0.81816700  1
  H  914  1  0.06684600  0.11574500  0.78306500  1
  H  915  1  0.07513200  0.08704900  0.80784000  1
  H  916  1  0.11639000  0.08376900  0.78614200  1
  H  918  1  0.27891000  0.23038100  0.74920900  1
  H  920  1  0.06196400  0.28936300  0.75559200  1
  C  1  1  0.84597000  0.74194500  0.89242600  1
  C  2  1  0.80485400  0.73870700  0.90524800  1
  C  3  1  0.75597400  0.74994200  0.87090900  1
  C  4  1  0.79629700  0.75260300  0.85745700  1
  C  5  1  0.79047400  0.75848800  0.83416800  1
  C  6  1  0.74618600  0.76230400  0.82431100  1
  C  7  1  0.70694300  0.76112300  0.83828000  1
  C  8  1  0.71171800  0.75453200  0.86119000  1
  C  9  1  0.80767800  0.73296800  0.92850800  1
  C  10  1  0.85072400  0.73215300  0.93932200  1
  C  11  1  0.89215500  0.73651100  0.92714200  1
  C  12  1  0.88920000  0.74018700  0.90376900  1
  C  13  1  0.86667800  0.71133200  0.85700700  1
  C  14  1  0.90853100  0.71463000  0.84476800  1
  C  15  1  0.91153500  0.79155000  0.85204700  1
  C  16  1  0.86851200  0.78977500  0.86344200  1
  C  17  1  0.93520100  0.82961400  0.85013300  1
  C  18  1  0.91651100  0.86594000  0.85915700  1
  C  19  1  0.87306400  0.86557900  0.86987200  1
  C  20  1  0.84995300  0.82723300  0.87209100  1
  C  21  1  0.84550600  0.67175200  0.85869500  1
  C  22  1  0.86355600  0.63638600  0.84791500  1
  C  23  1  0.90533300  0.64078100  0.83593600  1
  C  24  1  0.92769200  0.67919200  0.83458100  1
  C  37  1  0.84427900  0.74889200  0.86752200  1
  C  38  1  0.93349900  0.75437500  0.84222800  1
  C  41  1  0.75819900  0.74234900  0.89518100  1
  C  44  1  0.93713800  0.74039300  0.93900600  1
  C  47  1  0.73982700  0.76800200  0.79993700  1
  C  50  1  0.85295200  0.90474000  0.87865000  1
  C  53  1  0.83697100  0.59677200  0.84901800  1
  C  56  1  0.82989500  0.75069000  0.10695900  1
  C  57  1  0.78620300  0.75160000  0.09613100  1
  C  58  1  0.74514900  0.74265800  0.13283500  1
  C  59  1  0.78803100  0.74204000  0.14440700  1
  C  60  1  0.78689900  0.73907900  0.16804500  1
  C  61  1  0.74478800  0.73673300  0.18006000  1
  C  62  1  0.70306300  0.73543200  0.16782700  1
  C  63  1  0.70314400  0.73877200  0.14464000  1
  C  64  1  0.78374200  0.75550800  0.07276400  1
  C  65  1  0.82415600  0.75767300  0.05991800  1
  C  66  1  0.86812200  0.75665000  0.07011100  1
  C  67  1  0.87039300  0.75355600  0.09353100  1
  C  68  1  0.85891100  0.78233600  0.14083500  1
  C  69  1  0.90312600  0.77872300  0.15096300  1
  C  70  1  0.90333200  0.70164700  0.14419700  1
  C  71  1  0.85797500  0.70373100  0.13514700  1
  C  72  1  0.92670900  0.66331700  0.14519500  1
  C  73  1  0.90547800  0.62699800  0.13757300  1
  C  74  1  0.85977600  0.62764400  0.12930700  1
  C  75  1  0.83692300  0.66624700  0.12796200  1
  C  76  1  0.83819500  0.82217100  0.13983200  1
  C  77  1  0.85896500  0.85745900  0.14950800  1
  C  78  1  0.90290700  0.85270000  0.15950100  1
  C  79  1  0.92491200  0.81407100  0.15993900  1
  C  92  1  0.83362400  0.74480100  0.13191400  1
  C  93  1  0.92794500  0.73873900  0.15251600  1
  C  96  1  0.74207100  0.74736100  0.10840600  1
  C  99  1  0.91024400  0.75650600  0.05593700  1
  C  102  1  0.74313900  0.73607900  0.20487000  1
  C  105  1  0.83708500  0.58856900  0.12198800  1
  C  108  1  0.83298600  0.89743000  0.14951000  1
  C  111  1  0.97230500  0.24960000  0.10540000  1
  C  112  1  0.01384400  0.24768800  0.09281800  1
  C  113  1  0.06141300  0.24576600  0.12803200  1
  C  114  1  0.02058100  0.24424200  0.14117900  1
  C  115  1  0.02555700  0.24368600  0.16473200  1
  C  116  1  0.06933800  0.24684400  0.17517800  1
  C  117  1  0.10908100  0.24920200  0.16158000  1
  C  118  1  0.10528300  0.24761700  0.13837900  1
  C  119  1  0.01187900  0.24704900  0.06935400  1
  C  120  1  0.96925700  0.24876000  0.05822000  1
  C  121  1  0.92743800  0.25267900  0.07014700  1
  C  122  1  0.92961800  0.25259300  0.09364700  1
  C  123  1  0.94933200  0.20508500  0.13560200  1
  C  124  1  0.90596400  0.20375900  0.14670300  1
  C  125  1  0.90753300  0.28124300  0.15196400  1
  C  126  1  0.94936100  0.28408900  0.13966300  1
  C  127  1  0.88786000  0.31717500  0.16138200  1
  C  128  1  0.90983300  0.35563200  0.15931000  1
  C  129  1  0.95150700  0.35961300  0.14720400  1
  C  130  1  0.96987400  0.32375800  0.13702600  1
  C  131  1  0.96872400  0.16710900  0.12808800  1
  C  132  1  0.94585900  0.12877200  0.13086800  1
  C  133  1  0.90213600  0.12881000  0.14132100  1
  C  134  1  0.88280300  0.16561400  0.14942800  1
  C  147  1  0.97296000  0.24582300  0.13051900  1
  C  148  1  0.88320900  0.24144100  0.15546600  1
  C  151  1  0.06009900  0.24594200  0.10341600  1
  C  154  1  0.88258700  0.25568100  0.05800200  1
  C  157  1  0.07402300  0.25205900  0.19967600  1
  C  160  1  0.97784400  0.39929400  0.14558600  1
  C  163  1  0.96617900  0.08931000  0.12259900  1
  C  166  1  0.99511900  0.24600900  0.88794800  1
  C  167  1  0.04145600  0.24826600  0.89580300  1
  C  168  1  0.07111900  0.25799300  0.85657500  1
  C  169  1  0.02534900  0.25507600  0.84813400  1
  C  170  1  0.01922900  0.25711600  0.82470700  1
  C  171  1  0.05650200  0.26327900  0.80974700  1
  C  172  1  0.10117400  0.26837600  0.81885200  1
  C  173  1  0.10848200  0.26502500  0.84185600  1
  C  174  1  0.05047600  0.24620800  0.91887400  1
  C  175  1  0.01411100  0.24292200  0.93423800  1
  C  176  1  0.96777800  0.24058100  0.92692900  1
  C  177  1  0.95890400  0.24179300  0.90384200  1
  C  178  1  0.95732300  0.29123500  0.86162800  1
  C  179  1  0.91063300  0.29213200  0.85424800  1
  C  180  1  0.91202600  0.21490500  0.84798300  1
  C  181  1  0.95788900  0.21249700  0.85639700  1
  C  182  1  0.88982800  0.17888600  0.84009300  1
  C  183  1  0.91269700  0.14066300  0.84019800  1
  C  184  1  0.95803000  0.13698500  0.84879400  1
  C  185  1  0.97967200  0.17309900  0.85705900  1
  C  186  1  0.97815700  0.32928200  0.86806200  1
  C  187  1  0.95389300  0.36724200  0.86761000  1
  C  188  1  0.90731200  0.36688600  0.86056900  1
  C  189  1  0.88611800  0.32995000  0.85379800  1
  C  202  1  0.98393200  0.25096000  0.86349600  1
  C  203  1  0.88601700  0.25434500  0.84690900  1
  C  206  1  0.08136600  0.25460300  0.88065100  1
  C  209  1  0.92972700  0.23962900  0.94353700  1
  C  212  1  0.04705900  0.26263000  0.78532300  1
  C  215  1  0.98419400  0.09712100  0.84890300  1
  C  218  1  0.97624300  0.40669100  0.87451700  1
  C  221  1  0.33817300  0.24213600  0.39128700  1
  C  222  1  0.29567800  0.23637100  0.40275300  1
  C  223  1  0.25118400  0.24159800  0.36671600  1
  C  224  1  0.29278500  0.24863900  0.35467800  1
  C  225  1  0.28968700  0.25323500  0.33116800  1
  C  226  1  0.24708400  0.24971500  0.31965600  1
  C  227  1  0.20668500  0.24167300  0.33213100  1
  C  228  1  0.20851500  0.23862800  0.35533900  1
  C  229  1  0.29551900  0.23102400  0.42607100  1
  C  230  1  0.33687400  0.23254100  0.43825700  1
  C  231  1  0.37955300  0.23937200  0.42747700  1
  C  232  1  0.37970900  0.24303500  0.40404900  1
  C  233  1  0.36476300  0.21031400  0.35715900  1
  C  234  1  0.40765300  0.21428300  0.34585000  1
  C  235  1  0.40645700  0.29171700  0.35156000  1
  C  236  1  0.36252800  0.28920400  0.36210400  1
  C  237  1  0.42876400  0.33038500  0.34940300  1
  C  238  1  0.40816200  0.36654900  0.35760800  1
  C  239  1  0.36414900  0.36536200  0.36775400  1
  C  240  1  0.34199200  0.32650000  0.36989700  1
  C  241  1  0.34523900  0.17007000  0.35911700  1
  C  242  1  0.36588200  0.13468200  0.34948200  1
  C  243  1  0.40872700  0.13978800  0.33850600  1
  C  244  1  0.42947700  0.17889100  0.33691100  1
  C  257  1  0.33949400  0.24777700  0.36626200  1
  C  258  1  0.43091200  0.25474300  0.34294200  1
  C  261  1  0.25052500  0.23541600  0.39110900  1
  C  264  1  0.42240500  0.24451800  0.44091900  1
  C  267  1  0.24432900  0.25015400  0.29492900  1
  C  270  1  0.34297300  0.40424600  0.37633900  1
  C  273  1  0.34071700  0.09430500  0.35053700  1
  C  276  1  0.31957200  0.24607700  0.61365300  1
  C  277  1  0.27214200  0.24898800  0.60761700  1
  C  278  1  0.24834500  0.24640800  0.64810600  1
  C  279  1  0.29532800  0.24275400  0.65473500  1
  C  280  1  0.30535300  0.24256500  0.67790400  1
  C  281  1  0.27067900  0.24753300  0.69438900  1
  C  282  1  0.22431700  0.25039500  0.68712400  1
  C  283  1  0.21322800  0.24905700  0.66441200  1
  C  284  1  0.25963500  0.25143300  0.58492900  1
  C  285  1  0.29342200  0.24966500  0.56817900  1
  C  286  1  0.34067500  0.24544000  0.57366200  1
  C  287  1  0.35320200  0.24471300  0.59636000  1
  C  288  1  0.36346300  0.28035200  0.64267300  1
  C  289  1  0.41029700  0.27659300  0.64952700  1
  C  290  1  0.40641900  0.19891800  0.64515800  1
  C  291  1  0.35856700  0.20127900  0.63988200  1
  C  292  1  0.42908200  0.16019700  0.64501600  1
  C  293  1  0.40504000  0.12396200  0.63944100  1
  C  294  1  0.35726400  0.12509100  0.63458400  1
  C  295  1  0.33467000  0.16389500  0.63501800  1
  C  296  1  0.34348200  0.32052800  0.64207100  1
  C  297  1  0.36758400  0.35609800  0.64934800  1
  C  298  1  0.41402200  0.35118700  0.65624200  1
  C  299  1  0.43528900  0.31219700  0.65593400  1
  C  312  1  0.33419900  0.24255600  0.63776000  1
  C  313  1  0.43426000  0.23611100  0.65054800  1
  C  316  1  0.23450200  0.24914000  0.62440300  1
  C  319  1  0.37579600  0.23999600  0.55572500  1
  C  322  1  0.28397600  0.25577300  0.71803900  1
  C  325  1  0.33225100  0.08652800  0.62827000  1
  C  328  1  0.34245300  0.39646600  0.65043500  1
  C  331  1  0.48216100  0.75256700  0.60699900  1
  C  332  1  0.52514400  0.75051400  0.59556900  1
  C  333  1  0.56817000  0.74213700  0.63180000  1
  C  334  1  0.52593500  0.74335000  0.64390200  1
  C  335  1  0.52833600  0.74071400  0.66751900  1
  C  336  1  0.57101500  0.73710500  0.67894700  1
  C  337  1  0.61205800  0.73437100  0.66631300  1
  C  338  1  0.61071300  0.73722400  0.64309600  1
  C  339  1  0.52626000  0.75204600  0.57211200  1
  C  340  1  0.48521700  0.75515200  0.55981600  1
  C  341  1  0.44197700  0.75829300  0.57058400  1
  C  342  1  0.44107600  0.75699200  0.59409900  1
  C  343  1  0.45446200  0.70660600  0.63575100  1
  C  344  1  0.41070600  0.70525800  0.64649400  1
  C  345  1  0.41349200  0.78236500  0.65301400  1
  C  346  1  0.45608800  0.78524900  0.64132500  1
  C  347  1  0.39379200  0.81807900  0.66265000  1
  C  348  1  0.41611500  0.85645300  0.66113300  1
  C  349  1  0.45827100  0.86058500  0.64943300  1
  C  350  1  0.47717100  0.82480900  0.63937600  1
  C  351  1  0.47328600  0.66879000  0.62768800  1
  C  352  1  0.44972200  0.63064500  0.62974900  1
  C  353  1  0.40593100  0.63059500  0.64012600  1
  C  354  1  0.38689900  0.66727200  0.64856500  1
  C  367  1  0.47968600  0.74713900  0.63202800  1
  C  368  1  0.38838900  0.74274200  0.65572600  1
  C  371  1  0.56983000  0.74520000  0.60727300  1
  C  374  1  0.39900700  0.76027700  0.55697900  1
  C  377  1  0.57420300  0.73566000  0.70363600  1
  C  380  1  0.48418800  0.90050700  0.64792900  1
  C  383  1  0.46967900  0.59140500  0.62102900  1
  C  386  1  0.49075100  0.74079700  0.38930200  1
  C  387  1  0.53738400  0.73557100  0.39625400  1
  C  388  1  0.56584100  0.75018100  0.35724200  1
  C  389  1  0.51960700  0.75584500  0.34981400  1
  C  390  1  0.51243000  0.76675700  0.32718200  1
  C  391  1  0.54952600  0.77270500  0.31212200  1
  C  392  1  0.59499500  0.76629600  0.31994200  1
  C  393  1  0.60301700  0.75501800  0.34214900  1
  C  394  1  0.54715300  0.72583500  0.41868900  1
  C  395  1  0.51130400  0.72094700  0.43424000  1
  C  396  1  0.46466800  0.72579800  0.42778000  1
  C  397  1  0.45508300  0.73576500  0.40538600  1
  C  398  1  0.45392900  0.79231400  0.36598100  1
  C  399  1  0.40688000  0.79591900  0.35938500  1
  C  400  1  0.40416000  0.71988100  0.34970400  1
  C  401  1  0.45073700  0.71480200  0.35672600  1
  C  402  1  0.37934100  0.68572500  0.34120300  1
  C  403  1  0.40011600  0.64666500  0.33950500  1
  C  404  1  0.44620500  0.64029800  0.34657500  1
  C  405  1  0.47058700  0.67461300  0.35530100  1
  C  406  1  0.47722300  0.82865800  0.37325800  1
  C  407  1  0.45514500  0.86770700  0.37404700  1
  C  408  1  0.40804500  0.86993000  0.36796500  1
  C  409  1  0.38432800  0.83462800  0.36063900  1
  C  422  1  0.47876500  0.75098900  0.36543100  1
  C  423  1  0.37990600  0.76018000  0.35101100  1
  C  426  1  0.57690200  0.73969100  0.38064700  1
  C  429  1  0.42605700  0.71980200  0.44391900  1
  C  432  1  0.54115400  0.78795000  0.28910800  1
  C  435  1  0.47028500  0.59950300  0.34472900  1
  C  438  1  0.48038000  0.90582500  0.38090800  1
  C  441  1  0.92139700  0.79141400  0.01970200  1
  C  442  1  0.96349100  0.77577300  0.01108900  1
  C  443  1  0.96992800  0.77192800  0.98781900  1
  C  444  1  0.93453000  0.78415800  0.97293300  1
  C  445  1  0.89316000  0.80076000  0.98164300  1
  C  446  1  0.88648700  0.80395500  0.00475400  1
  C  448  1  0.04642500  0.74485000  0.99397400  1
  C  449  1  0.04010100  0.74905800  0.01731300  1
  C  453  1  0.08938100  0.73006100  0.98297400  1
  C  454  1  0.12264100  0.76602600  0.97742800  1
  C  460  1  0.07460200  0.73754800  0.03454100  1
  C  461  1  0.06975700  0.69190800  0.04171900  1
  C  471  1  0.91076700  0.28451000  0.97568200  1
  C  472  1  0.86762300  0.27029800  0.98379800  1
  C  473  1  0.85676500  0.27360200  0.00671600  1
  C  474  1  0.88874100  0.29161300  0.02171400  1
  C  475  1  0.93068100  0.30754900  0.01326700  1
  C  476  1  0.94186100  0.30348200  0.99060400  1
  C  478  1  0.78256200  0.24217700  0.99991500  1
  C  479  1  0.79344800  0.23899600  0.97691600  1
  C  483  1  0.73807900  0.22969000  0.01034700  1
  C  484  1  0.70604000  0.26718000  0.01445900  1
  C  490  1  0.76261700  0.22156600  0.95951500  1
  C  491  1  0.76707400  0.17409600  0.95768500  1
  C  501  1  0.40221600  0.28101600  0.52374400  1
  C  502  1  0.44563600  0.27092100  0.51437200  1
  C  503  1  0.45190200  0.27137200  0.49099000  1
  C  504  1  0.41489900  0.28243500  0.47675900  1
  C  505  1  0.37188400  0.29321300  0.48624800  1
  C  506  1  0.36536600  0.29189000  0.50941900  1
  C  508  1  0.53107700  0.25005400  0.49571100  1
  C  509  1  0.52486000  0.24980300  0.51916900  1
  C  513  1  0.57494800  0.24045600  0.48388500  1
  C  514  1  0.60240700  0.27999500  0.47809000  1
  C  520  1  0.56106200  0.23889200  0.53569600  1
  C  521  1  0.56305800  0.19189700  0.54015500  1
  C  531  1  0.39986600  0.76971000  0.47250700  1
  C  532  1  0.35915200  0.76372900  0.48509200  1
  C  533  1  0.35836600  0.77309900  0.50809700  1
  C  534  1  0.39839000  0.78881400  0.51873400  1
  C  535  1  0.43849800  0.79600400  0.50587900  1
  C  536  1  0.43943700  0.78623800  0.48307200  1
  C  538  1  0.27888200  0.75100100  0.51005600  1
  C  539  1  0.27978300  0.74134600  0.48697600  1
  C  543  1  0.23824400  0.74602500  0.52495700  1
  C  544  1  0.20336600  0.78204200  0.52273100  1
  C  550  1  0.24087400  0.72391100  0.47377400  1
  C  551  1  0.25082700  0.67940200  0.46573600  1
  C  561  1  0.93253600  0.03188100  0.84359400  1
  C  562  1  0.90341400  0.03520100  0.86254200  1
  C  563  1  0.87288600  0.00251100  0.86837900  1
  C  564  1  0.87056900  0.96622200  0.85528700  1
  C  565  1  0.89825600  0.96367900  0.83606600  1
  C  566  1  0.92932900  0.99554400  0.83062300  1
  C  568  1  0.84477600  0.04190500  0.89955100  1
  C  569  1  0.87498900  0.07485400  0.89371300  1
  C  573  1  0.81267400  0.04130900  0.91886600  1
  C  574  1  0.82906300  0.01131400  0.93724300  1
  C  580  1  0.87928400  0.11483300  0.90571400  1
  C  581  1  0.84060000  0.14580700  0.89951300  1
  C  591  1  0.92667800  0.46387400  0.15345400  1
  C  592  1  0.89420900  0.45998900  0.13583700  1
  C  593  1  0.86171100  0.49193400  0.13144700  1
  C  594  1  0.86065100  0.52799900  0.14474400  1
  C  595  1  0.89165000  0.53104900  0.16274000  1
  C  596  1  0.92467500  0.49998200  0.16667500  1
  C  598  1  0.82946900  0.45229900  0.10132600  1
  C  599  1  0.86177700  0.42017100  0.10566600  1
  C  603  1  0.79434400  0.45224000  0.08328300  1
  C  604  1  0.81021700  0.47808000  0.06307700  1
  C  610  1  0.86496900  0.38041200  0.09341900  1
  C  611  1  0.83036600  0.34795500  0.10234000  1
  C  621  1  0.88469400  0.96208200  0.15624200  1
  C  622  1  0.91470100  0.95918100  0.13760600  1
  C  623  1  0.94559500  0.99192100  0.13234300  1
  C  624  1  0.94738100  0.02785900  0.14573200  1
  C  625  1  0.91876300  0.03000500  0.16465100  1
  C  626  1  0.88739500  0.99805100  0.16953100  1
  C  628  1  0.97465100  0.95338600  0.10106000  1
  C  629  1  0.94398200  0.92043100  0.10630800  1
  C  633  1  0.00750600  0.95438600  0.08205100  1
  C  634  1  0.99174400  0.98468900  0.06369400  1
  C  640  1  0.93973700  0.88090700  0.09389300  1
  C  641  1  0.97732100  0.84920600  0.10055300  1
  C  651  1  0.88738700  0.53153500  0.84182400  1
  C  652  1  0.91959200  0.53540400  0.85954500  1
  C  653  1  0.95123700  0.50302000  0.86438700  1
  C  654  1  0.95170200  0.46652300  0.85142600  1
  C  655  1  0.92053600  0.46318100  0.83351300  1
  C  656  1  0.88843000  0.49479600  0.82909400  1
  C  658  1  0.98361000  0.54294000  0.89437000  1
  C  659  1  0.95232500  0.57560800  0.88948800  1
  C  663  1  0.01794400  0.54265400  0.91276400  1
  C  664  1  0.00127200  0.51630700  0.93263500  1
  C  670  1  0.94974400  0.61579600  0.90135900  1
  C  671  1  0.98621600  0.64696500  0.89283300  1
  C  681  1  0.41849200  0.53413300  0.34024800  1
  C  682  1  0.39101900  0.53633100  0.35976100  1
  C  683  1  0.36259000  0.50253200  0.36618900  1
  C  684  1  0.36066000  0.46624100  0.35305500  1
  C  685  1  0.38728000  0.46456900  0.33344700  1
  C  686  1  0.41626400  0.49763200  0.32739000  1
  C  688  1  0.33589300  0.54094000  0.39799500  1
  C  689  1  0.36415600  0.57488400  0.39157500  1
  C  693  1  0.30612300  0.53917200  0.41812400  1
  C  694  1  0.32742400  0.51169000  0.43647300  1
  C  700  1  0.36835300  0.61473900  0.40369500  1
  C  701  1  0.32850200  0.64500900  0.39824600  1
  C  711  1  0.43192100  0.96424400  0.65647600  1
  C  712  1  0.39899300  0.96029700  0.63905200  1
  C  713  1  0.36483900  0.99124500  0.63556800  1
  C  714  1  0.36267300  0.02642800  0.64951700  1
  C  715  1  0.39467200  0.02981200  0.66708300  1
  C  716  1  0.42916900  0.99970000  0.67017900  1
  C  718  1  0.33326000  0.95242400  0.60497000  1
  C  719  1  0.36715400  0.92123900  0.60843200  1
  C  723  1  0.29779900  0.95253400  0.58707200  1
  C  724  1  0.31173300  0.98104400  0.56758600  1
  C  730  1  0.37178700  0.88257800  0.59529800  1
  C  731  1  0.33812500  0.84849400  0.60324600  1
  C  741  1  0.39346200  0.46195700  0.65585900  1
  C  742  1  0.42141000  0.46014500  0.63647800  1
  C  743  1  0.45067800  0.49373100  0.63068000  1
  C  744  1  0.45260800  0.52952800  0.64417500  1
  C  745  1  0.42537100  0.53093400  0.66358100  1
  C  746  1  0.39585700  0.49796000  0.66912000  1
  C  748  1  0.47777000  0.45636800  0.59858800  1
  C  749  1  0.44851900  0.42265500  0.60431000  1
  C  753  1  0.50879500  0.45847900  0.57890600  1
  C  754  1  0.49167300  0.49009300  0.56148800  1
  C  760  1  0.44382000  0.38344000  0.59164100  1
  C  761  1  0.48312400  0.35238900  0.59670600  1
  C  771  1  0.39275600  0.02935200  0.34522300  1
  C  772  1  0.42339900  0.03433700  0.36347400  1
  C  773  1  0.45489900  0.00246000  0.36940300  1
  C  774  1  0.45669100  0.96523500  0.35706000  1
  C  775  1  0.42703800  0.96079800  0.33861900  1
  C  776  1  0.39510200  0.99196900  0.33309700  1
  C  778  1  0.48462500  0.04447500  0.39921800  1
  C  779  1  0.45327000  0.07651900  0.39330400  1
  C  783  1  0.51816900  0.04573300  0.41794000  1
  C  784  1  0.50375300  0.01680800  0.43717800  1
  C  790  1  0.44871300  0.11712800  0.40463100  1
  C  791  1  0.48540100  0.14868300  0.39675100  1
  C  801  1  0.68349800  0.74552200  0.77115400  1
  C  802  1  0.64468000  0.77219400  0.77173100  1
  C  803  1  0.61835100  0.78011300  0.75228800  1
  C  804  1  0.63008800  0.76076900  0.73194400  1
  C  805  1  0.66926700  0.73463300  0.73138900  1
  C  806  1  0.69529100  0.72674800  0.75071400  1
  C  808  1  0.56948300  0.82656200  0.77302600  1
  C  809  1  0.59607900  0.81880400  0.79249400  1
  C  813  1  0.52918500  0.85500100  0.77165500  1
  C  814  1  0.48447200  0.83591800  0.78139400  1
  C  820  1  0.58942600  0.83831200  0.81464700  1
  C  821  1  0.63058700  0.86630500  0.82131000  1
  C  831  1  0.67668300  0.75975300  0.23032700  1
  C  832  1  0.64321100  0.72787000  0.22877100  1
  C  833  1  0.60503400  0.72620900  0.24360300  1
  C  834  1  0.59800300  0.75728200  0.25989500  1
  C  835  1  0.63272900  0.78799200  0.26194800  1
  C  836  1  0.67123000  0.78906900  0.24757000  1
  C  838  1  0.57626500  0.66563600  0.22466200  1
  C  839  1  0.61441400  0.66730800  0.20977200  1
  C  843  1  0.53818100  0.63483200  0.22384100  1
  C  844  1  0.50188200  0.64504500  0.20575300  1
  C  850  1  0.62405100  0.63816100  0.19123000  1
  C  851  1  0.66844600  0.61244100  0.19515800  1
  C  861  1  0.13372000  0.23905800  0.22839200  1
  C  862  1  0.16880600  0.26947900  0.22702300  1
  C  863  1  0.19327500  0.28239300  0.24624500  1
  C  864  1  0.18297600  0.26478000  0.26719600  1
  C  865  1  0.14740400  0.23491900  0.26854600  1
  C  866  1  0.12340000  0.22192500  0.24941400  1
  C  868  1  0.23673700  0.33079000  0.22410700  1
  C  869  1  0.21170300  0.31826900  0.20487700  1
  C  873  1  0.27331700  0.36306900  0.22458200  1
  C  874  1  0.32027200  0.34733900  0.21555800  1
  C  880  1  0.21625700  0.33590300  0.18215300  1
  C  881  1  0.17216100  0.35929800  0.17471900  1
  C  891  1  0.12446700  0.26838800  0.76268200  1
  C  892  1  0.14530100  0.22978500  0.76775700  1
  C  893  1  0.18934200  0.21922900  0.75880000  1
  C  894  1  0.21353300  0.24627200  0.74433400  1
  C  895  1  0.19337500  0.28536300  0.74022800  1
  C  896  1  0.15005200  0.29602100  0.74920900  1
  C  898  1  0.18922000  0.15580600  0.77983200  1
  C  899  1  0.14492300  0.16594500  0.78856700  1
  C  903  1  0.21784400  0.11954600  0.78623700  1
  C  904  1  0.25801400  0.13183300  0.80191000  1
  C  910  1  0.11906800  0.14130400  0.80531300  1
  C  911  1  0.09276700  0.10455000  0.79483900  1
  N  447  1  0.01105500  0.75683900  0.98047400  1
  N  450  1  0.99881000  0.76414100  0.02460100  1
  N  467  1  0.93946100  0.78202800  0.94954100  1
  N  469  1  0.91241000  0.79540500  0.04273600  1
  N  477  1  0.81479900  0.25952900  0.01354600  1
  N  480  1  0.83547400  0.25324800  0.97013900  1
  N  497  1  0.88037400  0.29482100  0.04489000  1
  N  499  1  0.92435300  0.28172500  0.95313400  1
  N  507  1  0.49425800  0.26111600  0.48289400  1
  N  510  1  0.48234800  0.26014600  0.52723400  1
  N  527  1  0.41936600  0.28431400  0.45332800  1
  N  529  1  0.39567700  0.27938100  0.54708900  1
  N  537  1  0.31834500  0.76624200  0.51935700  1
  N  540  1  0.32001200  0.74824500  0.47577900  1
  N  557  1  0.40040000  0.79690300  0.54188600  1
  N  559  1  0.40039300  0.75835200  0.44978300  1
  N  567  1  0.84544100  0.00750900  0.88652100  1
  N  570  1  0.90257000  0.06934000  0.87562700  1
  N  587  1  0.84026700  0.93280600  0.85994200  1
  N  589  1  0.96505200  0.06187200  0.83595100  1
  N  597  1  0.83134800  0.48653400  0.11444000  1
  N  600  1  0.89215000  0.42605900  0.12263300  1
  N  617  1  0.82878600  0.56079400  0.14138400  1
  N  619  1  0.96205100  0.43498300  0.15923200  1
  N  627  1  0.97370500  0.98736900  0.11439900  1
  N  630  1  0.91583400  0.92547000  0.12421900  1
  N  647  1  0.97773400  0.06146100  0.14157200  1
  N  649  1  0.85142300  0.93212400  0.16311800  1
  N  657  1  0.98128400  0.50837400  0.88152600  1
  N  660  1  0.92221700  0.56974800  0.87240700  1
  N  677  1  0.98363500  0.43383300  0.85481700  1
  N  679  1  0.85325800  0.56114300  0.83546900  1
  N  687  1  0.33669400  0.50659300  0.38491700  1
  N  690  1  0.39007000  0.57044600  0.37285200  1
  N  707  1  0.33071300  0.43248800  0.35764900  1
  N  709  1  0.44723700  0.56620200  0.33174600  1
  N  717  1  0.33406000  0.98578300  0.61873900  1
  N  720  1  0.39795000  0.92718800  0.62522600  1
  N  737  1  0.32839400  0.05762800  0.64748400  1
  N  739  1  0.46821300  0.93589300  0.66176200  1
  N  747  1  0.47720200  0.49006800  0.61213800  1
  N  750  1  0.42209600  0.42669500  0.62289300  1
  N  767  1  0.48228500  0.56347500  0.63978200  1
  N  769  1  0.36353300  0.43025900  0.66378400  1
  N  777  1  0.48368500  0.00918600  0.38689600  1
  N  780  1  0.42458400  0.06939200  0.37580800  1
  N  797  1  0.48896000  0.93311200  0.36136400  1
  N  799  1  0.35936000  0.05866300  0.33769700  1
  N  807  1  0.58217000  0.80676000  0.75399800  1
  N  810  1  0.63201100  0.79183800  0.79070700  1
  N  827  1  0.60650000  0.76831300  0.71163000  1
  N  829  1  0.70762400  0.73602500  0.79111900  1
  N  837  1  0.57366900  0.69533000  0.24063100  1
  N  840  1  0.64532800  0.69849400  0.21271300  1
  N  857  1  0.55483900  0.75727700  0.27172400  1
  N  859  1  0.70892800  0.76730200  0.21274800  1
  N  867  1  0.22599400  0.31219800  0.24376100  1
  N  870  1  0.17935100  0.28810500  0.20746200  1
  N  887  1  0.20533400  0.27658800  0.28720700  1
  N  889  1  0.11134800  0.22516400  0.20871800  1
  N  897  1  0.20878900  0.18301000  0.76539100  1
  N  900  1  0.12575300  0.20235300  0.78201200  1
  N  917  1  0.25740700  0.23330200  0.73565200  1
  N  919  1  0.08031200  0.28335800  0.76992900  1
