# generated using pymatgen
data_H48C57(NO)4
_symmetry_space_group_name_H-M   'P 1'
_cell_length_a   39.28090000
_cell_length_b   53.78940000
_cell_length_c   53.78940000
_cell_angle_alpha   90.00000000
_cell_angle_beta   90.00000000
_cell_angle_gamma   90.00000000
_symmetry_Int_Tables_number   1
_chemical_formula_structural   H48C57(NO)4
_chemical_formula_sum   'H1152 C1368 N96 O96'
_cell_volume   113651.41038630
_cell_formula_units_Z   24
loop_
 _symmetry_equiv_pos_site_id
 _symmetry_equiv_pos_as_xyz
  1  'x, y, z'
loop_
 _atom_site_type_symbol
 _atom_site_label
 _atom_site_symmetry_multiplicity
 _atom_site_fract_x
 _atom_site_fract_y
 _atom_site_fract_z
 _atom_site_occupancy
  H  25  1  0.22839200  0.16189400  0.07244300  1
  H  26  1  0.23698100  0.13335500  0.10649900  1
  H  27  1  0.23399000  0.10446600  0.14342400  1
  H  28  1  0.21940600  0.07534000  0.17582500  1
  H  29  1  0.11480000  0.08898600  0.16333500  1
  H  30  1  0.12238800  0.16141400  0.08564800  1
  H  31  1  0.13742400  0.16201100  0.16330300  1
  H  32  1  0.03289000  0.17564100  0.17614300  1
  H  33  1  0.01811000  0.14655100  0.14375400  1
  H  34  1  0.12942800  0.08965000  0.08562800  1
  H  35  1  0.01491400  0.11764700  0.10682900  1
  H  36  1  0.02334500  0.08913100  0.07272500  1
  H  39  1  0.13364100  0.06292300  0.19720800  1
  H  41  1  0.09752800  0.07778100  0.04322700  1
  H  43  1  0.11885000  0.18815600  0.19713900  1
  H  45  1  0.15410000  0.17323500  0.04315500  1
  H  70  1  0.72158600  0.57823600  0.17367800  1
  H  71  1  0.73309200  0.60941400  0.14251800  1
  H  72  1  0.73294700  0.64134600  0.10789600  1
  H  73  1  0.72117300  0.67264200  0.07690800  1
  H  74  1  0.61554400  0.66406700  0.08921100  1
  H  75  1  0.61586200  0.58660400  0.16167600  1
  H  76  1  0.63016400  0.59137100  0.08402300  1
  H  77  1  0.52440600  0.58638900  0.07057800  1
  H  78  1  0.51324500  0.61263700  0.10597300  1
  H  79  1  0.63041900  0.65922600  0.16665500  1
  H  80  1  0.51337500  0.63778000  0.14524400  1
  H  81  1  0.52476200  0.66410100  0.18055400  1
  H  84  1  0.63719100  0.68938100  0.05533800  1
  H  86  1  0.60087300  0.67225500  0.20934800  1
  H  88  1  0.60027000  0.57840000  0.04141300  1
  H  90  1  0.63780900  0.56155700  0.19567200  1
  H  115  1  0.52389600  0.08652200  0.57532300  1
  H  116  1  0.51578300  0.11521800  0.60926100  1
  H  117  1  0.51927600  0.14479000  0.64552300  1
  H  118  1  0.53411800  0.17503100  0.67681500  1
  H  119  1  0.63858600  0.16379500  0.66161200  1
  H  120  1  0.63041100  0.08953700  0.58568200  1
  H  121  1  0.62023900  0.09167600  0.66577800  1
  H  122  1  0.72616500  0.08428100  0.67713300  1
  H  123  1  0.73714000  0.11051800  0.64175300  1
  H  124  1  0.62010100  0.16131400  0.58457400  1
  H  125  1  0.73675300  0.13623600  0.60293100  1
  H  126  1  0.72534800  0.16377400  0.56856500  1
  H  129  1  0.62028900  0.18987900  0.69559400  1
  H  131  1  0.64879200  0.17425200  0.54144900  1
  H  133  1  0.65057100  0.07786200  0.70758300  1
  H  135  1  0.59778500  0.07653200  0.54431900  1
  H  160  1  0.02670300  0.66342100  0.68164700  1
  H  161  1  0.01503500  0.63599700  0.64723500  1
  H  162  1  0.01438600  0.61029900  0.60840800  1
  H  163  1  0.02511100  0.58390900  0.57310500  1
  H  164  1  0.13112300  0.59133400  0.58404200  1
  H  165  1  0.13182700  0.66099300  0.66522200  1
  H  166  1  0.11333800  0.66364500  0.58818300  1
  H  167  1  0.21793100  0.67494300  0.57347000  1
  H  168  1  0.23252000  0.64458000  0.60469900  1
  H  169  1  0.12093400  0.58949500  0.66423700  1
  H  170  1  0.23573600  0.61509500  0.64103000  1
  H  171  1  0.22734600  0.58662500  0.67512400  1
  H  174  1  0.10060300  0.57723800  0.54244900  1
  H  176  1  0.15329200  0.57694800  0.70587700  1
  H  178  1  0.13190500  0.68999100  0.55447900  1
  H  180  1  0.10344900  0.67366800  0.70851300  1
  H  205  1  0.27441900  0.83640100  0.43019600  1
  H  206  1  0.26325300  0.86273300  0.39487900  1
  H  207  1  0.26330100  0.88798300  0.35576500  1
  H  208  1  0.27454600  0.91435300  0.32048700  1
  H  209  1  0.38025100  0.90948200  0.33417000  1
  H  210  1  0.38017000  0.84143100  0.41676000  1
  H  211  1  0.36560600  0.91418200  0.41172200  1
  H  212  1  0.47125800  0.92261700  0.42402400  1
  H  213  1  0.48295300  0.89139700  0.39295500  1
  H  214  1  0.36588800  0.83678900  0.33906100  1
  H  215  1  0.48308800  0.85956500  0.35833100  1
  H  216  1  0.47163200  0.82838400  0.32717000  1
  H  219  1  0.35056500  0.92257600  0.29155000  1
  H  221  1  0.38793200  0.81166200  0.30512000  1
  H  223  1  0.38731300  0.93947700  0.44559900  1
  H  225  1  0.35038400  0.82832800  0.45932300  1
  H  250  1  0.78094800  0.92342700  0.82251100  1
  H  251  1  0.76637100  0.89411600  0.85475700  1
  H  252  1  0.76320900  0.86546000  0.89181900  1
  H  253  1  0.77167900  0.83796000  0.92672300  1
  H  254  1  0.87812800  0.84088900  0.91589400  1
  H  255  1  0.88557400  0.91195500  0.83695800  1
  H  256  1  0.86713500  0.83812200  0.83788400  1
  H  257  1  0.97293500  0.82757200  0.82814100  1
  H  258  1  0.98437300  0.85776500  0.86026400  1
  H  259  1  0.86691800  0.91394800  0.91206200  1
  H  260  1  0.98413300  0.88923600  0.89532100  1
  H  261  1  0.97233400  0.92042100  0.92644800  1
  H  264  1  0.84549100  0.82876300  0.95779300  1
  H  266  1  0.88836100  0.93839500  0.94676600  1
  H  268  1  0.88943300  0.81291500  0.80413600  1
  H  270  1  0.86685700  0.93762300  0.80270400  1
  H  295  1  0.97849400  0.33855500  0.32232600  1
  H  296  1  0.98696900  0.36705700  0.35640500  1
  H  297  1  0.98393500  0.39596600  0.39321900  1
  H  298  1  0.96937800  0.42517100  0.42554500  1
  H  299  1  0.86475200  0.41176500  0.41288200  1
  H  300  1  0.87241700  0.33921400  0.33519100  1
  H  301  1  0.87953000  0.41114000  0.33530600  1
  H  302  1  0.77345600  0.41192900  0.32236600  1
  H  303  1  0.76489700  0.38330000  0.35634500  1
  H  304  1  0.88701700  0.33869900  0.41306800  1
  H  305  1  0.76787000  0.35438600  0.39318500  1
  H  306  1  0.78236300  0.32536500  0.42569700  1
  H  309  1  0.88360900  0.43791700  0.44670300  1
  H  311  1  0.86809700  0.31277700  0.44703400  1
  H  313  1  0.84777900  0.42337700  0.29297400  1
  H  315  1  0.90427500  0.32733400  0.29278600  1
  H  340  1  0.47057000  0.42290100  0.92792800  1
  H  341  1  0.48529000  0.39377500  0.89553700  1
  H  342  1  0.48859400  0.36514600  0.85844600  1
  H  343  1  0.48028700  0.33758300  0.82357800  1
  H  344  1  0.37378800  0.34059300  0.83409000  1
  H  345  1  0.36601000  0.41148200  0.91320800  1
  H  346  1  0.38471900  0.33797700  0.91219100  1
  H  347  1  0.27895000  0.32760500  0.92227800  1
  H  348  1  0.26741000  0.35767300  0.89005400  1
  H  349  1  0.38469600  0.41389400  0.83812400  1
  H  350  1  0.26753700  0.38913000  0.85499200  1
  H  351  1  0.27921200  0.42051800  0.82405100  1
  H  354  1  0.40663100  0.32829000  0.79231600  1
  H  356  1  0.36317900  0.43881500  0.80384400  1
  H  358  1  0.36248700  0.31311400  0.94623600  1
  H  360  1  0.38467600  0.43673800  0.94785200  1
  H  367  1  0.06168700  0.99332900  0.99211700  1
  H  368  1  0.09965100  0.01347600  0.02048500  1
  H  375  1  0.99138100  0.02681100  0.96815500  1
  H  376  1  0.95341100  0.00935300  0.93822000  1
  H  377  1  0.95275700  0.94179900  0.97749500  1
  H  378  1  0.01619500  0.04363800  0.05906600  1
  H  382  1  0.98948500  0.96434200  0.03283000  1
  H  383  1  0.02218700  0.95190500  0.01409400  1
  H  384  1  0.95632300  0.93151000  0.02228700  1
  H  386  1  0.94956400  0.01416700  0.02039500  1
  H  387  1  0.95922000  0.02051000  0.05171400  1
  H  388  1  0.93338600  0.05362800  0.03170500  1
  H  390  1  0.11091400  0.03861100  0.05713400  1
  H  391  1  0.07733900  0.03843900  0.07883900  1
  H  393  1  0.90337100  0.97651200  0.93494400  1
  H  394  1  0.93838800  0.96536500  0.91796500  1
  H  401  1  0.56242400  0.75624400  0.26200100  1
  H  402  1  0.60129800  0.73612800  0.23428800  1
  H  409  1  0.49146800  0.72331500  0.28390700  1
  H  410  1  0.45269100  0.74044900  0.31346500  1
  H  411  1  0.45295100  0.80838600  0.27488300  1
  H  412  1  0.51915600  0.70804300  0.19279800  1
  H  416  1  0.49116500  0.78641100  0.21984100  1
  H  417  1  0.52339200  0.79863700  0.23914700  1
  H  418  1  0.45775200  0.81914300  0.23026100  1
  H  420  1  0.45132700  0.73731600  0.23046700  1
  H  421  1  0.46234000  0.73159000  0.19926200  1
  H  422  1  0.43491400  0.69831600  0.21783700  1
  H  424  1  0.61383600  0.71195100  0.19727900  1
  H  425  1  0.58130400  0.71252300  0.17481700  1
  H  427  1  0.40247800  0.77330100  0.31632200  1
  H  428  1  0.43703700  0.78404800  0.33402700  1
  H  435  1  0.69084800  0.25796200  0.48956300  1
  H  436  1  0.65126900  0.23819000  0.51699200  1
  H  443  1  0.76314000  0.22376900  0.46845100  1
  H  444  1  0.80359500  0.24049000  0.43988800  1
  H  445  1  0.80120500  0.30894700  0.47747300  1
  H  446  1  0.73235900  0.20832400  0.55832500  1
  H  450  1  0.76019000  0.28757900  0.53164000  1
  H  451  1  0.72893000  0.29970000  0.51143900  1
  H  452  1  0.79418800  0.32015400  0.52178300  1
  H  454  1  0.80119700  0.23722900  0.52139300  1
  H  455  1  0.78974100  0.23101800  0.55240800  1
  H  456  1  0.81657800  0.19777700  0.53331300  1
  H  458  1  0.63788600  0.21408100  0.55390600  1
  H  459  1  0.67048400  0.21354200  0.57630700  1
  H  461  1  0.85475000  0.27352800  0.43969200  1
  H  462  1  0.82231900  0.28266500  0.41920900  1
  H  469  1  0.18892400  0.49325100  0.75859000  1
  H  470  1  0.15109800  0.51294300  0.72980000  1
  H  477  1  0.25914200  0.52670200  0.78267600  1
  H  478  1  0.29732300  0.50936200  0.81254500  1
  H  479  1  0.29829800  0.44183200  0.77324700  1
  H  480  1  0.23472900  0.54278500  0.69119400  1
  H  484  1  0.26127500  0.46422000  0.71799300  1
  H  485  1  0.22865300  0.45172600  0.73676600  1
  H  486  1  0.29457600  0.43146400  0.72852100  1
  H  488  1  0.30118200  0.51409400  0.73058200  1
  H  489  1  0.29173500  0.51994400  0.69913400  1
  H  490  1  0.31724400  0.55342300  0.71876200  1
  H  492  1  0.14001200  0.53739600  0.69265100  1
  H  493  1  0.17380200  0.53682500  0.67113400  1
  H  495  1  0.34766000  0.47679500  0.81562300  1
  H  496  1  0.31293100  0.46536100  0.83272200  1
  H  503  1  0.44265600  0.24399000  0.74032400  1
  H  504  1  0.40424300  0.26407800  0.76842800  1
  H  511  1  0.51415600  0.27769000  0.71799300  1
  H  512  1  0.55394400  0.26107900  0.68887700  1
  H  513  1  0.55310900  0.19268500  0.72662400  1
  H  514  1  0.48708700  0.29321200  0.80843600  1
  H  518  1  0.51327000  0.21382500  0.78126300  1
  H  519  1  0.48144100  0.20180400  0.76148400  1
  H  520  1  0.54688500  0.18121500  0.77085600  1
  H  522  1  0.55430100  0.26367500  0.77042300  1
  H  523  1  0.54389600  0.26995100  0.80162100  1
  H  524  1  0.57064700  0.30298700  0.78211300  1
  H  526  1  0.39236700  0.28889000  0.80522900  1
  H  527  1  0.42535200  0.28805300  0.82737800  1
  H  529  1  0.60524100  0.22868600  0.68789700  1
  H  530  1  0.57251800  0.21856700  0.66812800  1
  H  537  1  0.31079300  0.74440900  0.51217100  1
  H  538  1  0.34998200  0.76440500  0.48459500  1
  H  545  1  0.23908600  0.77768700  0.53356200  1
  H  546  1  0.19862000  0.76099200  0.56213100  1
  H  547  1  0.19964600  0.69292100  0.52382400  1
  H  548  1  0.26830100  0.79288700  0.44291200  1
  H  552  1  0.24066500  0.71433900  0.46977300  1
  H  553  1  0.27205400  0.70205300  0.48976200  1
  H  554  1  0.20665100  0.68177000  0.47958900  1
  H  556  1  0.20002800  0.76376400  0.48021500  1
  H  557  1  0.21133300  0.76968100  0.44911100  1
  H  558  1  0.18397100  0.80291500  0.46782100  1
  H  560  1  0.36291500  0.78845300  0.44754700  1
  H  561  1  0.33045900  0.78794900  0.42503300  1
  H  563  1  0.14704800  0.72874000  0.56227100  1
  H  564  1  0.17929300  0.71845400  0.58236400  1
  H  571  1  0.81099600  0.50739900  0.24168500  1
  H  572  1  0.84912600  0.48749200  0.27009800  1
  H  579  1  0.74054400  0.47331800  0.21824700  1
  H  580  1  0.70250000  0.49032700  0.18811300  1
  H  581  1  0.70206700  0.55849500  0.22630300  1
  H  582  1  0.76592500  0.45730700  0.30894200  1
  H  586  1  0.73894500  0.53675100  0.28193800  1
  H  587  1  0.77156700  0.54893300  0.26296300  1
  H  588  1  0.70570500  0.56940600  0.27097300  1
  H  590  1  0.69906100  0.48656800  0.27032600  1
  H  591  1  0.70887700  0.48030600  0.30163400  1
  H  592  1  0.68300400  0.44711600  0.28177300  1
  H  594  1  0.86060800  0.46264100  0.30691500  1
  H  595  1  0.82701900  0.46255200  0.32860000  1
  H  597  1  0.65248300  0.52320500  0.18437900  1
  H  598  1  0.68750500  0.53393600  0.16714500  1
  H  605  1  0.56118900  0.99317900  0.49182500  1
  H  606  1  0.59924600  0.01267600  0.52058000  1
  H  613  1  0.49091600  0.02730300  0.46827600  1
  H  614  1  0.45273700  0.01042400  0.43815500  1
  H  615  1  0.45185400  0.94227300  0.47635400  1
  H  616  1  0.51595900  0.04267600  0.55944800  1
  H  620  1  0.48890000  0.96386400  0.53196700  1
  H  621  1  0.52146800  0.95160400  0.51299100  1
  H  622  1  0.45550400  0.93130400  0.52098500  1
  H  624  1  0.44918100  0.01414600  0.52023400  1
  H  625  1  0.45883400  0.01996100  0.55165500  1
  H  626  1  0.43331800  0.05350000  0.53213800  1
  H  628  1  0.61063100  0.03696700  0.55780100  1
  H  629  1  0.57686900  0.03674400  0.57934300  1
  H  631  1  0.40240700  0.97777600  0.43456700  1
  H  632  1  0.43721600  0.96689500  0.41720900  1
  H  639  1  0.06269000  0.75722200  0.76092300  1
  H  640  1  0.10181200  0.73747200  0.73314100  1
  H  647  1  0.99131000  0.72351200  0.78290300  1
  H  648  1  0.95250000  0.74073100  0.81239600  1
  H  649  1  0.95374200  0.80883000  0.77410600  1
  H  650  1  0.02003000  0.70801500  0.69222200  1
  H  654  1  0.99199200  0.78677200  0.71907100  1
  H  655  1  0.02411800  0.79894500  0.73850200  1
  H  656  1  0.95856900  0.81952600  0.72942800  1
  H  658  1  0.95182000  0.73680100  0.72991100  1
  H  659  1  0.96277200  0.73092600  0.69872700  1
  H  660  1  0.93611800  0.69752000  0.71766000  1
  H  662  1  0.11460100  0.71346900  0.69607200  1
  H  663  1  0.08173900  0.71315900  0.67386500  1
  H  665  1  0.90249600  0.77414500  0.81508200  1
  H  666  1  0.93715600  0.78406100  0.83316000  1
  H  673  1  0.19056900  0.25736300  0.99166900  1
  H  674  1  0.15240600  0.23736600  0.01999700  1
  H  681  1  0.26189900  0.22347100  0.96866100  1
  H  682  1  0.30000600  0.24069000  0.93868800  1
  H  683  1  0.29871300  0.30905700  0.97651200  1
  H  684  1  0.23558000  0.20750000  0.05911800  1
  H  688  1  0.26163900  0.28716800  0.03204900  1
  H  689  1  0.22907700  0.29906300  0.01283400  1
  H  690  1  0.29457900  0.32001700  0.02117700  1
  H  692  1  0.30247600  0.23693300  0.02067400  1
  H  693  1  0.29252200  0.23063600  0.05194900  1
  H  694  1  0.31869200  0.19752600  0.03216200  1
  H  696  1  0.14088100  0.21250100  0.05679500  1
  H  697  1  0.17432000  0.21268500  0.07860400  1
  H  699  1  0.34959300  0.27428400  0.93526600  1
  H  700  1  0.31450900  0.28402600  0.91752300  1
  H  707  1  0.94229900  0.24318200  0.24123500  1
  H  708  1  0.90365100  0.26308500  0.26928900  1
  H  715  1  0.01459600  0.27738200  0.21893000  1
  H  716  1  0.05457700  0.26051200  0.19009900  1
  H  717  1  0.05209800  0.19204300  0.22767500  1
  H  718  1  0.98612400  0.29342200  0.30881500  1
  H  722  1  0.01192500  0.21352300  0.28209800  1
  H  723  1  0.98030200  0.20156000  0.26210500  1
  H  724  1  0.04550700  0.18079900  0.27198300  1
  H  726  1  0.05370500  0.26408500  0.27099400  1
  H  727  1  0.04325900  0.27063100  0.30212500  1
  H  728  1  0.06949900  0.30365300  0.28222700  1
  H  730  1  0.89151100  0.28786100  0.30606000  1
  H  731  1  0.92474100  0.28778300  0.32802600  1
  H  733  1  0.10553000  0.22738300  0.18966900  1
  H  734  1  0.07291900  0.21820100  0.16935500  1
  H  741  1  0.81079200  0.74456700  0.01008400  1
  H  742  1  0.84870100  0.76467300  0.98164500  1
  H  749  1  0.74000200  0.77779200  0.03328700  1
  H  750  1  0.70185300  0.76060500  0.06325100  1
  H  751  1  0.70196000  0.69254700  0.02486900  1
  H  752  1  0.76514400  0.79351100  0.94219800  1
  H  756  1  0.73906200  0.71447700  0.96943100  1
  H  757  1  0.77170900  0.70243400  0.98847100  1
  H  758  1  0.70607900  0.68164700  0.98026200  1
  H  760  1  0.69862300  0.76400900  0.98092700  1
  H  761  1  0.70849300  0.77003100  0.94958100  1
  H  762  1  0.68192800  0.80317900  0.96902300  1
  H  764  1  0.85993800  0.78943400  0.94473100  1
  H  765  1  0.82665000  0.78845100  0.92281900  1
  H  767  1  0.65189000  0.72769300  0.06661000  1
  H  768  1  0.68670900  0.71689000  0.08401500  1
  H  775  1  0.56138500  0.49380000  0.98923600  1
  H  776  1  0.60054200  0.51420200  0.01653500  1
  H  783  1  0.48896600  0.52644200  0.96779500  1
  H  784  1  0.44881700  0.50900900  0.93942100  1
  H  785  1  0.45151500  0.44128600  0.97831700  1
  H  786  1  0.51882500  0.54264400  0.05821600  1
  H  790  1  0.49205400  0.46377200  0.03217700  1
  H  791  1  0.52359100  0.45153500  0.01228200  1
  H  792  1  0.45853400  0.43080800  0.02276300  1
  H  794  1  0.45060900  0.51297500  0.02128600  1
  H  795  1  0.46199600  0.51915000  0.05232600  1
  H  796  1  0.43431300  0.55214800  0.03345000  1
  H  798  1  0.61345700  0.53869000  0.05327700  1
  H  799  1  0.58119700  0.53802800  0.07594400  1
  H  801  1  0.39800000  0.47582000  0.93959400  1
  H  802  1  0.43068600  0.46625200  0.91952100  1
  H  809  1  0.68897400  0.99406400  0.76131500  1
  H  810  1  0.65005200  0.01406900  0.73353300  1
  H  817  1  0.76133000  0.02665800  0.78290700  1
  H  818  1  0.80174700  0.00943400  0.81120800  1
  H  819  1  0.79943300  0.94165600  0.77240900  1
  H  820  1  0.73214300  0.04200000  0.69192100  1
  H  824  1  0.75850200  0.96383700  0.71863800  1
  H  825  1  0.72706400  0.95157400  0.73860100  1
  H  826  1  0.79218700  0.93098100  0.72808200  1
  H  828  1  0.80004900  0.01302200  0.72965300  1
  H  829  1  0.78894400  0.01872400  0.69846800  1
  H  830  1  0.81634400  0.05203700  0.71701100  1
  H  832  1  0.63746600  0.03786200  0.69625200  1
  H  833  1  0.67003100  0.03681200  0.67383700  1
  H  835  1  0.85291900  0.97659400  0.81078400  1
  H  836  1  0.82063400  0.96675300  0.83106300  1
  H  843  1  0.31061700  0.00662300  0.23897800  1
  H  844  1  0.34995700  0.98651200  0.26635200  1
  H  851  1  0.23791900  0.97340900  0.21814900  1
  H  852  1  0.19753000  0.99040300  0.18969700  1
  H  853  1  0.20066100  0.05874600  0.22746300  1
  H  854  1  0.26852000  0.95810900  0.30833900  1
  H  858  1  0.24163900  0.03707000  0.28149600  1
  H  859  1  0.27299300  0.04902100  0.26127400  1
  H  860  1  0.20800600  0.06987300  0.27173900  1
  H  862  1  0.20006000  0.98751000  0.27143800  1
  H  863  1  0.21162000  0.98145300  0.30246500  1
  H  864  1  0.18389000  0.94836500  0.28378800  1
  H  866  1  0.36310600  0.96242000  0.30331600  1
  H  867  1  0.33082000  0.96287000  0.32595600  1
  H  869  1  0.14668600  0.02365900  0.18966600  1
  H  870  1  0.17912400  0.03276200  0.16917300  1
  H  877  1  0.06093900  0.49393700  0.48872300  1
  H  878  1  0.10018600  0.51369000  0.51643200  1
  H  885  1  0.98849200  0.52706100  0.46778700  1
  H  886  1  0.94809300  0.51017500  0.43927000  1
  H  887  1  0.95066200  0.44185600  0.47709000  1
  H  888  1  0.01859300  0.54161800  0.55855800  1
  H  892  1  0.99159000  0.46340900  0.53117900  1
  H  893  1  0.02296600  0.45138400  0.51101900  1
  H  894  1  0.95784300  0.43069300  0.52135700  1
  H  896  1  0.95024200  0.51292100  0.52103400  1
  H  897  1  0.96165900  0.51845500  0.55218700  1
  H  898  1  0.93417300  0.55189900  0.53395800  1
  H  900  1  0.11319900  0.53716900  0.55384300  1
  H  901  1  0.08073100  0.53640500  0.57633500  1
  H  903  1  0.89702200  0.47711200  0.43918300  1
  H  904  1  0.92944800  0.46784500  0.41875500  1
  H  929  1  0.53388400  0.16189400  0.07244300  1
  H  930  1  0.54247300  0.13335500  0.10649900  1
  H  931  1  0.53948200  0.10446600  0.14342400  1
  H  932  1  0.52489800  0.07534000  0.17582500  1
  H  933  1  0.42029200  0.08898600  0.16333500  1
  H  934  1  0.42788000  0.16141400  0.08564800  1
  H  935  1  0.44291600  0.16201100  0.16330300  1
  H  936  1  0.33838200  0.17564100  0.17614300  1
  H  937  1  0.32360200  0.14655100  0.14375400  1
  H  938  1  0.43492000  0.08965000  0.08562800  1
  H  939  1  0.32040600  0.11764700  0.10682900  1
  H  940  1  0.32883700  0.08913100  0.07272500  1
  H  943  1  0.43913300  0.06292300  0.19720800  1
  H  945  1  0.40302000  0.07778100  0.04322700  1
  H  947  1  0.42434200  0.18815600  0.19713900  1
  H  949  1  0.45959200  0.17323500  0.04315500  1
  H  974  1  0.02707800  0.57823600  0.17367800  1
  H  975  1  0.03858400  0.60941400  0.14251800  1
  H  976  1  0.03843900  0.64134600  0.10789600  1
  H  977  1  0.02666500  0.67264200  0.07690800  1
  H  978  1  0.92103600  0.66406700  0.08921100  1
  H  979  1  0.92135400  0.58660400  0.16167600  1
  H  980  1  0.93565600  0.59137100  0.08402300  1
  H  981  1  0.82989800  0.58638900  0.07057800  1
  H  982  1  0.81873700  0.61263700  0.10597300  1
  H  983  1  0.93591100  0.65922600  0.16665500  1
  H  984  1  0.81886700  0.63778000  0.14524400  1
  H  985  1  0.83025400  0.66410100  0.18055400  1
  H  988  1  0.94268300  0.68938100  0.05533800  1
  H  990  1  0.90636500  0.67225500  0.20934800  1
  H  992  1  0.90576200  0.57840000  0.04141300  1
  H  994  1  0.94330100  0.56155700  0.19567200  1
  H  1019  1  0.82938800  0.08652200  0.57532300  1
  H  1020  1  0.82127500  0.11521800  0.60926100  1
  H  1021  1  0.82476800  0.14479000  0.64552300  1
  H  1022  1  0.83961000  0.17503100  0.67681500  1
  H  1023  1  0.94407800  0.16379500  0.66161200  1
  H  1024  1  0.93590300  0.08953700  0.58568200  1
  H  1025  1  0.92573100  0.09167600  0.66577800  1
  H  1026  1  0.03165700  0.08428100  0.67713300  1
  H  1027  1  0.04263200  0.11051800  0.64175300  1
  H  1028  1  0.92559300  0.16131400  0.58457400  1
  H  1029  1  0.04224500  0.13623600  0.60293100  1
  H  1030  1  0.03084000  0.16377400  0.56856500  1
  H  1033  1  0.92578100  0.18987900  0.69559400  1
  H  1035  1  0.95428400  0.17425200  0.54144900  1
  H  1037  1  0.95606300  0.07786200  0.70758300  1
  H  1039  1  0.90327700  0.07653200  0.54431900  1
  H  1064  1  0.33219500  0.66342100  0.68164700  1
  H  1065  1  0.32052700  0.63599700  0.64723500  1
  H  1066  1  0.31987800  0.61029900  0.60840800  1
  H  1067  1  0.33060300  0.58390900  0.57310500  1
  H  1068  1  0.43661500  0.59133400  0.58404200  1
  H  1069  1  0.43731900  0.66099300  0.66522200  1
  H  1070  1  0.41883000  0.66364500  0.58818300  1
  H  1071  1  0.52342300  0.67494300  0.57347000  1
  H  1072  1  0.53801200  0.64458000  0.60469900  1
  H  1073  1  0.42642600  0.58949500  0.66423700  1
  H  1074  1  0.54122800  0.61509500  0.64103000  1
  H  1075  1  0.53283800  0.58662500  0.67512400  1
  H  1078  1  0.40609500  0.57723800  0.54244900  1
  H  1080  1  0.45878400  0.57694800  0.70587700  1
  H  1082  1  0.43739700  0.68999100  0.55447900  1
  H  1084  1  0.40894100  0.67366800  0.70851300  1
  H  1109  1  0.57991100  0.83640100  0.43019600  1
  H  1110  1  0.56874500  0.86273300  0.39487900  1
  H  1111  1  0.56879300  0.88798300  0.35576500  1
  H  1112  1  0.58003800  0.91435300  0.32048700  1
  H  1113  1  0.68574300  0.90948200  0.33417000  1
  H  1114  1  0.68566200  0.84143100  0.41676000  1
  H  1115  1  0.67109800  0.91418200  0.41172200  1
  H  1116  1  0.77675000  0.92261700  0.42402400  1
  H  1117  1  0.78844500  0.89139700  0.39295500  1
  H  1118  1  0.67138000  0.83678900  0.33906100  1
  H  1119  1  0.78858000  0.85956500  0.35833100  1
  H  1120  1  0.77712400  0.82838400  0.32717000  1
  H  1123  1  0.65605700  0.92257600  0.29155000  1
  H  1125  1  0.69342400  0.81166200  0.30512000  1
  H  1127  1  0.69280500  0.93947700  0.44559900  1
  H  1129  1  0.65587600  0.82832800  0.45932300  1
  H  1154  1  0.08644000  0.92342700  0.82251100  1
  H  1155  1  0.07186300  0.89411600  0.85475700  1
  H  1156  1  0.06870100  0.86546000  0.89181900  1
  H  1157  1  0.07717100  0.83796000  0.92672300  1
  H  1158  1  0.18362000  0.84088900  0.91589400  1
  H  1159  1  0.19106600  0.91195500  0.83695800  1
  H  1160  1  0.17262700  0.83812200  0.83788400  1
  H  1161  1  0.27842700  0.82757200  0.82814100  1
  H  1162  1  0.28986500  0.85776500  0.86026400  1
  H  1163  1  0.17241000  0.91394800  0.91206200  1
  H  1164  1  0.28962500  0.88923600  0.89532100  1
  H  1165  1  0.27782600  0.92042100  0.92644800  1
  H  1168  1  0.15098300  0.82876300  0.95779300  1
  H  1170  1  0.19385300  0.93839500  0.94676600  1
  H  1172  1  0.19492500  0.81291500  0.80413600  1
  H  1174  1  0.17234900  0.93762300  0.80270400  1
  H  1199  1  0.28398600  0.33855500  0.32232600  1
  H  1200  1  0.29246100  0.36705700  0.35640500  1
  H  1201  1  0.28942700  0.39596600  0.39321900  1
  H  1202  1  0.27487000  0.42517100  0.42554500  1
  H  1203  1  0.17024400  0.41176500  0.41288200  1
  H  1204  1  0.17790900  0.33921400  0.33519100  1
  H  1205  1  0.18502200  0.41114000  0.33530600  1
  H  1206  1  0.07894800  0.41192900  0.32236600  1
  H  1207  1  0.07038900  0.38330000  0.35634500  1
  H  1208  1  0.19250900  0.33869900  0.41306800  1
  H  1209  1  0.07336200  0.35438600  0.39318500  1
  H  1210  1  0.08785500  0.32536500  0.42569700  1
  H  1213  1  0.18910100  0.43791700  0.44670300  1
  H  1215  1  0.17358900  0.31277700  0.44703400  1
  H  1217  1  0.15327100  0.42337700  0.29297400  1
  H  1219  1  0.20976700  0.32733400  0.29278600  1
  H  1244  1  0.77606200  0.42290100  0.92792800  1
  H  1245  1  0.79078200  0.39377500  0.89553700  1
  H  1246  1  0.79408600  0.36514600  0.85844600  1
  H  1247  1  0.78577900  0.33758300  0.82357800  1
  H  1248  1  0.67928000  0.34059300  0.83409000  1
  H  1249  1  0.67150200  0.41148200  0.91320800  1
  H  1250  1  0.69021100  0.33797700  0.91219100  1
  H  1251  1  0.58444200  0.32760500  0.92227800  1
  H  1252  1  0.57290200  0.35767300  0.89005400  1
  H  1253  1  0.69018800  0.41389400  0.83812400  1
  H  1254  1  0.57302900  0.38913000  0.85499200  1
  H  1255  1  0.58470400  0.42051800  0.82405100  1
  H  1258  1  0.71212300  0.32829000  0.79231600  1
  H  1260  1  0.66867100  0.43881500  0.80384400  1
  H  1262  1  0.66797900  0.31311400  0.94623600  1
  H  1264  1  0.69016800  0.43673800  0.94785200  1
  H  1271  1  0.36717900  0.99332900  0.99211700  1
  H  1272  1  0.40514300  0.01347600  0.02048500  1
  H  1279  1  0.29687300  0.02681100  0.96815500  1
  H  1280  1  0.25890300  0.00935300  0.93822000  1
  H  1281  1  0.25824900  0.94179900  0.97749500  1
  H  1282  1  0.32168700  0.04363800  0.05906600  1
  H  1286  1  0.29497700  0.96434200  0.03283000  1
  H  1287  1  0.32767900  0.95190500  0.01409400  1
  H  1288  1  0.26181500  0.93151000  0.02228700  1
  H  1290  1  0.25505600  0.01416700  0.02039500  1
  H  1291  1  0.26471200  0.02051000  0.05171400  1
  H  1292  1  0.23887800  0.05362800  0.03170500  1
  H  1294  1  0.41640600  0.03861100  0.05713400  1
  H  1295  1  0.38283100  0.03843900  0.07883900  1
  H  1297  1  0.20886300  0.97651200  0.93494400  1
  H  1298  1  0.24388000  0.96536500  0.91796500  1
  H  1305  1  0.86791600  0.75624400  0.26200100  1
  H  1306  1  0.90679000  0.73612800  0.23428800  1
  H  1313  1  0.79696000  0.72331500  0.28390700  1
  H  1314  1  0.75818300  0.74044900  0.31346500  1
  H  1315  1  0.75844300  0.80838600  0.27488300  1
  H  1316  1  0.82464800  0.70804300  0.19279800  1
  H  1320  1  0.79665700  0.78641100  0.21984100  1
  H  1321  1  0.82888400  0.79863700  0.23914700  1
  H  1322  1  0.76324400  0.81914300  0.23026100  1
  H  1324  1  0.75681900  0.73731600  0.23046700  1
  H  1325  1  0.76783200  0.73159000  0.19926200  1
  H  1326  1  0.74040600  0.69831600  0.21783700  1
  H  1328  1  0.91932800  0.71195100  0.19727900  1
  H  1329  1  0.88679600  0.71252300  0.17481700  1
  H  1331  1  0.70797000  0.77330100  0.31632200  1
  H  1332  1  0.74252900  0.78404800  0.33402700  1
  H  1339  1  0.99634000  0.25796200  0.48956300  1
  H  1340  1  0.95676100  0.23819000  0.51699200  1
  H  1347  1  0.06863200  0.22376900  0.46845100  1
  H  1348  1  0.10908700  0.24049000  0.43988800  1
  H  1349  1  0.10669700  0.30894700  0.47747300  1
  H  1350  1  0.03785100  0.20832400  0.55832500  1
  H  1354  1  0.06568200  0.28757900  0.53164000  1
  H  1355  1  0.03442200  0.29970000  0.51143900  1
  H  1356  1  0.09968000  0.32015400  0.52178300  1
  H  1358  1  0.10668900  0.23722900  0.52139300  1
  H  1359  1  0.09523300  0.23101800  0.55240800  1
  H  1360  1  0.12207000  0.19777700  0.53331300  1
  H  1362  1  0.94337800  0.21408100  0.55390600  1
  H  1363  1  0.97597600  0.21354200  0.57630700  1
  H  1365  1  0.16024200  0.27352800  0.43969200  1
  H  1366  1  0.12781100  0.28266500  0.41920900  1
  H  1373  1  0.49441600  0.49325100  0.75859000  1
  H  1374  1  0.45659000  0.51294300  0.72980000  1
  H  1381  1  0.56463400  0.52670200  0.78267600  1
  H  1382  1  0.60281500  0.50936200  0.81254500  1
  H  1383  1  0.60379000  0.44183200  0.77324700  1
  H  1384  1  0.54022100  0.54278500  0.69119400  1
  H  1388  1  0.56676700  0.46422000  0.71799300  1
  H  1389  1  0.53414500  0.45172600  0.73676600  1
  H  1390  1  0.60006800  0.43146400  0.72852100  1
  H  1392  1  0.60667400  0.51409400  0.73058200  1
  H  1393  1  0.59722700  0.51994400  0.69913400  1
  H  1394  1  0.62273600  0.55342300  0.71876200  1
  H  1396  1  0.44550400  0.53739600  0.69265100  1
  H  1397  1  0.47929400  0.53682500  0.67113400  1
  H  1399  1  0.65315200  0.47679500  0.81562300  1
  H  1400  1  0.61842300  0.46536100  0.83272200  1
  H  1407  1  0.74814800  0.24399000  0.74032400  1
  H  1408  1  0.70973500  0.26407800  0.76842800  1
  H  1415  1  0.81964800  0.27769000  0.71799300  1
  H  1416  1  0.85943600  0.26107900  0.68887700  1
  H  1417  1  0.85860100  0.19268500  0.72662400  1
  H  1418  1  0.79257900  0.29321200  0.80843600  1
  H  1422  1  0.81876200  0.21382500  0.78126300  1
  H  1423  1  0.78693300  0.20180400  0.76148400  1
  H  1424  1  0.85237700  0.18121500  0.77085600  1
  H  1426  1  0.85979300  0.26367500  0.77042300  1
  H  1427  1  0.84938800  0.26995100  0.80162100  1
  H  1428  1  0.87613900  0.30298700  0.78211300  1
  H  1430  1  0.69785900  0.28889000  0.80522900  1
  H  1431  1  0.73084400  0.28805300  0.82737800  1
  H  1433  1  0.91073300  0.22868600  0.68789700  1
  H  1434  1  0.87801000  0.21856700  0.66812800  1
  H  1441  1  0.61628500  0.74440900  0.51217100  1
  H  1442  1  0.65547400  0.76440500  0.48459500  1
  H  1449  1  0.54457800  0.77768700  0.53356200  1
  H  1450  1  0.50411200  0.76099200  0.56213100  1
  H  1451  1  0.50513800  0.69292100  0.52382400  1
  H  1452  1  0.57379300  0.79288700  0.44291200  1
  H  1456  1  0.54615700  0.71433900  0.46977300  1
  H  1457  1  0.57754600  0.70205300  0.48976200  1
  H  1458  1  0.51214300  0.68177000  0.47958900  1
  H  1460  1  0.50552000  0.76376400  0.48021500  1
  H  1461  1  0.51682500  0.76968100  0.44911100  1
  H  1462  1  0.48946300  0.80291500  0.46782100  1
  H  1464  1  0.66840700  0.78845300  0.44754700  1
  H  1465  1  0.63595100  0.78794900  0.42503300  1
  H  1467  1  0.45254000  0.72874000  0.56227100  1
  H  1468  1  0.48478500  0.71845400  0.58236400  1
  H  1475  1  0.11648800  0.50739900  0.24168500  1
  H  1476  1  0.15461800  0.48749200  0.27009800  1
  H  1483  1  0.04603600  0.47331800  0.21824700  1
  H  1484  1  0.00799198  0.49032700  0.18811300  1
  H  1485  1  0.00755898  0.55849500  0.22630300  1
  H  1486  1  0.07141700  0.45730700  0.30894200  1
  H  1490  1  0.04443700  0.53675100  0.28193800  1
  H  1491  1  0.07705900  0.54893300  0.26296300  1
  H  1492  1  0.01119700  0.56940600  0.27097300  1
  H  1494  1  0.00455298  0.48656800  0.27032600  1
  H  1495  1  0.01436900  0.48030600  0.30163400  1
  H  1496  1  0.98849600  0.44711600  0.28177300  1
  H  1498  1  0.16610000  0.46264100  0.30691500  1
  H  1499  1  0.13251100  0.46255200  0.32860000  1
  H  1501  1  0.95797500  0.52320500  0.18437900  1
  H  1502  1  0.99299700  0.53393600  0.16714500  1
  H  1509  1  0.86668100  0.99317900  0.49182500  1
  H  1510  1  0.90473800  0.01267600  0.52058000  1
  H  1517  1  0.79640800  0.02730300  0.46827600  1
  H  1518  1  0.75822900  0.01042400  0.43815500  1
  H  1519  1  0.75734600  0.94227300  0.47635400  1
  H  1520  1  0.82145100  0.04267600  0.55944800  1
  H  1524  1  0.79439200  0.96386400  0.53196700  1
  H  1525  1  0.82696000  0.95160400  0.51299100  1
  H  1526  1  0.76099600  0.93130400  0.52098500  1
  H  1528  1  0.75467300  0.01414600  0.52023400  1
  H  1529  1  0.76432600  0.01996100  0.55165500  1
  H  1530  1  0.73881000  0.05350000  0.53213800  1
  H  1532  1  0.91612300  0.03696700  0.55780100  1
  H  1533  1  0.88236100  0.03674400  0.57934300  1
  H  1535  1  0.70789900  0.97777600  0.43456700  1
  H  1536  1  0.74270800  0.96689500  0.41720900  1
  H  1543  1  0.36818200  0.75722200  0.76092300  1
  H  1544  1  0.40730400  0.73747200  0.73314100  1
  H  1551  1  0.29680200  0.72351200  0.78290300  1
  H  1552  1  0.25799200  0.74073100  0.81239600  1
  H  1553  1  0.25923400  0.80883000  0.77410600  1
  H  1554  1  0.32552200  0.70801500  0.69222200  1
  H  1558  1  0.29748400  0.78677200  0.71907100  1
  H  1559  1  0.32961000  0.79894500  0.73850200  1
  H  1560  1  0.26406100  0.81952600  0.72942800  1
  H  1562  1  0.25731200  0.73680100  0.72991100  1
  H  1563  1  0.26826400  0.73092600  0.69872700  1
  H  1564  1  0.24161000  0.69752000  0.71766000  1
  H  1566  1  0.42009300  0.71346900  0.69607200  1
  H  1567  1  0.38723100  0.71315900  0.67386500  1
  H  1569  1  0.20798800  0.77414500  0.81508200  1
  H  1570  1  0.24264800  0.78406100  0.83316000  1
  H  1577  1  0.49606100  0.25736300  0.99166900  1
  H  1578  1  0.45789800  0.23736600  0.01999700  1
  H  1585  1  0.56739100  0.22347100  0.96866100  1
  H  1586  1  0.60549800  0.24069000  0.93868800  1
  H  1587  1  0.60420500  0.30905700  0.97651200  1
  H  1588  1  0.54107200  0.20750000  0.05911800  1
  H  1592  1  0.56713100  0.28716800  0.03204900  1
  H  1593  1  0.53456900  0.29906300  0.01283400  1
  H  1594  1  0.60007100  0.32001700  0.02117700  1
  H  1596  1  0.60796800  0.23693300  0.02067400  1
  H  1597  1  0.59801400  0.23063600  0.05194900  1
  H  1598  1  0.62418400  0.19752600  0.03216200  1
  H  1600  1  0.44637300  0.21250100  0.05679500  1
  H  1601  1  0.47981200  0.21268500  0.07860400  1
  H  1603  1  0.65508500  0.27428400  0.93526600  1
  H  1604  1  0.62000100  0.28402600  0.91752300  1
  H  1611  1  0.24779100  0.24318200  0.24123500  1
  H  1612  1  0.20914300  0.26308500  0.26928900  1
  H  1619  1  0.32008800  0.27738200  0.21893000  1
  H  1620  1  0.36006900  0.26051200  0.19009900  1
  H  1621  1  0.35759000  0.19204300  0.22767500  1
  H  1622  1  0.29161600  0.29342200  0.30881500  1
  H  1626  1  0.31741700  0.21352300  0.28209800  1
  H  1627  1  0.28579400  0.20156000  0.26210500  1
  H  1628  1  0.35099900  0.18079900  0.27198300  1
  H  1630  1  0.35919700  0.26408500  0.27099400  1
  H  1631  1  0.34875100  0.27063100  0.30212500  1
  H  1632  1  0.37499100  0.30365300  0.28222700  1
  H  1634  1  0.19700300  0.28786100  0.30606000  1
  H  1635  1  0.23023300  0.28778300  0.32802600  1
  H  1637  1  0.41102200  0.22738300  0.18966900  1
  H  1638  1  0.37841100  0.21820100  0.16935500  1
  H  1645  1  0.11628400  0.74456700  0.01008400  1
  H  1646  1  0.15419300  0.76467300  0.98164500  1
  H  1653  1  0.04549400  0.77779200  0.03328700  1
  H  1654  1  0.00734498  0.76060500  0.06325100  1
  H  1655  1  0.00745198  0.69254700  0.02486900  1
  H  1656  1  0.07063600  0.79351100  0.94219800  1
  H  1660  1  0.04455400  0.71447700  0.96943100  1
  H  1661  1  0.07720100  0.70243400  0.98847100  1
  H  1662  1  0.01157100  0.68164700  0.98026200  1
  H  1664  1  0.00411498  0.76400900  0.98092700  1
  H  1665  1  0.01398500  0.77003100  0.94958100  1
  H  1666  1  0.98742000  0.80317900  0.96902300  1
  H  1668  1  0.16543000  0.78943400  0.94473100  1
  H  1669  1  0.13214200  0.78845100  0.92281900  1
  H  1671  1  0.95738200  0.72769300  0.06661000  1
  H  1672  1  0.99220100  0.71689000  0.08401500  1
  H  1679  1  0.86687700  0.49380000  0.98923600  1
  H  1680  1  0.90603400  0.51420200  0.01653500  1
  H  1687  1  0.79445800  0.52644200  0.96779500  1
  H  1688  1  0.75430900  0.50900900  0.93942100  1
  H  1689  1  0.75700700  0.44128600  0.97831700  1
  H  1690  1  0.82431700  0.54264400  0.05821600  1
  H  1694  1  0.79754600  0.46377200  0.03217700  1
  H  1695  1  0.82908300  0.45153500  0.01228200  1
  H  1696  1  0.76402600  0.43080800  0.02276300  1
  H  1698  1  0.75610100  0.51297500  0.02128600  1
  H  1699  1  0.76748800  0.51915000  0.05232600  1
  H  1700  1  0.73980500  0.55214800  0.03345000  1
  H  1702  1  0.91894900  0.53869000  0.05327700  1
  H  1703  1  0.88668900  0.53802800  0.07594400  1
  H  1705  1  0.70349200  0.47582000  0.93959400  1
  H  1706  1  0.73617800  0.46625200  0.91952100  1
  H  1713  1  0.99446600  0.99406400  0.76131500  1
  H  1714  1  0.95554400  0.01406900  0.73353300  1
  H  1721  1  0.06682200  0.02665800  0.78290700  1
  H  1722  1  0.10723900  0.00943400  0.81120800  1
  H  1723  1  0.10492500  0.94165600  0.77240900  1
  H  1724  1  0.03763500  0.04200000  0.69192100  1
  H  1728  1  0.06399400  0.96383700  0.71863800  1
  H  1729  1  0.03255600  0.95157400  0.73860100  1
  H  1730  1  0.09767900  0.93098100  0.72808200  1
  H  1732  1  0.10554100  0.01302200  0.72965300  1
  H  1733  1  0.09443600  0.01872400  0.69846800  1
  H  1734  1  0.12183600  0.05203700  0.71701100  1
  H  1736  1  0.94295800  0.03786200  0.69625200  1
  H  1737  1  0.97552300  0.03681200  0.67383700  1
  H  1739  1  0.15841100  0.97659400  0.81078400  1
  H  1740  1  0.12612600  0.96675300  0.83106300  1
  H  1747  1  0.61610900  0.00662300  0.23897800  1
  H  1748  1  0.65544900  0.98651200  0.26635200  1
  H  1755  1  0.54341100  0.97340900  0.21814900  1
  H  1756  1  0.50302200  0.99040300  0.18969700  1
  H  1757  1  0.50615300  0.05874600  0.22746300  1
  H  1758  1  0.57401200  0.95810900  0.30833900  1
  H  1762  1  0.54713100  0.03707000  0.28149600  1
  H  1763  1  0.57848500  0.04902100  0.26127400  1
  H  1764  1  0.51349800  0.06987300  0.27173900  1
  H  1766  1  0.50555200  0.98751000  0.27143800  1
  H  1767  1  0.51711200  0.98145300  0.30246500  1
  H  1768  1  0.48938200  0.94836500  0.28378800  1
  H  1770  1  0.66859800  0.96242000  0.30331600  1
  H  1771  1  0.63631200  0.96287000  0.32595600  1
  H  1773  1  0.45217800  0.02365900  0.18966600  1
  H  1774  1  0.48461600  0.03276200  0.16917300  1
  H  1781  1  0.36643100  0.49393700  0.48872300  1
  H  1782  1  0.40567800  0.51369000  0.51643200  1
  H  1789  1  0.29398400  0.52706100  0.46778700  1
  H  1790  1  0.25358500  0.51017500  0.43927000  1
  H  1791  1  0.25615400  0.44185600  0.47709000  1
  H  1792  1  0.32408500  0.54161800  0.55855800  1
  H  1796  1  0.29708200  0.46340900  0.53117900  1
  H  1797  1  0.32845800  0.45138400  0.51101900  1
  H  1798  1  0.26333500  0.43069300  0.52135700  1
  H  1800  1  0.25573400  0.51292100  0.52103400  1
  H  1801  1  0.26715100  0.51845500  0.55218700  1
  H  1802  1  0.23966500  0.55189900  0.53395800  1
  H  1804  1  0.41869100  0.53716900  0.55384300  1
  H  1805  1  0.38622300  0.53640500  0.57633500  1
  H  1807  1  0.20251400  0.47711200  0.43918300  1
  H  1808  1  0.23494000  0.46784500  0.41875500  1
  H  1833  1  0.83937600  0.16189400  0.07244300  1
  H  1834  1  0.84796500  0.13335500  0.10649900  1
  H  1835  1  0.84497400  0.10446600  0.14342400  1
  H  1836  1  0.83039000  0.07534000  0.17582500  1
  H  1837  1  0.72578400  0.08898600  0.16333500  1
  H  1838  1  0.73337200  0.16141400  0.08564800  1
  H  1839  1  0.74840800  0.16201100  0.16330300  1
  H  1840  1  0.64387400  0.17564100  0.17614300  1
  H  1841  1  0.62909400  0.14655100  0.14375400  1
  H  1842  1  0.74041200  0.08965000  0.08562800  1
  H  1843  1  0.62589800  0.11764700  0.10682900  1
  H  1844  1  0.63432900  0.08913100  0.07272500  1
  H  1847  1  0.74462500  0.06292300  0.19720800  1
  H  1849  1  0.70851200  0.07778100  0.04322700  1
  H  1851  1  0.72983400  0.18815600  0.19713900  1
  H  1853  1  0.76508400  0.17323500  0.04315500  1
  H  1878  1  0.33257000  0.57823600  0.17367800  1
  H  1879  1  0.34407600  0.60941400  0.14251800  1
  H  1880  1  0.34393100  0.64134600  0.10789600  1
  H  1881  1  0.33215700  0.67264200  0.07690800  1
  H  1882  1  0.22652800  0.66406700  0.08921100  1
  H  1883  1  0.22684600  0.58660400  0.16167600  1
  H  1884  1  0.24114800  0.59137100  0.08402300  1
  H  1885  1  0.13539000  0.58638900  0.07057800  1
  H  1886  1  0.12422900  0.61263700  0.10597300  1
  H  1887  1  0.24140300  0.65922600  0.16665500  1
  H  1888  1  0.12435900  0.63778000  0.14524400  1
  H  1889  1  0.13574600  0.66410100  0.18055400  1
  H  1892  1  0.24817500  0.68938100  0.05533800  1
  H  1894  1  0.21185700  0.67225500  0.20934800  1
  H  1896  1  0.21125400  0.57840000  0.04141300  1
  H  1898  1  0.24879300  0.56155700  0.19567200  1
  H  1923  1  0.13488000  0.08652200  0.57532300  1
  H  1924  1  0.12676700  0.11521800  0.60926100  1
  H  1925  1  0.13026000  0.14479000  0.64552300  1
  H  1926  1  0.14510200  0.17503100  0.67681500  1
  H  1927  1  0.24957000  0.16379500  0.66161200  1
  H  1928  1  0.24139500  0.08953700  0.58568200  1
  H  1929  1  0.23122300  0.09167600  0.66577800  1
  H  1930  1  0.33714900  0.08428100  0.67713300  1
  H  1931  1  0.34812400  0.11051800  0.64175300  1
  H  1932  1  0.23108500  0.16131400  0.58457400  1
  H  1933  1  0.34773700  0.13623600  0.60293100  1
  H  1934  1  0.33633200  0.16377400  0.56856500  1
  H  1937  1  0.23127300  0.18987900  0.69559400  1
  H  1939  1  0.25977600  0.17425200  0.54144900  1
  H  1941  1  0.26155500  0.07786200  0.70758300  1
  H  1943  1  0.20876900  0.07653200  0.54431900  1
  H  1968  1  0.63768700  0.66342100  0.68164700  1
  H  1969  1  0.62601900  0.63599700  0.64723500  1
  H  1970  1  0.62537000  0.61029900  0.60840800  1
  H  1971  1  0.63609500  0.58390900  0.57310500  1
  H  1972  1  0.74210700  0.59133400  0.58404200  1
  H  1973  1  0.74281100  0.66099300  0.66522200  1
  H  1974  1  0.72432200  0.66364500  0.58818300  1
  H  1975  1  0.82891500  0.67494300  0.57347000  1
  H  1976  1  0.84350400  0.64458000  0.60469900  1
  H  1977  1  0.73191800  0.58949500  0.66423700  1
  H  1978  1  0.84672000  0.61509500  0.64103000  1
  H  1979  1  0.83833000  0.58662500  0.67512400  1
  H  1982  1  0.71158700  0.57723800  0.54244900  1
  H  1984  1  0.76427600  0.57694800  0.70587700  1
  H  1986  1  0.74288900  0.68999100  0.55447900  1
  H  1988  1  0.71443300  0.67366800  0.70851300  1
  H  2013  1  0.88540300  0.83640100  0.43019600  1
  H  2014  1  0.87423700  0.86273300  0.39487900  1
  H  2015  1  0.87428500  0.88798300  0.35576500  1
  H  2016  1  0.88553000  0.91435300  0.32048700  1
  H  2017  1  0.99123500  0.90948200  0.33417000  1
  H  2018  1  0.99115400  0.84143100  0.41676000  1
  H  2019  1  0.97659000  0.91418200  0.41172200  1
  H  2020  1  0.08224200  0.92261700  0.42402400  1
  H  2021  1  0.09393700  0.89139700  0.39295500  1
  H  2022  1  0.97687200  0.83678900  0.33906100  1
  H  2023  1  0.09407200  0.85956500  0.35833100  1
  H  2024  1  0.08261600  0.82838400  0.32717000  1
  H  2027  1  0.96154900  0.92257600  0.29155000  1
  H  2029  1  0.99891600  0.81166200  0.30512000  1
  H  2031  1  0.99829700  0.93947700  0.44559900  1
  H  2033  1  0.96136800  0.82832800  0.45932300  1
  H  2058  1  0.39193200  0.92342700  0.82251100  1
  H  2059  1  0.37735500  0.89411600  0.85475700  1
  H  2060  1  0.37419300  0.86546000  0.89181900  1
  H  2061  1  0.38266300  0.83796000  0.92672300  1
  H  2062  1  0.48911200  0.84088900  0.91589400  1
  H  2063  1  0.49655800  0.91195500  0.83695800  1
  H  2064  1  0.47811900  0.83812200  0.83788400  1
  H  2065  1  0.58391900  0.82757200  0.82814100  1
  H  2066  1  0.59535700  0.85776500  0.86026400  1
  H  2067  1  0.47790200  0.91394800  0.91206200  1
  H  2068  1  0.59511700  0.88923600  0.89532100  1
  H  2069  1  0.58331800  0.92042100  0.92644800  1
  H  2072  1  0.45647500  0.82876300  0.95779300  1
  H  2074  1  0.49934500  0.93839500  0.94676600  1
  H  2076  1  0.50041700  0.81291500  0.80413600  1
  H  2078  1  0.47784100  0.93762300  0.80270400  1
  H  2103  1  0.58947800  0.33855500  0.32232600  1
  H  2104  1  0.59795300  0.36705700  0.35640500  1
  H  2105  1  0.59491900  0.39596600  0.39321900  1
  H  2106  1  0.58036200  0.42517100  0.42554500  1
  H  2107  1  0.47573600  0.41176500  0.41288200  1
  H  2108  1  0.48340100  0.33921400  0.33519100  1
  H  2109  1  0.49051400  0.41114000  0.33530600  1
  H  2110  1  0.38444000  0.41192900  0.32236600  1
  H  2111  1  0.37588100  0.38330000  0.35634500  1
  H  2112  1  0.49800100  0.33869900  0.41306800  1
  H  2113  1  0.37885400  0.35438600  0.39318500  1
  H  2114  1  0.39334700  0.32536500  0.42569700  1
  H  2117  1  0.49459300  0.43791700  0.44670300  1
  H  2119  1  0.47908100  0.31277700  0.44703400  1
  H  2121  1  0.45876300  0.42337700  0.29297400  1
  H  2123  1  0.51525900  0.32733400  0.29278600  1
  H  2148  1  0.08155400  0.42290100  0.92792800  1
  H  2149  1  0.09627400  0.39377500  0.89553700  1
  H  2150  1  0.09957800  0.36514600  0.85844600  1
  H  2151  1  0.09127100  0.33758300  0.82357800  1
  H  2152  1  0.98477200  0.34059300  0.83409000  1
  H  2153  1  0.97699400  0.41148200  0.91320800  1
  H  2154  1  0.99570300  0.33797700  0.91219100  1
  H  2155  1  0.88993400  0.32760500  0.92227800  1
  H  2156  1  0.87839400  0.35767300  0.89005400  1
  H  2157  1  0.99568000  0.41389400  0.83812400  1
  H  2158  1  0.87852100  0.38913000  0.85499200  1
  H  2159  1  0.89019600  0.42051800  0.82405100  1
  H  2162  1  0.01761500  0.32829000  0.79231600  1
  H  2164  1  0.97416300  0.43881500  0.80384400  1
  H  2166  1  0.97347100  0.31311400  0.94623600  1
  H  2168  1  0.99566000  0.43673800  0.94785200  1
  H  2175  1  0.67267100  0.99332900  0.99211700  1
  H  2176  1  0.71063500  0.01347600  0.02048500  1
  H  2183  1  0.60236500  0.02681100  0.96815500  1
  H  2184  1  0.56439500  0.00935300  0.93822000  1
  H  2185  1  0.56374100  0.94179900  0.97749500  1
  H  2186  1  0.62717900  0.04363800  0.05906600  1
  H  2190  1  0.60046900  0.96434200  0.03283000  1
  H  2191  1  0.63317100  0.95190500  0.01409400  1
  H  2192  1  0.56730700  0.93151000  0.02228700  1
  H  2194  1  0.56054800  0.01416700  0.02039500  1
  H  2195  1  0.57020400  0.02051000  0.05171400  1
  H  2196  1  0.54437000  0.05362800  0.03170500  1
  H  2198  1  0.72189800  0.03861100  0.05713400  1
  H  2199  1  0.68832300  0.03843900  0.07883900  1
  H  2201  1  0.51435500  0.97651200  0.93494400  1
  H  2202  1  0.54937200  0.96536500  0.91796500  1
  H  2209  1  0.17340800  0.75624400  0.26200100  1
  H  2210  1  0.21228200  0.73612800  0.23428800  1
  H  2217  1  0.10245200  0.72331500  0.28390700  1
  H  2218  1  0.06367500  0.74044900  0.31346500  1
  H  2219  1  0.06393500  0.80838600  0.27488300  1
  H  2220  1  0.13014000  0.70804300  0.19279800  1
  H  2224  1  0.10214900  0.78641100  0.21984100  1
  H  2225  1  0.13437600  0.79863700  0.23914700  1
  H  2226  1  0.06873600  0.81914300  0.23026100  1
  H  2228  1  0.06231100  0.73731600  0.23046700  1
  H  2229  1  0.07332400  0.73159000  0.19926200  1
  H  2230  1  0.04589800  0.69831600  0.21783700  1
  H  2232  1  0.22482000  0.71195100  0.19727900  1
  H  2233  1  0.19228800  0.71252300  0.17481700  1
  H  2235  1  0.01346200  0.77330100  0.31632200  1
  H  2236  1  0.04802100  0.78404800  0.33402700  1
  H  2243  1  0.30183200  0.25796200  0.48956300  1
  H  2244  1  0.26225300  0.23819000  0.51699200  1
  H  2251  1  0.37412400  0.22376900  0.46845100  1
  H  2252  1  0.41457900  0.24049000  0.43988800  1
  H  2253  1  0.41218900  0.30894700  0.47747300  1
  H  2254  1  0.34334300  0.20832400  0.55832500  1
  H  2258  1  0.37117400  0.28757900  0.53164000  1
  H  2259  1  0.33991400  0.29970000  0.51143900  1
  H  2260  1  0.40517200  0.32015400  0.52178300  1
  H  2262  1  0.41218100  0.23722900  0.52139300  1
  H  2263  1  0.40072500  0.23101800  0.55240800  1
  H  2264  1  0.42756200  0.19777700  0.53331300  1
  H  2266  1  0.24887000  0.21408100  0.55390600  1
  H  2267  1  0.28146800  0.21354200  0.57630700  1
  H  2269  1  0.46573400  0.27352800  0.43969200  1
  H  2270  1  0.43330300  0.28266500  0.41920900  1
  H  2277  1  0.79990800  0.49325100  0.75859000  1
  H  2278  1  0.76208200  0.51294300  0.72980000  1
  H  2285  1  0.87012600  0.52670200  0.78267600  1
  H  2286  1  0.90830700  0.50936200  0.81254500  1
  H  2287  1  0.90928200  0.44183200  0.77324700  1
  H  2288  1  0.84571300  0.54278500  0.69119400  1
  H  2292  1  0.87225900  0.46422000  0.71799300  1
  H  2293  1  0.83963700  0.45172600  0.73676600  1
  H  2294  1  0.90556000  0.43146400  0.72852100  1
  H  2296  1  0.91216600  0.51409400  0.73058200  1
  H  2297  1  0.90271900  0.51994400  0.69913400  1
  H  2298  1  0.92822800  0.55342300  0.71876200  1
  H  2300  1  0.75099600  0.53739600  0.69265100  1
  H  2301  1  0.78478600  0.53682500  0.67113400  1
  H  2303  1  0.95864400  0.47679500  0.81562300  1
  H  2304  1  0.92391500  0.46536100  0.83272200  1
  H  2311  1  0.05364000  0.24399000  0.74032400  1
  H  2312  1  0.01522700  0.26407800  0.76842800  1
  H  2319  1  0.12514000  0.27769000  0.71799300  1
  H  2320  1  0.16492800  0.26107900  0.68887700  1
  H  2321  1  0.16409300  0.19268500  0.72662400  1
  H  2322  1  0.09807100  0.29321200  0.80843600  1
  H  2326  1  0.12425400  0.21382500  0.78126300  1
  H  2327  1  0.09242500  0.20180400  0.76148400  1
  H  2328  1  0.15786900  0.18121500  0.77085600  1
  H  2330  1  0.16528500  0.26367500  0.77042300  1
  H  2331  1  0.15488000  0.26995100  0.80162100  1
  H  2332  1  0.18163100  0.30298700  0.78211300  1
  H  2334  1  0.00335096  0.28889000  0.80522900  1
  H  2335  1  0.03633600  0.28805300  0.82737800  1
  H  2337  1  0.21622500  0.22868600  0.68789700  1
  H  2338  1  0.18350200  0.21856700  0.66812800  1
  H  2345  1  0.92177700  0.74440900  0.51217100  1
  H  2346  1  0.96096600  0.76440500  0.48459500  1
  H  2353  1  0.85007000  0.77768700  0.53356200  1
  H  2354  1  0.80960400  0.76099200  0.56213100  1
  H  2355  1  0.81063000  0.69292100  0.52382400  1
  H  2356  1  0.87928500  0.79288700  0.44291200  1
  H  2360  1  0.85164900  0.71433900  0.46977300  1
  H  2361  1  0.88303800  0.70205300  0.48976200  1
  H  2362  1  0.81763500  0.68177000  0.47958900  1
  H  2364  1  0.81101200  0.76376400  0.48021500  1
  H  2365  1  0.82231700  0.76968100  0.44911100  1
  H  2366  1  0.79495500  0.80291500  0.46782100  1
  H  2368  1  0.97389900  0.78845300  0.44754700  1
  H  2369  1  0.94144300  0.78794900  0.42503300  1
  H  2371  1  0.75803200  0.72874000  0.56227100  1
  H  2372  1  0.79027700  0.71845400  0.58236400  1
  H  2379  1  0.42198000  0.50739900  0.24168500  1
  H  2380  1  0.46011000  0.48749200  0.27009800  1
  H  2387  1  0.35152800  0.47331800  0.21824700  1
  H  2388  1  0.31348400  0.49032700  0.18811300  1
  H  2389  1  0.31305100  0.55849500  0.22630300  1
  H  2390  1  0.37690900  0.45730700  0.30894200  1
  H  2394  1  0.34992900  0.53675100  0.28193800  1
  H  2395  1  0.38255100  0.54893300  0.26296300  1
  H  2396  1  0.31668900  0.56940600  0.27097300  1
  H  2398  1  0.31004500  0.48656800  0.27032600  1
  H  2399  1  0.31986100  0.48030600  0.30163400  1
  H  2400  1  0.29398800  0.44711600  0.28177300  1
  H  2402  1  0.47159200  0.46264100  0.30691500  1
  H  2403  1  0.43800300  0.46255200  0.32860000  1
  H  2405  1  0.26346700  0.52320500  0.18437900  1
  H  2406  1  0.29848900  0.53393600  0.16714500  1
  H  2413  1  0.17217300  0.99317900  0.49182500  1
  H  2414  1  0.21023000  0.01267600  0.52058000  1
  H  2421  1  0.10190000  0.02730300  0.46827600  1
  H  2422  1  0.06372100  0.01042400  0.43815500  1
  H  2423  1  0.06283800  0.94227300  0.47635400  1
  H  2424  1  0.12694300  0.04267600  0.55944800  1
  H  2428  1  0.09988400  0.96386400  0.53196700  1
  H  2429  1  0.13245200  0.95160400  0.51299100  1
  H  2430  1  0.06648800  0.93130400  0.52098500  1
  H  2432  1  0.06016500  0.01414600  0.52023400  1
  H  2433  1  0.06981800  0.01996100  0.55165500  1
  H  2434  1  0.04430200  0.05350000  0.53213800  1
  H  2436  1  0.22161500  0.03696700  0.55780100  1
  H  2437  1  0.18785300  0.03674400  0.57934300  1
  H  2439  1  0.01339100  0.97777600  0.43456700  1
  H  2440  1  0.04820000  0.96689500  0.41720900  1
  H  2447  1  0.67367400  0.75722200  0.76092300  1
  H  2448  1  0.71279600  0.73747200  0.73314100  1
  H  2455  1  0.60229400  0.72351200  0.78290300  1
  H  2456  1  0.56348400  0.74073100  0.81239600  1
  H  2457  1  0.56472600  0.80883000  0.77410600  1
  H  2458  1  0.63101400  0.70801500  0.69222200  1
  H  2462  1  0.60297600  0.78677200  0.71907100  1
  H  2463  1  0.63510200  0.79894500  0.73850200  1
  H  2464  1  0.56955300  0.81952600  0.72942800  1
  H  2466  1  0.56280400  0.73680100  0.72991100  1
  H  2467  1  0.57375600  0.73092600  0.69872700  1
  H  2468  1  0.54710200  0.69752000  0.71766000  1
  H  2470  1  0.72558500  0.71346900  0.69607200  1
  H  2471  1  0.69272300  0.71315900  0.67386500  1
  H  2473  1  0.51348000  0.77414500  0.81508200  1
  H  2474  1  0.54814000  0.78406100  0.83316000  1
  H  2481  1  0.80155300  0.25736300  0.99166900  1
  H  2482  1  0.76339000  0.23736600  0.01999700  1
  H  2489  1  0.87288300  0.22347100  0.96866100  1
  H  2490  1  0.91099000  0.24069000  0.93868800  1
  H  2491  1  0.90969700  0.30905700  0.97651200  1
  H  2492  1  0.84656400  0.20750000  0.05911800  1
  H  2496  1  0.87262300  0.28716800  0.03204900  1
  H  2497  1  0.84006100  0.29906300  0.01283400  1
  H  2498  1  0.90556300  0.32001700  0.02117700  1
  H  2500  1  0.91346000  0.23693300  0.02067400  1
  H  2501  1  0.90350600  0.23063600  0.05194900  1
  H  2502  1  0.92967600  0.19752600  0.03216200  1
  H  2504  1  0.75186500  0.21250100  0.05679500  1
  H  2505  1  0.78530400  0.21268500  0.07860400  1
  H  2507  1  0.96057700  0.27428400  0.93526600  1
  H  2508  1  0.92549300  0.28402600  0.91752300  1
  H  2515  1  0.55328300  0.24318200  0.24123500  1
  H  2516  1  0.51463500  0.26308500  0.26928900  1
  H  2523  1  0.62558000  0.27738200  0.21893000  1
  H  2524  1  0.66556100  0.26051200  0.19009900  1
  H  2525  1  0.66308200  0.19204300  0.22767500  1
  H  2526  1  0.59710800  0.29342200  0.30881500  1
  H  2530  1  0.62290900  0.21352300  0.28209800  1
  H  2531  1  0.59128600  0.20156000  0.26210500  1
  H  2532  1  0.65649100  0.18079900  0.27198300  1
  H  2534  1  0.66468900  0.26408500  0.27099400  1
  H  2535  1  0.65424300  0.27063100  0.30212500  1
  H  2536  1  0.68048300  0.30365300  0.28222700  1
  H  2538  1  0.50249500  0.28786100  0.30606000  1
  H  2539  1  0.53572500  0.28778300  0.32802600  1
  H  2541  1  0.71651400  0.22738300  0.18966900  1
  H  2542  1  0.68390300  0.21820100  0.16935500  1
  H  2549  1  0.42177600  0.74456700  0.01008400  1
  H  2550  1  0.45968500  0.76467300  0.98164500  1
  H  2557  1  0.35098600  0.77779200  0.03328700  1
  H  2558  1  0.31283700  0.76060500  0.06325100  1
  H  2559  1  0.31294400  0.69254700  0.02486900  1
  H  2560  1  0.37612800  0.79351100  0.94219800  1
  H  2564  1  0.35004600  0.71447700  0.96943100  1
  H  2565  1  0.38269300  0.70243400  0.98847100  1
  H  2566  1  0.31706300  0.68164700  0.98026200  1
  H  2568  1  0.30960700  0.76400900  0.98092700  1
  H  2569  1  0.31947700  0.77003100  0.94958100  1
  H  2570  1  0.29291200  0.80317900  0.96902300  1
  H  2572  1  0.47092200  0.78943400  0.94473100  1
  H  2573  1  0.43763400  0.78845100  0.92281900  1
  H  2575  1  0.26287400  0.72769300  0.06661000  1
  H  2576  1  0.29769300  0.71689000  0.08401500  1
  H  2583  1  0.17236900  0.49380000  0.98923600  1
  H  2584  1  0.21152600  0.51420200  0.01653500  1
  H  2591  1  0.09995000  0.52644200  0.96779500  1
  H  2592  1  0.05980100  0.50900900  0.93942100  1
  H  2593  1  0.06249900  0.44128600  0.97831700  1
  H  2594  1  0.12980900  0.54264400  0.05821600  1
  H  2598  1  0.10303800  0.46377200  0.03217700  1
  H  2599  1  0.13457500  0.45153500  0.01228200  1
  H  2600  1  0.06951800  0.43080800  0.02276300  1
  H  2602  1  0.06159300  0.51297500  0.02128600  1
  H  2603  1  0.07298000  0.51915000  0.05232600  1
  H  2604  1  0.04529700  0.55214800  0.03345000  1
  H  2606  1  0.22444100  0.53869000  0.05327700  1
  H  2607  1  0.19218100  0.53802800  0.07594400  1
  H  2609  1  0.00898396  0.47582000  0.93959400  1
  H  2610  1  0.04167000  0.46625200  0.91952100  1
  H  2617  1  0.29995800  0.99406400  0.76131500  1
  H  2618  1  0.26103600  0.01406900  0.73353300  1
  H  2625  1  0.37231400  0.02665800  0.78290700  1
  H  2626  1  0.41273100  0.00943400  0.81120800  1
  H  2627  1  0.41041700  0.94165600  0.77240900  1
  H  2628  1  0.34312700  0.04200000  0.69192100  1
  H  2632  1  0.36948600  0.96383700  0.71863800  1
  H  2633  1  0.33804800  0.95157400  0.73860100  1
  H  2634  1  0.40317100  0.93098100  0.72808200  1
  H  2636  1  0.41103300  0.01302200  0.72965300  1
  H  2637  1  0.39992800  0.01872400  0.69846800  1
  H  2638  1  0.42732800  0.05203700  0.71701100  1
  H  2640  1  0.24845000  0.03786200  0.69625200  1
  H  2641  1  0.28101500  0.03681200  0.67383700  1
  H  2643  1  0.46390300  0.97659400  0.81078400  1
  H  2644  1  0.43161800  0.96675300  0.83106300  1
  H  2651  1  0.92160100  0.00662300  0.23897800  1
  H  2652  1  0.96094100  0.98651200  0.26635200  1
  H  2659  1  0.84890300  0.97340900  0.21814900  1
  H  2660  1  0.80851400  0.99040300  0.18969700  1
  H  2661  1  0.81164500  0.05874600  0.22746300  1
  H  2662  1  0.87950400  0.95810900  0.30833900  1
  H  2666  1  0.85262300  0.03707000  0.28149600  1
  H  2667  1  0.88397700  0.04902100  0.26127400  1
  H  2668  1  0.81899000  0.06987300  0.27173900  1
  H  2670  1  0.81104400  0.98751000  0.27143800  1
  H  2671  1  0.82260400  0.98145300  0.30246500  1
  H  2672  1  0.79487400  0.94836500  0.28378800  1
  H  2674  1  0.97409000  0.96242000  0.30331600  1
  H  2675  1  0.94180400  0.96287000  0.32595600  1
  H  2677  1  0.75767000  0.02365900  0.18966600  1
  H  2678  1  0.79010800  0.03276200  0.16917300  1
  H  2685  1  0.67192300  0.49393700  0.48872300  1
  H  2686  1  0.71117000  0.51369000  0.51643200  1
  H  2693  1  0.59947600  0.52706100  0.46778700  1
  H  2694  1  0.55907700  0.51017500  0.43927000  1
  H  2695  1  0.56164600  0.44185600  0.47709000  1
  H  2696  1  0.62957700  0.54161800  0.55855800  1
  H  2700  1  0.60257400  0.46340900  0.53117900  1
  H  2701  1  0.63395000  0.45138400  0.51101900  1
  H  2702  1  0.56882700  0.43069300  0.52135700  1
  H  2704  1  0.56122600  0.51292100  0.52103400  1
  H  2705  1  0.57264300  0.51845500  0.55218700  1
  H  2706  1  0.54515700  0.55189900  0.53395800  1
  H  2708  1  0.72418300  0.53716900  0.55384300  1
  H  2709  1  0.69171500  0.53640500  0.57633500  1
  H  2711  1  0.50800600  0.47711200  0.43918300  1
  H  2712  1  0.54043200  0.46784500  0.41875500  1
  C  1  1  0.10034600  0.11207200  0.11007200  1
  C  2  1  0.06735400  0.11998000  0.11603100  1
  C  3  1  0.06927400  0.13752300  0.13489000  1
  C  4  1  0.10358500  0.14174400  0.14051000  1
  C  5  1  0.11235200  0.15907100  0.15915000  1
  C  6  1  0.08643000  0.17195800  0.17226300  1
  C  7  1  0.05192200  0.16687500  0.16657300  1
  C  8  1  0.04313000  0.14996300  0.14769400  1
  C  9  1  0.03883200  0.11133700  0.10281400  1
  C  10  1  0.04391000  0.09479800  0.08291600  1
  C  11  1  0.07693300  0.08643000  0.07669800  1
  C  12  1  0.10533800  0.09490600  0.09053200  1
  C  13  1  0.15158900  0.13903100  0.11005200  1
  C  14  1  0.18460900  0.13111400  0.11592000  1
  C  15  1  0.18277700  0.11349900  0.13472100  1
  C  16  1  0.14849600  0.10924300  0.14041400  1
  C  17  1  0.20899300  0.10104200  0.14743100  1
  C  18  1  0.20031600  0.08410200  0.16631400  1
  C  19  1  0.16584700  0.07903500  0.17213300  1
  C  20  1  0.13984500  0.09191800  0.15909300  1
  C  21  1  0.14650600  0.15620300  0.09052500  1
  C  22  1  0.17484200  0.16467500  0.07660700  1
  C  23  1  0.20788500  0.15627500  0.08272200  1
  C  24  1  0.21305900  0.13973000  0.10260200  1
  C  37  1  0.12600700  0.12551800  0.12528100  1
  C  46  1  0.59911900  0.63917000  0.14161400  1
  C  47  1  0.56538200  0.63335100  0.13550800  1
  C  48  1  0.56532600  0.61716400  0.11545700  1
  C  49  1  0.59902500  0.61139900  0.10919500  1
  C  50  1  0.60563100  0.59536300  0.08893400  1
  C  51  1  0.57810600  0.58593300  0.07472400  1
  C  52  1  0.54439500  0.59256100  0.08106500  1
  C  53  1  0.53772500  0.60784300  0.10168200  1
  C  54  1  0.53787300  0.64264300  0.14940000  1
  C  55  1  0.54467500  0.65793800  0.16998500  1
  C  56  1  0.57842200  0.66461600  0.17616600  1
  C  57  1  0.60585200  0.65520000  0.16185400  1
  C  58  1  0.64735400  0.60941400  0.13946600  1
  C  59  1  0.68108200  0.61586500  0.13404700  1
  C  60  1  0.68100600  0.63478100  0.11650000  1
  C  61  1  0.64722900  0.64119300  0.11120400  1
  C  62  1  0.70836000  0.64641900  0.10430500  1
  C  63  1  0.70132100  0.66461600  0.08624200  1
  C  64  1  0.66741900  0.67169400  0.08076600  1
  C  65  1  0.64024100  0.65975300  0.09337000  1
  C  66  1  0.64052100  0.59090600  0.15738700  1
  C  67  1  0.66780900  0.57907700  0.16997500  1
  C  68  1  0.70165700  0.58617900  0.16435700  1
  C  69  1  0.70853900  0.60432300  0.14621000  1
  C  82  1  0.62316600  0.62528500  0.12536800  1
  C  91  1  0.65130700  0.13978300  0.60842800  1
  C  92  1  0.68494400  0.13288400  0.61362100  1
  C  93  1  0.68496500  0.11610300  0.63317700  1
  C  94  1  0.65126400  0.11102100  0.64000700  1
  C  95  1  0.64473400  0.09495100  0.66026900  1
  C  96  1  0.67234800  0.08484200  0.67393000  1
  C  97  1  0.70607200  0.09077800  0.66696800  1
  C  98  1  0.71264200  0.10605100  0.64633400  1
  C  99  1  0.71236500  0.14184400  0.59941900  1
  C  100  1  0.70555700  0.15788400  0.57941100  1
  C  101  1  0.67194300  0.16558900  0.57410600  1
  C  102  1  0.64462700  0.15657000  0.58879400  1
  C  103  1  0.60151200  0.11149600  0.61065200  1
  C  104  1  0.56846300  0.11873100  0.61727800  1
  C  105  1  0.57040800  0.13686400  0.63556200  1
  C  106  1  0.60472700  0.14216500  0.64012000  1
  C  107  1  0.54428000  0.14895900  0.64871300  1
  C  108  1  0.55310900  0.16656000  0.66694200  1
  C  109  1  0.58758900  0.17261600  0.67166400  1
  C  110  1  0.61349700  0.16014800  0.65813500  1
  C  111  1  0.60633600  0.09415800  0.59121900  1
  C  112  1  0.57770400  0.08488800  0.57813800  1
  C  113  1  0.54464700  0.09261800  0.58504800  1
  C  114  1  0.53975700  0.10929500  0.60484600  1
  C  127  1  0.62721100  0.12605700  0.62479600  1
  C  136  1  0.15003500  0.61124700  0.63920400  1
  C  137  1  0.18312800  0.61849700  0.63271700  1
  C  138  1  0.18130800  0.63658100  0.61437700  1
  C  139  1  0.14701900  0.64187900  0.60968300  1
  C  140  1  0.13839900  0.65994600  0.59171100  1
  C  141  1  0.16441600  0.67249900  0.57836100  1
  C  142  1  0.19885700  0.66640600  0.58319700  1
  C  143  1  0.20753900  0.64873900  0.60139700  1
  C  144  1  0.21174000  0.60913500  0.64532200  1
  C  145  1  0.20668300  0.59262000  0.66523700  1
  C  146  1  0.17356900  0.58493700  0.67205000  1
  C  147  1  0.14504800  0.59406700  0.65874900  1
  C  148  1  0.10042900  0.63961700  0.64136400  1
  C  149  1  0.06676300  0.63269900  0.63631300  1
  C  150  1  0.06662400  0.61592000  0.61675900  1
  C  151  1  0.10028500  0.61077800  0.60985800  1
  C  152  1  0.03885400  0.60582200  0.60374500  1
  C  153  1  0.04527800  0.59045300  0.58316300  1
  C  154  1  0.07895000  0.58447000  0.57610800  1
  C  155  1  0.10666400  0.59465600  0.58960900  1
  C  156  1  0.10726800  0.65628500  0.66106500  1
  C  157  1  0.08006500  0.66523900  0.67589500  1
  C  158  1  0.04640200  0.65758900  0.67068000  1
  C  159  1  0.03943800  0.64165600  0.65061500  1
  C  172  1  0.12443100  0.62582200  0.62498700  1
  C  181  1  0.39733600  0.85959900  0.36130900  1
  C  182  1  0.43106500  0.86601400  0.36676700  1
  C  183  1  0.43099600  0.88490600  0.38434000  1
  C  184  1  0.39722700  0.89132800  0.38965500  1
  C  185  1  0.39028900  0.90985000  0.40754700  1
  C  186  1  0.41750100  0.92174600  0.42017400  1
  C  187  1  0.45138300  0.91464500  0.41466900  1
  C  188  1  0.45837600  0.89647600  0.39657100  1
  C  189  1  0.45853600  0.85449300  0.35460300  1
  C  190  1  0.45168600  0.83634300  0.33645700  1
  C  191  1  0.41784700  0.82925200  0.33080100  1
  C  192  1  0.39053900  0.84111200  0.34335000  1
  C  193  1  0.34903500  0.86149500  0.39161100  1
  C  194  1  0.31532900  0.86729000  0.38539700  1
  C  195  1  0.31534700  0.88351600  0.36537700  1
  C  196  1  0.34906300  0.88937400  0.35924700  1
  C  197  1  0.28778600  0.89283600  0.35156000  1
  C  198  1  0.29450500  0.90820300  0.33101700  1
  C  199  1  0.32821800  0.91491800  0.32478300  1
  C  200  1  0.35570500  0.90548100  0.33904300  1
  C  201  1  0.35563600  0.84541900  0.41185200  1
  C  202  1  0.32811400  0.83592800  0.42603900  1
  C  203  1  0.29440800  0.84258200  0.41971600  1
  C  204  1  0.28773600  0.85792300  0.39914700  1
  C  217  1  0.37314900  0.87544700  0.37545100  1
  C  226  1  0.89857800  0.89059700  0.89054500  1
  C  227  1  0.93229100  0.88365300  0.88574700  1
  C  228  1  0.93231700  0.86520900  0.86769900  1
  C  229  1  0.89858500  0.85975800  0.86126600  1
  C  230  1  0.89176500  0.84179900  0.84278900  1
  C  231  1  0.91908100  0.82957000  0.83061100  1
  C  232  1  0.95294800  0.83579500  0.83714400  1
  C  233  1  0.95979100  0.85335900  0.85586000  1
  C  234  1  0.95959000  0.89460200  0.89863600  1
  C  235  1  0.95254500  0.91274800  0.91675300  1
  C  236  1  0.91871000  0.92038000  0.92166500  1
  C  237  1  0.89157900  0.90906900  0.90846100  1
  C  238  1  0.85188100  0.89091700  0.85917300  1
  C  239  1  0.81759900  0.88603700  0.86432100  1
  C  240  1  0.81582700  0.86889600  0.88356100  1
  C  241  1  0.84894300  0.86202100  0.89038700  1
  C  242  1  0.78725400  0.85988900  0.89646800  1
  C  243  1  0.79235000  0.84392100  0.91682400  1
  C  244  1  0.82548900  0.83649700  0.92386000  1
  C  245  1  0.85399900  0.84545100  0.91043400  1
  C  246  1  0.86051300  0.90833900  0.84058600  1
  C  247  1  0.83448500  0.92070400  0.82709200  1
  C  248  1  0.80003100  0.91494400  0.83227700  1
  C  249  1  0.79136300  0.89787400  0.85104700  1
  C  262  1  0.87448700  0.87574100  0.87531500  1
  C  271  1  0.85339000  0.35895500  0.39009400  1
  C  272  1  0.81911700  0.36325000  0.38440100  1
  C  273  1  0.81732200  0.38080500  0.36555000  1
  C  274  1  0.85035800  0.38864500  0.35962800  1
  C  275  1  0.85541900  0.40587900  0.34014900  1
  C  276  1  0.82704700  0.41452800  0.32637500  1
  C  277  1  0.79399700  0.40617700  0.33253200  1
  C  278  1  0.78885000  0.38953900  0.35233500  1
  C  279  1  0.79286000  0.35092200  0.39719000  1
  C  280  1  0.80148200  0.33403800  0.41613400  1
  C  281  1  0.83593400  0.32890100  0.42193800  1
  C  282  1  0.86198200  0.34166000  0.40881800  1
  C  283  1  0.90152600  0.36156000  0.35969200  1
  C  284  1  0.93454200  0.36943500  0.36562600  1
  C  285  1  0.93270900  0.38703700  0.38443800  1
  C  286  1  0.89842500  0.39137400  0.39005600  1
  C  287  1  0.95893800  0.39944500  0.39718200  1
  C  288  1  0.95027700  0.41643700  0.41602100  1
  C  289  1  0.91581500  0.42161300  0.42175800  1
  C  290  1  0.88979700  0.40876300  0.40869200  1
  C  291  1  0.89652100  0.34437800  0.34014700  1
  C  292  1  0.92491400  0.33583700  0.32631700  1
  C  293  1  0.95794000  0.34419400  0.33253900  1
  C  294  1  0.96304900  0.36072500  0.35243600  1
  C  307  1  0.87592800  0.37513000  0.37487900  1
  C  316  1  0.35312600  0.39036900  0.85951500  1
  C  317  1  0.31942300  0.38343400  0.86437100  1
  C  318  1  0.31944600  0.36495100  0.88237800  1
  C  319  1  0.35319700  0.35945700  0.88871600  1
  C  320  1  0.36007400  0.34162500  0.90729900  1
  C  321  1  0.33279300  0.32950200  0.91961400  1
  C  322  1  0.29890600  0.33572600  0.91314300  1
  C  323  1  0.29200200  0.35320700  0.89436200  1
  C  324  1  0.29207400  0.39448100  0.85162500  1
  C  325  1  0.29904900  0.41275400  0.83362100  1
  C  326  1  0.33286400  0.42042500  0.82869100  1
  C  327  1  0.36004800  0.40897600  0.84172500  1
  C  328  1  0.39980300  0.39062900  0.89089300  1
  C  329  1  0.43410200  0.38577100  0.88579100  1
  C  330  1  0.43593800  0.36865400  0.86652900  1
  C  331  1  0.40284800  0.36178700  0.85962300  1
  C  332  1  0.46456700  0.35959100  0.85372700  1
  C  333  1  0.45956500  0.34357300  0.83340200  1
  C  334  1  0.42646200  0.33612700  0.82629300  1
  C  335  1  0.39789100  0.34513300  0.83962600  1
  C  336  1  0.39108400  0.40791700  0.90958400  1
  C  337  1  0.41705800  0.42018500  0.92321500  1
  C  338  1  0.45153300  0.41448700  0.91805100  1
  C  339  1  0.46028300  0.39752600  0.89919700  1
  C  352  1  0.37725500  0.37548100  0.87468300  1
  C  361  1  0.06126300  0.03045300  0.04240300  1
  C  362  1  0.02560700  0.03298600  0.04486500  1
  C  363  1  0.00257800  0.02135300  0.02830000  1
  C  364  1  0.01599700  0.00652000  0.00867700  1
  C  365  1  0.05163800  0.00380700  0.00622400  1
  C  366  1  0.07398200  0.01558000  0.02290100  1
  C  369  1  0.99475900  0.99459700  0.99091100  1
  C  370  1  0.98357300  0.00877400  0.97038100  1
  C  371  1  0.96116000  0.99854200  0.95282500  1
  C  372  1  0.94920800  0.97390700  0.95522500  1
  C  373  1  0.96081200  0.95974300  0.97574200  1
  C  374  1  0.98321900  0.96966900  0.99387600  1
  C  379  1  0.96549600  0.02553600  0.03253900  1
  C  380  1  0.99466800  0.95432200  0.01553100  1
  C  389  1  0.08423700  0.04380200  0.05986100  1
  C  392  1  0.92541800  0.96409500  0.93594300  1
  C  395  1  0.56368700  0.72006000  0.21101200  1
  C  396  1  0.52811700  0.71813800  0.20753300  1
  C  397  1  0.50453600  0.72972500  0.22372400  1
  C  398  1  0.51727700  0.74399800  0.24399400  1
  C  399  1  0.55283700  0.74618000  0.24742800  1
  C  400  1  0.57572300  0.73440500  0.23113800  1
  C  403  1  0.49544200  0.75574700  0.26152200  1
  C  404  1  0.48370400  0.74136900  0.28174700  1
  C  405  1  0.46080200  0.75141200  0.29908100  1
  C  406  1  0.44890100  0.77607300  0.29679400  1
  C  407  1  0.46100300  0.79043300  0.27656700  1
  C  408  1  0.48390000  0.78069100  0.25864600  1
  C  413  1  0.46759900  0.72605700  0.21846100  1
  C  414  1  0.49591100  0.79625000  0.23730900  1
  C  423  1  0.58728400  0.70682900  0.19386500  1
  C  426  1  0.42461100  0.78566900  0.31587600  1
  C  429  1  0.68828200  0.22126300  0.54016800  1
  C  430  1  0.72376700  0.21870800  0.54367200  1
  C  431  1  0.74775400  0.23014600  0.52768700  1
  C  432  1  0.73554900  0.24483800  0.50753300  1
  C  433  1  0.70007400  0.24759100  0.50404200  1
  C  434  1  0.67677000  0.23600600  0.52016200  1
  C  437  1  0.75786000  0.25650200  0.49024300  1
  C  438  1  0.77065000  0.24189000  0.47052900  1
  C  439  1  0.79453500  0.25169600  0.45377300  1
  C  440  1  0.80629900  0.27639600  0.45606000  1
  C  441  1  0.79304500  0.29102900  0.47569000  1
  C  442  1  0.76922200  0.28149800  0.49308800  1
  C  447  1  0.78454800  0.22592700  0.53307700  1
  C  448  1  0.75629700  0.29727200  0.51397700  1
  C  457  1  0.66421400  0.20829600  0.55718200  1
  C  460  1  0.83234400  0.28552300  0.43799300  1
  C  463  1  0.18957100  0.52975700  0.70783800  1
  C  464  1  0.22523700  0.53236300  0.70553100  1
  C  465  1  0.24818800  0.52101300  0.72235200  1
  C  466  1  0.23468900  0.50637300  0.74209200  1
  C  467  1  0.19903600  0.50362900  0.74443500  1
  C  468  1  0.17677400  0.51514200  0.72751100  1
  C  471  1  0.25588000  0.49448400  0.75992100  1
  C  472  1  0.26702100  0.50868400  0.78045100  1
  C  473  1  0.28957100  0.49852400  0.79796200  1
  C  474  1  0.30171700  0.47394100  0.79551700  1
  C  475  1  0.29011100  0.45974100  0.77502800  1
  C  476  1  0.26757300  0.46959400  0.75694100  1
  C  481  1  0.28528100  0.52523300  0.71820600  1
  C  482  1  0.25615800  0.45420300  0.73530500  1
  C  491  1  0.16668000  0.54261600  0.68993900  1
  C  494  1  0.32576700  0.46422700  0.81468400  1
  C  497  1  0.44226100  0.28059600  0.79102200  1
  C  498  1  0.47788400  0.28281400  0.79398000  1
  C  499  1  0.50117300  0.27118900  0.77759900  1
  C  500  1  0.48809800  0.25665500  0.75762500  1
  C  501  1  0.45248300  0.25422700  0.75468800  1
  C  502  1  0.42987400  0.26599300  0.77119800  1
  C  505  1  0.50971100  0.24496600  0.73990400  1
  C  506  1  0.52182900  0.25959400  0.71997600  1
  C  507  1  0.54530600  0.24985000  0.70288700  1
  C  508  1  0.55742700  0.22523900  0.70511800  1
  C  509  1  0.54474900  0.21056200  0.72492000  1
  C  510  1  0.52126400  0.22000200  0.74260200  1
  C  515  1  0.53818600  0.27510100  0.78238400  1
  C  516  1  0.50887900  0.20418700  0.76363400  1
  C  525  1  0.41903100  0.29383700  0.80841900  1
  C  528  1  0.58321000  0.21625600  0.68678900  1
  C  531  1  0.31264300  0.78069500  0.46124100  1
  C  532  1  0.27710700  0.78276900  0.45768100  1
  C  533  1  0.25334800  0.77123500  0.47377400  1
  C  534  1  0.26584200  0.75685900  0.49405800  1
  C  535  1  0.30136800  0.75455000  0.49760000  1
  C  536  1  0.32444000  0.76627000  0.48139400  1
  C  539  1  0.24373500  0.74512600  0.51143700  1
  C  540  1  0.23133500  0.75963500  0.53135900  1
  C  541  1  0.20744200  0.74984500  0.54811700  1
  C  542  1  0.19519600  0.72529500  0.54557600  1
  C  543  1  0.20811800  0.71074400  0.52576500  1
  C  544  1  0.23201000  0.72024000  0.50840100  1
  C  549  1  0.21647500  0.77505600  0.46837100  1
  C  550  1  0.24467300  0.70454900  0.48736700  1
  C  559  1  0.33643400  0.79371900  0.44405800  1
  C  562  1  0.16900000  0.71625400  0.56356800  1
  C  565  1  0.81089100  0.47050700  0.29215000  1
  C  566  1  0.77525000  0.46791400  0.29467700  1
  C  567  1  0.75212000  0.47944400  0.27811000  1
  C  568  1  0.76540100  0.49420500  0.25838200  1
  C  569  1  0.80102600  0.49698600  0.25587200  1
  C  570  1  0.82347200  0.48533900  0.27256900  1
  C  573  1  0.74406500  0.50587800  0.24049300  1
  C  574  1  0.73277400  0.49139400  0.22020500  1
  C  575  1  0.71030500  0.50136300  0.20253400  1
  C  576  1  0.69840600  0.52604600  0.20454400  1
  C  577  1  0.71009400  0.54051700  0.22482300  1
  C  578  1  0.73254300  0.53085500  0.24308100  1
  C  583  1  0.71506800  0.47523700  0.28245500  1
  C  584  1  0.74405700  0.54652200  0.26448700  1
  C  593  1  0.83399400  0.45726700  0.30961500  1
  C  596  1  0.67460100  0.53557400  0.18511500  1
  C  599  1  0.56097300  0.02955800  0.54267400  1
  C  600  1  0.52533000  0.03224500  0.54507600  1
  C  601  1  0.50224200  0.02097400  0.52829700  1
  C  602  1  0.51555600  0.00635400  0.50847400  1
  C  603  1  0.55119000  0.00351400  0.50605300  1
  C  604  1  0.57359000  0.01492200  0.52295200  1
  C  607  1  0.49423600  0.99474000  0.49052600  1
  C  608  1  0.48304200  0.00925100  0.47023000  1
  C  609  1  0.46049100  0.99935800  0.45256700  1
  C  610  1  0.44840700  0.97472200  0.45458800  1
  C  611  1  0.46002100  0.96021500  0.47485900  1
  C  612  1  0.48255300  0.96979900  0.49310800  1
  C  617  1  0.46518800  0.02525500  0.53256600  1
  C  618  1  0.49397100  0.95408900  0.51451000  1
  C  627  1  0.58403000  0.04237700  0.56049900  1
  C  630  1  0.42441500  0.96529800  0.43522100  1
  C  633  1  0.06440300  0.72077600  0.71013200  1
  C  634  1  0.02885900  0.71831600  0.70685800  1
  C  635  1  0.00513600  0.72971200  0.72307700  1
  C  636  1  0.01769600  0.74427700  0.74320000  1
  C  637  1  0.05322600  0.74693000  0.74646700  1
  C  638  1  0.07625900  0.73537700  0.73013100  1
  C  641  1  0.99573400  0.75600800  0.76065700  1
  C  642  1  0.98371100  0.74160700  0.78077600  1
  C  643  1  0.96079900  0.75170400  0.79807500  1
  C  644  1  0.94923300  0.77646000  0.79588500  1
  C  645  1  0.96158800  0.79082500  0.77574700  1
  C  646  1  0.98445200  0.78102200  0.75784100  1
  C  651  1  0.96824800  0.72561100  0.71795400  1
  C  652  1  0.99664600  0.79659000  0.73656500  1
  C  661  1  0.08819000  0.70780700  0.69293000  1
  C  664  1  0.92500300  0.78615300  0.81495800  1
  C  667  1  0.19062900  0.22054300  0.04218400  1
  C  668  1  0.22626900  0.21806000  0.04481300  1
  C  669  1  0.24941700  0.22963800  0.02829400  1
  C  670  1  0.23615300  0.24434000  0.00851400  1
  C  671  1  0.20052300  0.24699800  0.00589400  1
  C  672  1  0.17805800  0.23530300  0.02254400  1
  C  675  1  0.25751500  0.25611000  0.99070800  1
  C  676  1  0.26931700  0.24163100  0.97057400  1
  C  677  1  0.29182900  0.25172200  0.95300200  1
  C  678  1  0.30320100  0.27654500  0.95493100  1
  C  679  1  0.29102500  0.29100000  0.97506700  1
  C  680  1  0.26857100  0.28120400  0.99324900  1
  C  685  1  0.28646500  0.22555000  0.03275200  1
  C  686  1  0.25659800  0.29685000  0.01453500  1
  C  695  1  0.16752500  0.20727300  0.05962000  1
  C  698  1  0.32701700  0.28622000  0.93558200  1
  C  701  1  0.94146600  0.28017400  0.29164300  1
  C  702  1  0.97705400  0.28282300  0.29445800  1
  C  703  1  0.00048200  0.27127800  0.27812400  1
  C  704  1  0.98758500  0.25645000  0.25830200  1
  C  705  1  0.95200600  0.25365200  0.25547400  1
  C  706  1  0.92925700  0.26531100  0.27195500  1
  C  709  1  0.00933000  0.24465200  0.24073500  1
  C  710  1  0.02195300  0.25921800  0.22092800  1
  C  711  1  0.04556500  0.24932600  0.20402000  1
  C  712  1  0.05721100  0.22459600  0.20625600  1
  C  713  1  0.04404400  0.20999100  0.22594000  1
  C  714  1  0.02050100  0.21960100  0.24348700  1
  C  719  1  0.03744500  0.27552400  0.28283600  1
  C  720  1  0.00772100  0.20386500  0.26445400  1
  C  729  1  0.91806300  0.29324900  0.30903700  1
  C  732  1  0.08309000  0.21540500  0.18810600  1
  C  735  1  0.81027000  0.78102500  0.95930000  1
  C  736  1  0.77459600  0.78316900  0.95660800  1
  C  737  1  0.75159500  0.77155300  0.97321000  1
  C  738  1  0.76504700  0.75711000  0.99311000  1
  C  739  1  0.80071100  0.75476200  0.99578300  1
  C  740  1  0.82302400  0.76652800  0.97907400  1
  C  743  1  0.74381000  0.74530100  0.01096900  1
  C  744  1  0.73234900  0.75969600  0.03126600  1
  C  745  1  0.70981700  0.74962300  0.04883700  1
  C  746  1  0.69801400  0.72492500  0.04670200  1
  C  747  1  0.70991300  0.71053400  0.02643400  1
  C  748  1  0.73244100  0.72029800  0.00828200  1
  C  753  1  0.71449300  0.77535700  0.96872000  1
  C  754  1  0.74418400  0.70471300  0.98688400  1
  C  763  1  0.83320000  0.79428500  0.94172300  1
  C  766  1  0.67401000  0.71531900  0.06596000  1
  C  769  1  0.56317300  0.53049500  0.03986200  1
  C  770  1  0.52763900  0.53245100  0.04350600  1
  C  771  1  0.50389700  0.52070100  0.02756000  1
  C  772  1  0.51642500  0.50621700  0.00736600  1
  C  773  1  0.55194800  0.50403200  0.00374100  1
  C  774  1  0.57500000  0.51598300  0.01978600  1
  C  777  1  0.49435800  0.49414400  0.99021200  1
  C  778  1  0.48157300  0.50833600  0.97019500  1
  C  779  1  0.45788500  0.49810700  0.95354800  1
  C  780  1  0.44628600  0.47341300  0.95628500  1
  C  781  1  0.45954200  0.45920200  0.97622200  1
  C  782  1  0.48319200  0.46915400  0.99349800  1
  C  787  1  0.46701900  0.52441400  0.03301800  1
  C  788  1  0.49617800  0.45381600  0.01469000  1
  C  797  1  0.58693000  0.54376300  0.05686900  1
  C  800  1  0.42045400  0.46382400  0.93830900  1
  C  803  1  0.68761700  0.03011400  0.71020500  1
  C  804  1  0.72318700  0.03206600  0.70675600  1
  C  805  1  0.74679100  0.02056900  0.72299000  1
  C  806  1  0.73409600  0.00631700  0.74329500  1
  C  807  1  0.69853600  0.00416200  0.74676000  1
  C  808  1  0.67562400  0.01588400  0.73043400  1
  C  811  1  0.75605000  0.99429400  0.76057200  1
  C  812  1  0.76878400  0.00855900  0.78055500  1
  C  813  1  0.79265800  0.99846000  0.79714800  1
  C  814  1  0.80449600  0.97382900  0.79438900  1
  C  815  1  0.79123300  0.95952700  0.77452000  1
  C  816  1  0.76740900  0.96934900  0.75729600  1
  C  821  1  0.78371500  0.02425600  0.71767100  1
  C  822  1  0.75446200  0.95392000  0.73615600  1
  C  831  1  0.66400500  0.04294600  0.69273900  1
  C  834  1  0.83066200  0.96441800  0.81220600  1
  C  837  1  0.31275300  0.97024900  0.28983600  1
  C  838  1  0.27723900  0.96823000  0.29354800  1
  C  839  1  0.25338900  0.97984700  0.27758400  1
  C  840  1  0.26576800  0.99422500  0.25726300  1
  C  841  1  0.30127400  0.99647300  0.25357200  1
  C  842  1  0.32443500  0.98468300  0.26965500  1
  C  845  1  0.24358000  0.00606200  0.24001000  1
  C  846  1  0.23059400  0.99156500  0.22028100  1
  C  847  1  0.20674300  0.00153100  0.20359400  1
  C  848  1  0.19520200  0.02627700  0.20597200  1
  C  849  1  0.20865500  0.04079400  0.22561700  1
  C  850  1  0.23245000  0.03110400  0.24294600  1
  C  855  1  0.21654800  0.97612300  0.28316400  1
  C  856  1  0.24560500  0.04676400  0.26384200  1
  C  865  1  0.33664700  0.95715500  0.30688900  1
  C  868  1  0.16917200  0.03557600  0.18798300  1
  C  871  1  0.06290500  0.52972300  0.54001100  1
  C  872  1  0.02737500  0.53173800  0.54363300  1
  C  873  1  0.00357700  0.52035900  0.52745900  1
  C  874  1  0.01602200  0.50618700  0.50701400  1
  C  875  1  0.05154300  0.50396300  0.50338500  1
  C  876  1  0.07465000  0.51554600  0.51966700  1
  C  879  1  0.99386800  0.49441100  0.48968600  1
  C  880  1  0.98104300  0.50893300  0.46991800  1
  C  881  1  0.95718600  0.49902900  0.45319300  1
  C  882  1  0.94546800  0.47432600  0.45557300  1
  C  883  1  0.95877500  0.45978000  0.47524800  1
  C  884  1  0.98257800  0.46940500  0.49260800  1
  C  889  1  0.96671800  0.52407500  0.53298600  1
  C  890  1  0.99557700  0.45370800  0.51353200  1
  C  899  1  0.08674300  0.54244700  0.55740200  1
  C  902  1  0.91942000  0.46509900  0.43755500  1
  C  905  1  0.40583800  0.11207200  0.11007200  1
  C  906  1  0.37284600  0.11998000  0.11603100  1
  C  907  1  0.37476600  0.13752300  0.13489000  1
  C  908  1  0.40907700  0.14174400  0.14051000  1
  C  909  1  0.41784400  0.15907100  0.15915000  1
  C  910  1  0.39192200  0.17195800  0.17226300  1
  C  911  1  0.35741400  0.16687500  0.16657300  1
  C  912  1  0.34862200  0.14996300  0.14769400  1
  C  913  1  0.34432400  0.11133700  0.10281400  1
  C  914  1  0.34940200  0.09479800  0.08291600  1
  C  915  1  0.38242500  0.08643000  0.07669800  1
  C  916  1  0.41083000  0.09490600  0.09053200  1
  C  917  1  0.45708100  0.13903100  0.11005200  1
  C  918  1  0.49010100  0.13111400  0.11592000  1
  C  919  1  0.48826900  0.11349900  0.13472100  1
  C  920  1  0.45398800  0.10924300  0.14041400  1
  C  921  1  0.51448500  0.10104200  0.14743100  1
  C  922  1  0.50580800  0.08410200  0.16631400  1
  C  923  1  0.47133900  0.07903500  0.17213300  1
  C  924  1  0.44533700  0.09191800  0.15909300  1
  C  925  1  0.45199800  0.15620300  0.09052500  1
  C  926  1  0.48033400  0.16467500  0.07660700  1
  C  927  1  0.51337700  0.15627500  0.08272200  1
  C  928  1  0.51855100  0.13973000  0.10260200  1
  C  941  1  0.43149900  0.12551800  0.12528100  1
  C  950  1  0.90461100  0.63917000  0.14161400  1
  C  951  1  0.87087400  0.63335100  0.13550800  1
  C  952  1  0.87081800  0.61716400  0.11545700  1
  C  953  1  0.90451700  0.61139900  0.10919500  1
  C  954  1  0.91112300  0.59536300  0.08893400  1
  C  955  1  0.88359800  0.58593300  0.07472400  1
  C  956  1  0.84988700  0.59256100  0.08106500  1
  C  957  1  0.84321700  0.60784300  0.10168200  1
  C  958  1  0.84336500  0.64264300  0.14940000  1
  C  959  1  0.85016700  0.65793800  0.16998500  1
  C  960  1  0.88391400  0.66461600  0.17616600  1
  C  961  1  0.91134400  0.65520000  0.16185400  1
  C  962  1  0.95284600  0.60941400  0.13946600  1
  C  963  1  0.98657400  0.61586500  0.13404700  1
  C  964  1  0.98649800  0.63478100  0.11650000  1
  C  965  1  0.95272100  0.64119300  0.11120400  1
  C  966  1  0.01385200  0.64641900  0.10430500  1
  C  967  1  0.00681298  0.66461600  0.08624200  1
  C  968  1  0.97291100  0.67169400  0.08076600  1
  C  969  1  0.94573300  0.65975300  0.09337000  1
  C  970  1  0.94601300  0.59090600  0.15738700  1
  C  971  1  0.97330100  0.57907700  0.16997500  1
  C  972  1  0.00714898  0.58617900  0.16435700  1
  C  973  1  0.01403100  0.60432300  0.14621000  1
  C  986  1  0.92865800  0.62528500  0.12536800  1
  C  995  1  0.95679900  0.13978300  0.60842800  1
  C  996  1  0.99043600  0.13288400  0.61362100  1
  C  997  1  0.99045700  0.11610300  0.63317700  1
  C  998  1  0.95675600  0.11102100  0.64000700  1
  C  999  1  0.95022600  0.09495100  0.66026900  1
  C  1000  1  0.97784000  0.08484200  0.67393000  1
  C  1001  1  0.01156400  0.09077800  0.66696800  1
  C  1002  1  0.01813400  0.10605100  0.64633400  1
  C  1003  1  0.01785700  0.14184400  0.59941900  1
  C  1004  1  0.01104900  0.15788400  0.57941100  1
  C  1005  1  0.97743500  0.16558900  0.57410600  1
  C  1006  1  0.95011900  0.15657000  0.58879400  1
  C  1007  1  0.90700400  0.11149600  0.61065200  1
  C  1008  1  0.87395500  0.11873100  0.61727800  1
  C  1009  1  0.87590000  0.13686400  0.63556200  1
  C  1010  1  0.91021900  0.14216500  0.64012000  1
  C  1011  1  0.84977200  0.14895900  0.64871300  1
  C  1012  1  0.85860100  0.16656000  0.66694200  1
  C  1013  1  0.89308100  0.17261600  0.67166400  1
  C  1014  1  0.91898900  0.16014800  0.65813500  1
  C  1015  1  0.91182800  0.09415800  0.59121900  1
  C  1016  1  0.88319600  0.08488800  0.57813800  1
  C  1017  1  0.85013900  0.09261800  0.58504800  1
  C  1018  1  0.84524900  0.10929500  0.60484600  1
  C  1031  1  0.93270300  0.12605700  0.62479600  1
  C  1040  1  0.45552700  0.61124700  0.63920400  1
  C  1041  1  0.48862000  0.61849700  0.63271700  1
  C  1042  1  0.48680000  0.63658100  0.61437700  1
  C  1043  1  0.45251100  0.64187900  0.60968300  1
  C  1044  1  0.44389100  0.65994600  0.59171100  1
  C  1045  1  0.46990800  0.67249900  0.57836100  1
  C  1046  1  0.50434900  0.66640600  0.58319700  1
  C  1047  1  0.51303100  0.64873900  0.60139700  1
  C  1048  1  0.51723200  0.60913500  0.64532200  1
  C  1049  1  0.51217500  0.59262000  0.66523700  1
  C  1050  1  0.47906100  0.58493700  0.67205000  1
  C  1051  1  0.45054000  0.59406700  0.65874900  1
  C  1052  1  0.40592100  0.63961700  0.64136400  1
  C  1053  1  0.37225500  0.63269900  0.63631300  1
  C  1054  1  0.37211600  0.61592000  0.61675900  1
  C  1055  1  0.40577700  0.61077800  0.60985800  1
  C  1056  1  0.34434600  0.60582200  0.60374500  1
  C  1057  1  0.35077000  0.59045300  0.58316300  1
  C  1058  1  0.38444200  0.58447000  0.57610800  1
  C  1059  1  0.41215600  0.59465600  0.58960900  1
  C  1060  1  0.41276000  0.65628500  0.66106500  1
  C  1061  1  0.38555700  0.66523900  0.67589500  1
  C  1062  1  0.35189400  0.65758900  0.67068000  1
  C  1063  1  0.34493000  0.64165600  0.65061500  1
  C  1076  1  0.42992300  0.62582200  0.62498700  1
  C  1085  1  0.70282800  0.85959900  0.36130900  1
  C  1086  1  0.73655700  0.86601400  0.36676700  1
  C  1087  1  0.73648800  0.88490600  0.38434000  1
  C  1088  1  0.70271900  0.89132800  0.38965500  1
  C  1089  1  0.69578100  0.90985000  0.40754700  1
  C  1090  1  0.72299300  0.92174600  0.42017400  1
  C  1091  1  0.75687500  0.91464500  0.41466900  1
  C  1092  1  0.76386800  0.89647600  0.39657100  1
  C  1093  1  0.76402800  0.85449300  0.35460300  1
  C  1094  1  0.75717800  0.83634300  0.33645700  1
  C  1095  1  0.72333900  0.82925200  0.33080100  1
  C  1096  1  0.69603100  0.84111200  0.34335000  1
  C  1097  1  0.65452700  0.86149500  0.39161100  1
  C  1098  1  0.62082100  0.86729000  0.38539700  1
  C  1099  1  0.62083900  0.88351600  0.36537700  1
  C  1100  1  0.65455500  0.88937400  0.35924700  1
  C  1101  1  0.59327800  0.89283600  0.35156000  1
  C  1102  1  0.59999700  0.90820300  0.33101700  1
  C  1103  1  0.63371000  0.91491800  0.32478300  1
  C  1104  1  0.66119700  0.90548100  0.33904300  1
  C  1105  1  0.66112800  0.84541900  0.41185200  1
  C  1106  1  0.63360600  0.83592800  0.42603900  1
  C  1107  1  0.59990000  0.84258200  0.41971600  1
  C  1108  1  0.59322800  0.85792300  0.39914700  1
  C  1121  1  0.67864100  0.87544700  0.37545100  1
  C  1130  1  0.20407000  0.89059700  0.89054500  1
  C  1131  1  0.23778300  0.88365300  0.88574700  1
  C  1132  1  0.23780900  0.86520900  0.86769900  1
  C  1133  1  0.20407700  0.85975800  0.86126600  1
  C  1134  1  0.19725700  0.84179900  0.84278900  1
  C  1135  1  0.22457300  0.82957000  0.83061100  1
  C  1136  1  0.25844000  0.83579500  0.83714400  1
  C  1137  1  0.26528300  0.85335900  0.85586000  1
  C  1138  1  0.26508200  0.89460200  0.89863600  1
  C  1139  1  0.25803700  0.91274800  0.91675300  1
  C  1140  1  0.22420200  0.92038000  0.92166500  1
  C  1141  1  0.19707100  0.90906900  0.90846100  1
  C  1142  1  0.15737300  0.89091700  0.85917300  1
  C  1143  1  0.12309100  0.88603700  0.86432100  1
  C  1144  1  0.12131900  0.86889600  0.88356100  1
  C  1145  1  0.15443500  0.86202100  0.89038700  1
  C  1146  1  0.09274600  0.85988900  0.89646800  1
  C  1147  1  0.09784200  0.84392100  0.91682400  1
  C  1148  1  0.13098100  0.83649700  0.92386000  1
  C  1149  1  0.15949100  0.84545100  0.91043400  1
  C  1150  1  0.16600500  0.90833900  0.84058600  1
  C  1151  1  0.13997700  0.92070400  0.82709200  1
  C  1152  1  0.10552300  0.91494400  0.83227700  1
  C  1153  1  0.09685500  0.89787400  0.85104700  1
  C  1166  1  0.17997900  0.87574100  0.87531500  1
  C  1175  1  0.15888200  0.35895500  0.39009400  1
  C  1176  1  0.12460900  0.36325000  0.38440100  1
  C  1177  1  0.12281400  0.38080500  0.36555000  1
  C  1178  1  0.15585000  0.38864500  0.35962800  1
  C  1179  1  0.16091100  0.40587900  0.34014900  1
  C  1180  1  0.13253900  0.41452800  0.32637500  1
  C  1181  1  0.09948900  0.40617700  0.33253200  1
  C  1182  1  0.09434200  0.38953900  0.35233500  1
  C  1183  1  0.09835200  0.35092200  0.39719000  1
  C  1184  1  0.10697400  0.33403800  0.41613400  1
  C  1185  1  0.14142600  0.32890100  0.42193800  1
  C  1186  1  0.16747400  0.34166000  0.40881800  1
  C  1187  1  0.20701800  0.36156000  0.35969200  1
  C  1188  1  0.24003400  0.36943500  0.36562600  1
  C  1189  1  0.23820100  0.38703700  0.38443800  1
  C  1190  1  0.20391700  0.39137400  0.39005600  1
  C  1191  1  0.26443000  0.39944500  0.39718200  1
  C  1192  1  0.25576900  0.41643700  0.41602100  1
  C  1193  1  0.22130700  0.42161300  0.42175800  1
  C  1194  1  0.19528900  0.40876300  0.40869200  1
  C  1195  1  0.20201300  0.34437800  0.34014700  1
  C  1196  1  0.23040600  0.33583700  0.32631700  1
  C  1197  1  0.26343200  0.34419400  0.33253900  1
  C  1198  1  0.26854100  0.36072500  0.35243600  1
  C  1211  1  0.18142000  0.37513000  0.37487900  1
  C  1220  1  0.65861800  0.39036900  0.85951500  1
  C  1221  1  0.62491500  0.38343400  0.86437100  1
  C  1222  1  0.62493800  0.36495100  0.88237800  1
  C  1223  1  0.65868900  0.35945700  0.88871600  1
  C  1224  1  0.66556600  0.34162500  0.90729900  1
  C  1225  1  0.63828500  0.32950200  0.91961400  1
  C  1226  1  0.60439800  0.33572600  0.91314300  1
  C  1227  1  0.59749400  0.35320700  0.89436200  1
  C  1228  1  0.59756600  0.39448100  0.85162500  1
  C  1229  1  0.60454100  0.41275400  0.83362100  1
  C  1230  1  0.63835600  0.42042500  0.82869100  1
  C  1231  1  0.66554000  0.40897600  0.84172500  1
  C  1232  1  0.70529500  0.39062900  0.89089300  1
  C  1233  1  0.73959400  0.38577100  0.88579100  1
  C  1234  1  0.74143000  0.36865400  0.86652900  1
  C  1235  1  0.70834000  0.36178700  0.85962300  1
  C  1236  1  0.77005900  0.35959100  0.85372700  1
  C  1237  1  0.76505700  0.34357300  0.83340200  1
  C  1238  1  0.73195400  0.33612700  0.82629300  1
  C  1239  1  0.70338300  0.34513300  0.83962600  1
  C  1240  1  0.69657600  0.40791700  0.90958400  1
  C  1241  1  0.72255000  0.42018500  0.92321500  1
  C  1242  1  0.75702500  0.41448700  0.91805100  1
  C  1243  1  0.76577500  0.39752600  0.89919700  1
  C  1256  1  0.68274700  0.37548100  0.87468300  1
  C  1265  1  0.36675500  0.03045300  0.04240300  1
  C  1266  1  0.33109900  0.03298600  0.04486500  1
  C  1267  1  0.30807000  0.02135300  0.02830000  1
  C  1268  1  0.32148900  0.00652000  0.00867700  1
  C  1269  1  0.35713000  0.00380700  0.00622400  1
  C  1270  1  0.37947400  0.01558000  0.02290100  1
  C  1273  1  0.30025100  0.99459700  0.99091100  1
  C  1274  1  0.28906500  0.00877400  0.97038100  1
  C  1275  1  0.26665200  0.99854200  0.95282500  1
  C  1276  1  0.25470000  0.97390700  0.95522500  1
  C  1277  1  0.26630400  0.95974300  0.97574200  1
  C  1278  1  0.28871100  0.96966900  0.99387600  1
  C  1283  1  0.27098800  0.02553600  0.03253900  1
  C  1284  1  0.30016000  0.95432200  0.01553100  1
  C  1293  1  0.38972900  0.04380200  0.05986100  1
  C  1296  1  0.23091000  0.96409500  0.93594300  1
  C  1299  1  0.86917900  0.72006000  0.21101200  1
  C  1300  1  0.83360900  0.71813800  0.20753300  1
  C  1301  1  0.81002800  0.72972500  0.22372400  1
  C  1302  1  0.82276900  0.74399800  0.24399400  1
  C  1303  1  0.85832900  0.74618000  0.24742800  1
  C  1304  1  0.88121500  0.73440500  0.23113800  1
  C  1307  1  0.80093400  0.75574700  0.26152200  1
  C  1308  1  0.78919600  0.74136900  0.28174700  1
  C  1309  1  0.76629400  0.75141200  0.29908100  1
  C  1310  1  0.75439300  0.77607300  0.29679400  1
  C  1311  1  0.76649500  0.79043300  0.27656700  1
  C  1312  1  0.78939200  0.78069100  0.25864600  1
  C  1317  1  0.77309100  0.72605700  0.21846100  1
  C  1318  1  0.80140300  0.79625000  0.23730900  1
  C  1327  1  0.89277600  0.70682900  0.19386500  1
  C  1330  1  0.73010300  0.78566900  0.31587600  1
  C  1333  1  0.99377400  0.22126300  0.54016800  1
  C  1334  1  0.02925900  0.21870800  0.54367200  1
  C  1335  1  0.05324600  0.23014600  0.52768700  1
  C  1336  1  0.04104100  0.24483800  0.50753300  1
  C  1337  1  0.00556598  0.24759100  0.50404200  1
  C  1338  1  0.98226200  0.23600600  0.52016200  1
  C  1341  1  0.06335200  0.25650200  0.49024300  1
  C  1342  1  0.07614200  0.24189000  0.47052900  1
  C  1343  1  0.10002700  0.25169600  0.45377300  1
  C  1344  1  0.11179100  0.27639600  0.45606000  1
  C  1345  1  0.09853700  0.29102900  0.47569000  1
  C  1346  1  0.07471400  0.28149800  0.49308800  1
  C  1351  1  0.09004000  0.22592700  0.53307700  1
  C  1352  1  0.06178900  0.29727200  0.51397700  1
  C  1361  1  0.96970600  0.20829600  0.55718200  1
  C  1364  1  0.13783600  0.28552300  0.43799300  1
  C  1367  1  0.49506300  0.52975700  0.70783800  1
  C  1368  1  0.53072900  0.53236300  0.70553100  1
  C  1369  1  0.55368000  0.52101300  0.72235200  1
  C  1370  1  0.54018100  0.50637300  0.74209200  1
  C  1371  1  0.50452800  0.50362900  0.74443500  1
  C  1372  1  0.48226600  0.51514200  0.72751100  1
  C  1375  1  0.56137200  0.49448400  0.75992100  1
  C  1376  1  0.57251300  0.50868400  0.78045100  1
  C  1377  1  0.59506300  0.49852400  0.79796200  1
  C  1378  1  0.60720900  0.47394100  0.79551700  1
  C  1379  1  0.59560300  0.45974100  0.77502800  1
  C  1380  1  0.57306500  0.46959400  0.75694100  1
  C  1385  1  0.59077300  0.52523300  0.71820600  1
  C  1386  1  0.56165000  0.45420300  0.73530500  1
  C  1395  1  0.47217200  0.54261600  0.68993900  1
  C  1398  1  0.63125900  0.46422700  0.81468400  1
  C  1401  1  0.74775300  0.28059600  0.79102200  1
  C  1402  1  0.78337600  0.28281400  0.79398000  1
  C  1403  1  0.80666500  0.27118900  0.77759900  1
  C  1404  1  0.79359000  0.25665500  0.75762500  1
  C  1405  1  0.75797500  0.25422700  0.75468800  1
  C  1406  1  0.73536600  0.26599300  0.77119800  1
  C  1409  1  0.81520300  0.24496600  0.73990400  1
  C  1410  1  0.82732100  0.25959400  0.71997600  1
  C  1411  1  0.85079800  0.24985000  0.70288700  1
  C  1412  1  0.86291900  0.22523900  0.70511800  1
  C  1413  1  0.85024100  0.21056200  0.72492000  1
  C  1414  1  0.82675600  0.22000200  0.74260200  1
  C  1419  1  0.84367800  0.27510100  0.78238400  1
  C  1420  1  0.81437100  0.20418700  0.76363400  1
  C  1429  1  0.72452300  0.29383700  0.80841900  1
  C  1432  1  0.88870200  0.21625600  0.68678900  1
  C  1435  1  0.61813500  0.78069500  0.46124100  1
  C  1436  1  0.58259900  0.78276900  0.45768100  1
  C  1437  1  0.55884000  0.77123500  0.47377400  1
  C  1438  1  0.57133400  0.75685900  0.49405800  1
  C  1439  1  0.60686000  0.75455000  0.49760000  1
  C  1440  1  0.62993200  0.76627000  0.48139400  1
  C  1443  1  0.54922700  0.74512600  0.51143700  1
  C  1444  1  0.53682700  0.75963500  0.53135900  1
  C  1445  1  0.51293400  0.74984500  0.54811700  1
  C  1446  1  0.50068800  0.72529500  0.54557600  1
  C  1447  1  0.51361000  0.71074400  0.52576500  1
  C  1448  1  0.53750200  0.72024000  0.50840100  1
  C  1453  1  0.52196700  0.77505600  0.46837100  1
  C  1454  1  0.55016500  0.70454900  0.48736700  1
  C  1463  1  0.64192600  0.79371900  0.44405800  1
  C  1466  1  0.47449200  0.71625400  0.56356800  1
  C  1469  1  0.11638300  0.47050700  0.29215000  1
  C  1470  1  0.08074200  0.46791400  0.29467700  1
  C  1471  1  0.05761200  0.47944400  0.27811000  1
  C  1472  1  0.07089300  0.49420500  0.25838200  1
  C  1473  1  0.10651800  0.49698600  0.25587200  1
  C  1474  1  0.12896400  0.48533900  0.27256900  1
  C  1477  1  0.04955700  0.50587800  0.24049300  1
  C  1478  1  0.03826600  0.49139400  0.22020500  1
  C  1479  1  0.01579700  0.50136300  0.20253400  1
  C  1480  1  0.00389798  0.52604600  0.20454400  1
  C  1481  1  0.01558600  0.54051700  0.22482300  1
  C  1482  1  0.03803500  0.53085500  0.24308100  1
  C  1487  1  0.02056000  0.47523700  0.28245500  1
  C  1488  1  0.04954900  0.54652200  0.26448700  1
  C  1497  1  0.13948600  0.45726700  0.30961500  1
  C  1500  1  0.98009300  0.53557400  0.18511500  1
  C  1503  1  0.86646500  0.02955800  0.54267400  1
  C  1504  1  0.83082200  0.03224500  0.54507600  1
  C  1505  1  0.80773400  0.02097400  0.52829700  1
  C  1506  1  0.82104800  0.00635400  0.50847400  1
  C  1507  1  0.85668200  0.00351400  0.50605300  1
  C  1508  1  0.87908200  0.01492200  0.52295200  1
  C  1511  1  0.79972800  0.99474000  0.49052600  1
  C  1512  1  0.78853400  0.00925100  0.47023000  1
  C  1513  1  0.76598300  0.99935800  0.45256700  1
  C  1514  1  0.75389900  0.97472200  0.45458800  1
  C  1515  1  0.76551300  0.96021500  0.47485900  1
  C  1516  1  0.78804500  0.96979900  0.49310800  1
  C  1521  1  0.77068000  0.02525500  0.53256600  1
  C  1522  1  0.79946300  0.95408900  0.51451000  1
  C  1531  1  0.88952200  0.04237700  0.56049900  1
  C  1534  1  0.72990700  0.96529800  0.43522100  1
  C  1537  1  0.36989500  0.72077600  0.71013200  1
  C  1538  1  0.33435100  0.71831600  0.70685800  1
  C  1539  1  0.31062800  0.72971200  0.72307700  1
  C  1540  1  0.32318800  0.74427700  0.74320000  1
  C  1541  1  0.35871800  0.74693000  0.74646700  1
  C  1542  1  0.38175100  0.73537700  0.73013100  1
  C  1545  1  0.30122600  0.75600800  0.76065700  1
  C  1546  1  0.28920300  0.74160700  0.78077600  1
  C  1547  1  0.26629100  0.75170400  0.79807500  1
  C  1548  1  0.25472500  0.77646000  0.79588500  1
  C  1549  1  0.26708000  0.79082500  0.77574700  1
  C  1550  1  0.28994400  0.78102200  0.75784100  1
  C  1555  1  0.27374000  0.72561100  0.71795400  1
  C  1556  1  0.30213800  0.79659000  0.73656500  1
  C  1565  1  0.39368200  0.70780700  0.69293000  1
  C  1568  1  0.23049500  0.78615300  0.81495800  1
  C  1571  1  0.49612100  0.22054300  0.04218400  1
  C  1572  1  0.53176100  0.21806000  0.04481300  1
  C  1573  1  0.55490900  0.22963800  0.02829400  1
  C  1574  1  0.54164500  0.24434000  0.00851400  1
  C  1575  1  0.50601500  0.24699800  0.00589400  1
  C  1576  1  0.48355000  0.23530300  0.02254400  1
  C  1579  1  0.56300700  0.25611000  0.99070800  1
  C  1580  1  0.57480900  0.24163100  0.97057400  1
  C  1581  1  0.59732100  0.25172200  0.95300200  1
  C  1582  1  0.60869300  0.27654500  0.95493100  1
  C  1583  1  0.59651700  0.29100000  0.97506700  1
  C  1584  1  0.57406300  0.28120400  0.99324900  1
  C  1589  1  0.59195700  0.22555000  0.03275200  1
  C  1590  1  0.56209000  0.29685000  0.01453500  1
  C  1599  1  0.47301700  0.20727300  0.05962000  1
  C  1602  1  0.63250900  0.28622000  0.93558200  1
  C  1605  1  0.24695800  0.28017400  0.29164300  1
  C  1606  1  0.28254600  0.28282300  0.29445800  1
  C  1607  1  0.30597400  0.27127800  0.27812400  1
  C  1608  1  0.29307700  0.25645000  0.25830200  1
  C  1609  1  0.25749800  0.25365200  0.25547400  1
  C  1610  1  0.23474900  0.26531100  0.27195500  1
  C  1613  1  0.31482200  0.24465200  0.24073500  1
  C  1614  1  0.32744500  0.25921800  0.22092800  1
  C  1615  1  0.35105700  0.24932600  0.20402000  1
  C  1616  1  0.36270300  0.22459600  0.20625600  1
  C  1617  1  0.34953600  0.20999100  0.22594000  1
  C  1618  1  0.32599300  0.21960100  0.24348700  1
  C  1623  1  0.34293700  0.27552400  0.28283600  1
  C  1624  1  0.31321300  0.20386500  0.26445400  1
  C  1633  1  0.22355500  0.29324900  0.30903700  1
  C  1636  1  0.38858200  0.21540500  0.18810600  1
  C  1639  1  0.11576200  0.78102500  0.95930000  1
  C  1640  1  0.08008800  0.78316900  0.95660800  1
  C  1641  1  0.05708700  0.77155300  0.97321000  1
  C  1642  1  0.07053900  0.75711000  0.99311000  1
  C  1643  1  0.10620300  0.75476200  0.99578300  1
  C  1644  1  0.12851600  0.76652800  0.97907400  1
  C  1647  1  0.04930200  0.74530100  0.01096900  1
  C  1648  1  0.03784100  0.75969600  0.03126600  1
  C  1649  1  0.01530900  0.74962300  0.04883700  1
  C  1650  1  0.00350598  0.72492500  0.04670200  1
  C  1651  1  0.01540500  0.71053400  0.02643400  1
  C  1652  1  0.03793300  0.72029800  0.00828200  1
  C  1657  1  0.01998500  0.77535700  0.96872000  1
  C  1658  1  0.04967600  0.70471300  0.98688400  1
  C  1667  1  0.13869200  0.79428500  0.94172300  1
  C  1670  1  0.97950200  0.71531900  0.06596000  1
  C  1673  1  0.86866500  0.53049500  0.03986200  1
  C  1674  1  0.83313100  0.53245100  0.04350600  1
  C  1675  1  0.80938900  0.52070100  0.02756000  1
  C  1676  1  0.82191700  0.50621700  0.00736600  1
  C  1677  1  0.85744000  0.50403200  0.00374100  1
  C  1678  1  0.88049200  0.51598300  0.01978600  1
  C  1681  1  0.79985000  0.49414400  0.99021200  1
  C  1682  1  0.78706500  0.50833600  0.97019500  1
  C  1683  1  0.76337700  0.49810700  0.95354800  1
  C  1684  1  0.75177800  0.47341300  0.95628500  1
  C  1685  1  0.76503400  0.45920200  0.97622200  1
  C  1686  1  0.78868400  0.46915400  0.99349800  1
  C  1691  1  0.77251100  0.52441400  0.03301800  1
  C  1692  1  0.80167000  0.45381600  0.01469000  1
  C  1701  1  0.89242200  0.54376300  0.05686900  1
  C  1704  1  0.72594600  0.46382400  0.93830900  1
  C  1707  1  0.99310900  0.03011400  0.71020500  1
  C  1708  1  0.02867900  0.03206600  0.70675600  1
  C  1709  1  0.05228300  0.02056900  0.72299000  1
  C  1710  1  0.03958800  0.00631700  0.74329500  1
  C  1711  1  0.00402798  0.00416200  0.74676000  1
  C  1712  1  0.98111600  0.01588400  0.73043400  1
  C  1715  1  0.06154200  0.99429400  0.76057200  1
  C  1716  1  0.07427600  0.00855900  0.78055500  1
  C  1717  1  0.09815000  0.99846000  0.79714800  1
  C  1718  1  0.10998800  0.97382900  0.79438900  1
  C  1719  1  0.09672500  0.95952700  0.77452000  1
  C  1720  1  0.07290100  0.96934900  0.75729600  1
  C  1725  1  0.08920700  0.02425600  0.71767100  1
  C  1726  1  0.05995400  0.95392000  0.73615600  1
  C  1735  1  0.96949700  0.04294600  0.69273900  1
  C  1738  1  0.13615400  0.96441800  0.81220600  1
  C  1741  1  0.61824500  0.97024900  0.28983600  1
  C  1742  1  0.58273100  0.96823000  0.29354800  1
  C  1743  1  0.55888100  0.97984700  0.27758400  1
  C  1744  1  0.57126000  0.99422500  0.25726300  1
  C  1745  1  0.60676600  0.99647300  0.25357200  1
  C  1746  1  0.62992700  0.98468300  0.26965500  1
  C  1749  1  0.54907200  0.00606200  0.24001000  1
  C  1750  1  0.53608600  0.99156500  0.22028100  1
  C  1751  1  0.51223500  0.00153100  0.20359400  1
  C  1752  1  0.50069400  0.02627700  0.20597200  1
  C  1753  1  0.51414700  0.04079400  0.22561700  1
  C  1754  1  0.53794200  0.03110400  0.24294600  1
  C  1759  1  0.52204000  0.97612300  0.28316400  1
  C  1760  1  0.55109700  0.04676400  0.26384200  1
  C  1769  1  0.64213900  0.95715500  0.30688900  1
  C  1772  1  0.47466400  0.03557600  0.18798300  1
  C  1775  1  0.36839700  0.52972300  0.54001100  1
  C  1776  1  0.33286700  0.53173800  0.54363300  1
  C  1777  1  0.30906900  0.52035900  0.52745900  1
  C  1778  1  0.32151400  0.50618700  0.50701400  1
  C  1779  1  0.35703500  0.50396300  0.50338500  1
  C  1780  1  0.38014200  0.51554600  0.51966700  1
  C  1783  1  0.29936000  0.49441100  0.48968600  1
  C  1784  1  0.28653500  0.50893300  0.46991800  1
  C  1785  1  0.26267800  0.49902900  0.45319300  1
  C  1786  1  0.25096000  0.47432600  0.45557300  1
  C  1787  1  0.26426700  0.45978000  0.47524800  1
  C  1788  1  0.28807000  0.46940500  0.49260800  1
  C  1793  1  0.27221000  0.52407500  0.53298600  1
  C  1794  1  0.30106900  0.45370800  0.51353200  1
  C  1803  1  0.39223500  0.54244700  0.55740200  1
  C  1806  1  0.22491200  0.46509900  0.43755500  1
  C  1809  1  0.71133000  0.11207200  0.11007200  1
  C  1810  1  0.67833800  0.11998000  0.11603100  1
  C  1811  1  0.68025800  0.13752300  0.13489000  1
  C  1812  1  0.71456900  0.14174400  0.14051000  1
  C  1813  1  0.72333600  0.15907100  0.15915000  1
  C  1814  1  0.69741400  0.17195800  0.17226300  1
  C  1815  1  0.66290600  0.16687500  0.16657300  1
  C  1816  1  0.65411400  0.14996300  0.14769400  1
  C  1817  1  0.64981600  0.11133700  0.10281400  1
  C  1818  1  0.65489400  0.09479800  0.08291600  1
  C  1819  1  0.68791700  0.08643000  0.07669800  1
  C  1820  1  0.71632200  0.09490600  0.09053200  1
  C  1821  1  0.76257300  0.13903100  0.11005200  1
  C  1822  1  0.79559300  0.13111400  0.11592000  1
  C  1823  1  0.79376100  0.11349900  0.13472100  1
  C  1824  1  0.75948000  0.10924300  0.14041400  1
  C  1825  1  0.81997700  0.10104200  0.14743100  1
  C  1826  1  0.81130000  0.08410200  0.16631400  1
  C  1827  1  0.77683100  0.07903500  0.17213300  1
  C  1828  1  0.75082900  0.09191800  0.15909300  1
  C  1829  1  0.75749000  0.15620300  0.09052500  1
  C  1830  1  0.78582600  0.16467500  0.07660700  1
  C  1831  1  0.81886900  0.15627500  0.08272200  1
  C  1832  1  0.82404300  0.13973000  0.10260200  1
  C  1845  1  0.73699100  0.12551800  0.12528100  1
  C  1854  1  0.21010300  0.63917000  0.14161400  1
  C  1855  1  0.17636600  0.63335100  0.13550800  1
  C  1856  1  0.17631000  0.61716400  0.11545700  1
  C  1857  1  0.21000900  0.61139900  0.10919500  1
  C  1858  1  0.21661500  0.59536300  0.08893400  1
  C  1859  1  0.18909000  0.58593300  0.07472400  1
  C  1860  1  0.15537900  0.59256100  0.08106500  1
  C  1861  1  0.14870900  0.60784300  0.10168200  1
  C  1862  1  0.14885700  0.64264300  0.14940000  1
  C  1863  1  0.15565900  0.65793800  0.16998500  1
  C  1864  1  0.18940600  0.66461600  0.17616600  1
  C  1865  1  0.21683600  0.65520000  0.16185400  1
  C  1866  1  0.25833800  0.60941400  0.13946600  1
  C  1867  1  0.29206600  0.61586500  0.13404700  1
  C  1868  1  0.29199000  0.63478100  0.11650000  1
  C  1869  1  0.25821300  0.64119300  0.11120400  1
  C  1870  1  0.31934400  0.64641900  0.10430500  1
  C  1871  1  0.31230500  0.66461600  0.08624200  1
  C  1872  1  0.27840300  0.67169400  0.08076600  1
  C  1873  1  0.25122500  0.65975300  0.09337000  1
  C  1874  1  0.25150500  0.59090600  0.15738700  1
  C  1875  1  0.27879300  0.57907700  0.16997500  1
  C  1876  1  0.31264100  0.58617900  0.16435700  1
  C  1877  1  0.31952300  0.60432300  0.14621000  1
  C  1890  1  0.23415000  0.62528500  0.12536800  1
  C  1899  1  0.26229100  0.13978300  0.60842800  1
  C  1900  1  0.29592800  0.13288400  0.61362100  1
  C  1901  1  0.29594900  0.11610300  0.63317700  1
  C  1902  1  0.26224800  0.11102100  0.64000700  1
  C  1903  1  0.25571800  0.09495100  0.66026900  1
  C  1904  1  0.28333200  0.08484200  0.67393000  1
  C  1905  1  0.31705600  0.09077800  0.66696800  1
  C  1906  1  0.32362600  0.10605100  0.64633400  1
  C  1907  1  0.32334900  0.14184400  0.59941900  1
  C  1908  1  0.31654100  0.15788400  0.57941100  1
  C  1909  1  0.28292700  0.16558900  0.57410600  1
  C  1910  1  0.25561100  0.15657000  0.58879400  1
  C  1911  1  0.21249600  0.11149600  0.61065200  1
  C  1912  1  0.17944700  0.11873100  0.61727800  1
  C  1913  1  0.18139200  0.13686400  0.63556200  1
  C  1914  1  0.21571100  0.14216500  0.64012000  1
  C  1915  1  0.15526400  0.14895900  0.64871300  1
  C  1916  1  0.16409300  0.16656000  0.66694200  1
  C  1917  1  0.19857300  0.17261600  0.67166400  1
  C  1918  1  0.22448100  0.16014800  0.65813500  1
  C  1919  1  0.21732000  0.09415800  0.59121900  1
  C  1920  1  0.18868800  0.08488800  0.57813800  1
  C  1921  1  0.15563100  0.09261800  0.58504800  1
  C  1922  1  0.15074100  0.10929500  0.60484600  1
  C  1935  1  0.23819500  0.12605700  0.62479600  1
  C  1944  1  0.76101900  0.61124700  0.63920400  1
  C  1945  1  0.79411200  0.61849700  0.63271700  1
  C  1946  1  0.79229200  0.63658100  0.61437700  1
  C  1947  1  0.75800300  0.64187900  0.60968300  1
  C  1948  1  0.74938300  0.65994600  0.59171100  1
  C  1949  1  0.77540000  0.67249900  0.57836100  1
  C  1950  1  0.80984100  0.66640600  0.58319700  1
  C  1951  1  0.81852300  0.64873900  0.60139700  1
  C  1952  1  0.82272400  0.60913500  0.64532200  1
  C  1953  1  0.81766700  0.59262000  0.66523700  1
  C  1954  1  0.78455300  0.58493700  0.67205000  1
  C  1955  1  0.75603200  0.59406700  0.65874900  1
  C  1956  1  0.71141300  0.63961700  0.64136400  1
  C  1957  1  0.67774700  0.63269900  0.63631300  1
  C  1958  1  0.67760800  0.61592000  0.61675900  1
  C  1959  1  0.71126900  0.61077800  0.60985800  1
  C  1960  1  0.64983800  0.60582200  0.60374500  1
  C  1961  1  0.65626200  0.59045300  0.58316300  1
  C  1962  1  0.68993400  0.58447000  0.57610800  1
  C  1963  1  0.71764800  0.59465600  0.58960900  1
  C  1964  1  0.71825200  0.65628500  0.66106500  1
  C  1965  1  0.69104900  0.66523900  0.67589500  1
  C  1966  1  0.65738600  0.65758900  0.67068000  1
  C  1967  1  0.65042200  0.64165600  0.65061500  1
  C  1980  1  0.73541500  0.62582200  0.62498700  1
  C  1989  1  0.00831996  0.85959900  0.36130900  1
  C  1990  1  0.04204900  0.86601400  0.36676700  1
  C  1991  1  0.04198000  0.88490600  0.38434000  1
  C  1992  1  0.00821096  0.89132800  0.38965500  1
  C  1993  1  0.00127296  0.90985000  0.40754700  1
  C  1994  1  0.02848500  0.92174600  0.42017400  1
  C  1995  1  0.06236700  0.91464500  0.41466900  1
  C  1996  1  0.06936000  0.89647600  0.39657100  1
  C  1997  1  0.06952000  0.85449300  0.35460300  1
  C  1998  1  0.06267000  0.83634300  0.33645700  1
  C  1999  1  0.02883100  0.82925200  0.33080100  1
  C  2000  1  0.00152296  0.84111200  0.34335000  1
  C  2001  1  0.96001900  0.86149500  0.39161100  1
  C  2002  1  0.92631300  0.86729000  0.38539700  1
  C  2003  1  0.92633100  0.88351600  0.36537700  1
  C  2004  1  0.96004700  0.88937400  0.35924700  1
  C  2005  1  0.89877000  0.89283600  0.35156000  1
  C  2006  1  0.90548900  0.90820300  0.33101700  1
  C  2007  1  0.93920200  0.91491800  0.32478300  1
  C  2008  1  0.96668900  0.90548100  0.33904300  1
  C  2009  1  0.96662000  0.84541900  0.41185200  1
  C  2010  1  0.93909800  0.83592800  0.42603900  1
  C  2011  1  0.90539200  0.84258200  0.41971600  1
  C  2012  1  0.89872000  0.85792300  0.39914700  1
  C  2025  1  0.98413300  0.87544700  0.37545100  1
  C  2034  1  0.50956200  0.89059700  0.89054500  1
  C  2035  1  0.54327500  0.88365300  0.88574700  1
  C  2036  1  0.54330100  0.86520900  0.86769900  1
  C  2037  1  0.50956900  0.85975800  0.86126600  1
  C  2038  1  0.50274900  0.84179900  0.84278900  1
  C  2039  1  0.53006500  0.82957000  0.83061100  1
  C  2040  1  0.56393200  0.83579500  0.83714400  1
  C  2041  1  0.57077500  0.85335900  0.85586000  1
  C  2042  1  0.57057400  0.89460200  0.89863600  1
  C  2043  1  0.56352900  0.91274800  0.91675300  1
  C  2044  1  0.52969400  0.92038000  0.92166500  1
  C  2045  1  0.50256300  0.90906900  0.90846100  1
  C  2046  1  0.46286500  0.89091700  0.85917300  1
  C  2047  1  0.42858300  0.88603700  0.86432100  1
  C  2048  1  0.42681100  0.86889600  0.88356100  1
  C  2049  1  0.45992700  0.86202100  0.89038700  1
  C  2050  1  0.39823800  0.85988900  0.89646800  1
  C  2051  1  0.40333400  0.84392100  0.91682400  1
  C  2052  1  0.43647300  0.83649700  0.92386000  1
  C  2053  1  0.46498300  0.84545100  0.91043400  1
  C  2054  1  0.47149700  0.90833900  0.84058600  1
  C  2055  1  0.44546900  0.92070400  0.82709200  1
  C  2056  1  0.41101500  0.91494400  0.83227700  1
  C  2057  1  0.40234700  0.89787400  0.85104700  1
  C  2070  1  0.48547100  0.87574100  0.87531500  1
  C  2079  1  0.46437400  0.35895500  0.39009400  1
  C  2080  1  0.43010100  0.36325000  0.38440100  1
  C  2081  1  0.42830600  0.38080500  0.36555000  1
  C  2082  1  0.46134200  0.38864500  0.35962800  1
  C  2083  1  0.46640300  0.40587900  0.34014900  1
  C  2084  1  0.43803100  0.41452800  0.32637500  1
  C  2085  1  0.40498100  0.40617700  0.33253200  1
  C  2086  1  0.39983400  0.38953900  0.35233500  1
  C  2087  1  0.40384400  0.35092200  0.39719000  1
  C  2088  1  0.41246600  0.33403800  0.41613400  1
  C  2089  1  0.44691800  0.32890100  0.42193800  1
  C  2090  1  0.47296600  0.34166000  0.40881800  1
  C  2091  1  0.51251000  0.36156000  0.35969200  1
  C  2092  1  0.54552600  0.36943500  0.36562600  1
  C  2093  1  0.54369300  0.38703700  0.38443800  1
  C  2094  1  0.50940900  0.39137400  0.39005600  1
  C  2095  1  0.56992200  0.39944500  0.39718200  1
  C  2096  1  0.56126100  0.41643700  0.41602100  1
  C  2097  1  0.52679900  0.42161300  0.42175800  1
  C  2098  1  0.50078100  0.40876300  0.40869200  1
  C  2099  1  0.50750500  0.34437800  0.34014700  1
  C  2100  1  0.53589800  0.33583700  0.32631700  1
  C  2101  1  0.56892400  0.34419400  0.33253900  1
  C  2102  1  0.57403300  0.36072500  0.35243600  1
  C  2115  1  0.48691200  0.37513000  0.37487900  1
  C  2124  1  0.96411000  0.39036900  0.85951500  1
  C  2125  1  0.93040700  0.38343400  0.86437100  1
  C  2126  1  0.93043000  0.36495100  0.88237800  1
  C  2127  1  0.96418100  0.35945700  0.88871600  1
  C  2128  1  0.97105800  0.34162500  0.90729900  1
  C  2129  1  0.94377700  0.32950200  0.91961400  1
  C  2130  1  0.90989000  0.33572600  0.91314300  1
  C  2131  1  0.90298600  0.35320700  0.89436200  1
  C  2132  1  0.90305800  0.39448100  0.85162500  1
  C  2133  1  0.91003300  0.41275400  0.83362100  1
  C  2134  1  0.94384800  0.42042500  0.82869100  1
  C  2135  1  0.97103200  0.40897600  0.84172500  1
  C  2136  1  0.01078700  0.39062900  0.89089300  1
  C  2137  1  0.04508600  0.38577100  0.88579100  1
  C  2138  1  0.04692200  0.36865400  0.86652900  1
  C  2139  1  0.01383200  0.36178700  0.85962300  1
  C  2140  1  0.07555100  0.35959100  0.85372700  1
  C  2141  1  0.07054900  0.34357300  0.83340200  1
  C  2142  1  0.03744600  0.33612700  0.82629300  1
  C  2143  1  0.00887496  0.34513300  0.83962600  1
  C  2144  1  0.00206796  0.40791700  0.90958400  1
  C  2145  1  0.02804200  0.42018500  0.92321500  1
  C  2146  1  0.06251700  0.41448700  0.91805100  1
  C  2147  1  0.07126700  0.39752600  0.89919700  1
  C  2160  1  0.98823900  0.37548100  0.87468300  1
  C  2169  1  0.67224700  0.03045300  0.04240300  1
  C  2170  1  0.63659100  0.03298600  0.04486500  1
  C  2171  1  0.61356200  0.02135300  0.02830000  1
  C  2172  1  0.62698100  0.00652000  0.00867700  1
  C  2173  1  0.66262200  0.00380700  0.00622400  1
  C  2174  1  0.68496600  0.01558000  0.02290100  1
  C  2177  1  0.60574300  0.99459700  0.99091100  1
  C  2178  1  0.59455700  0.00877400  0.97038100  1
  C  2179  1  0.57214400  0.99854200  0.95282500  1
  C  2180  1  0.56019200  0.97390700  0.95522500  1
  C  2181  1  0.57179600  0.95974300  0.97574200  1
  C  2182  1  0.59420300  0.96966900  0.99387600  1
  C  2187  1  0.57648000  0.02553600  0.03253900  1
  C  2188  1  0.60565200  0.95432200  0.01553100  1
  C  2197  1  0.69522100  0.04380200  0.05986100  1
  C  2200  1  0.53640200  0.96409500  0.93594300  1
  C  2203  1  0.17467100  0.72006000  0.21101200  1
  C  2204  1  0.13910100  0.71813800  0.20753300  1
  C  2205  1  0.11552000  0.72972500  0.22372400  1
  C  2206  1  0.12826100  0.74399800  0.24399400  1
  C  2207  1  0.16382100  0.74618000  0.24742800  1
  C  2208  1  0.18670700  0.73440500  0.23113800  1
  C  2211  1  0.10642600  0.75574700  0.26152200  1
  C  2212  1  0.09468800  0.74136900  0.28174700  1
  C  2213  1  0.07178600  0.75141200  0.29908100  1
  C  2214  1  0.05988500  0.77607300  0.29679400  1
  C  2215  1  0.07198700  0.79043300  0.27656700  1
  C  2216  1  0.09488400  0.78069100  0.25864600  1
  C  2221  1  0.07858300  0.72605700  0.21846100  1
  C  2222  1  0.10689500  0.79625000  0.23730900  1
  C  2231  1  0.19826800  0.70682900  0.19386500  1
  C  2234  1  0.03559500  0.78566900  0.31587600  1
  C  2237  1  0.29926600  0.22126300  0.54016800  1
  C  2238  1  0.33475100  0.21870800  0.54367200  1
  C  2239  1  0.35873800  0.23014600  0.52768700  1
  C  2240  1  0.34653300  0.24483800  0.50753300  1
  C  2241  1  0.31105800  0.24759100  0.50404200  1
  C  2242  1  0.28775400  0.23600600  0.52016200  1
  C  2245  1  0.36884400  0.25650200  0.49024300  1
  C  2246  1  0.38163400  0.24189000  0.47052900  1
  C  2247  1  0.40551900  0.25169600  0.45377300  1
  C  2248  1  0.41728300  0.27639600  0.45606000  1
  C  2249  1  0.40402900  0.29102900  0.47569000  1
  C  2250  1  0.38020600  0.28149800  0.49308800  1
  C  2255  1  0.39553200  0.22592700  0.53307700  1
  C  2256  1  0.36728100  0.29727200  0.51397700  1
  C  2265  1  0.27519800  0.20829600  0.55718200  1
  C  2268  1  0.44332800  0.28552300  0.43799300  1
  C  2271  1  0.80055500  0.52975700  0.70783800  1
  C  2272  1  0.83622100  0.53236300  0.70553100  1
  C  2273  1  0.85917200  0.52101300  0.72235200  1
  C  2274  1  0.84567300  0.50637300  0.74209200  1
  C  2275  1  0.81002000  0.50362900  0.74443500  1
  C  2276  1  0.78775800  0.51514200  0.72751100  1
  C  2279  1  0.86686400  0.49448400  0.75992100  1
  C  2280  1  0.87800500  0.50868400  0.78045100  1
  C  2281  1  0.90055500  0.49852400  0.79796200  1
  C  2282  1  0.91270100  0.47394100  0.79551700  1
  C  2283  1  0.90109500  0.45974100  0.77502800  1
  C  2284  1  0.87855700  0.46959400  0.75694100  1
  C  2289  1  0.89626500  0.52523300  0.71820600  1
  C  2290  1  0.86714200  0.45420300  0.73530500  1
  C  2299  1  0.77766400  0.54261600  0.68993900  1
  C  2302  1  0.93675100  0.46422700  0.81468400  1
  C  2305  1  0.05324500  0.28059600  0.79102200  1
  C  2306  1  0.08886800  0.28281400  0.79398000  1
  C  2307  1  0.11215700  0.27118900  0.77759900  1
  C  2308  1  0.09908200  0.25665500  0.75762500  1
  C  2309  1  0.06346700  0.25422700  0.75468800  1
  C  2310  1  0.04085800  0.26599300  0.77119800  1
  C  2313  1  0.12069500  0.24496600  0.73990400  1
  C  2314  1  0.13281300  0.25959400  0.71997600  1
  C  2315  1  0.15629000  0.24985000  0.70288700  1
  C  2316  1  0.16841100  0.22523900  0.70511800  1
  C  2317  1  0.15573300  0.21056200  0.72492000  1
  C  2318  1  0.13224800  0.22000200  0.74260200  1
  C  2323  1  0.14917000  0.27510100  0.78238400  1
  C  2324  1  0.11986300  0.20418700  0.76363400  1
  C  2333  1  0.03001500  0.29383700  0.80841900  1
  C  2336  1  0.19419400  0.21625600  0.68678900  1
  C  2339  1  0.92362700  0.78069500  0.46124100  1
  C  2340  1  0.88809100  0.78276900  0.45768100  1
  C  2341  1  0.86433200  0.77123500  0.47377400  1
  C  2342  1  0.87682600  0.75685900  0.49405800  1
  C  2343  1  0.91235200  0.75455000  0.49760000  1
  C  2344  1  0.93542400  0.76627000  0.48139400  1
  C  2347  1  0.85471900  0.74512600  0.51143700  1
  C  2348  1  0.84231900  0.75963500  0.53135900  1
  C  2349  1  0.81842600  0.74984500  0.54811700  1
  C  2350  1  0.80618000  0.72529500  0.54557600  1
  C  2351  1  0.81910200  0.71074400  0.52576500  1
  C  2352  1  0.84299400  0.72024000  0.50840100  1
  C  2357  1  0.82745900  0.77505600  0.46837100  1
  C  2358  1  0.85565700  0.70454900  0.48736700  1
  C  2367  1  0.94741800  0.79371900  0.44405800  1
  C  2370  1  0.77998400  0.71625400  0.56356800  1
  C  2373  1  0.42187500  0.47050700  0.29215000  1
  C  2374  1  0.38623400  0.46791400  0.29467700  1
  C  2375  1  0.36310400  0.47944400  0.27811000  1
  C  2376  1  0.37638500  0.49420500  0.25838200  1
  C  2377  1  0.41201000  0.49698600  0.25587200  1
  C  2378  1  0.43445600  0.48533900  0.27256900  1
  C  2381  1  0.35504900  0.50587800  0.24049300  1
  C  2382  1  0.34375800  0.49139400  0.22020500  1
  C  2383  1  0.32128900  0.50136300  0.20253400  1
  C  2384  1  0.30939000  0.52604600  0.20454400  1
  C  2385  1  0.32107800  0.54051700  0.22482300  1
  C  2386  1  0.34352700  0.53085500  0.24308100  1
  C  2391  1  0.32605200  0.47523700  0.28245500  1
  C  2392  1  0.35504100  0.54652200  0.26448700  1
  C  2401  1  0.44497800  0.45726700  0.30961500  1
  C  2404  1  0.28558500  0.53557400  0.18511500  1
  C  2407  1  0.17195700  0.02955800  0.54267400  1
  C  2408  1  0.13631400  0.03224500  0.54507600  1
  C  2409  1  0.11322600  0.02097400  0.52829700  1
  C  2410  1  0.12654000  0.00635400  0.50847400  1
  C  2411  1  0.16217400  0.00351400  0.50605300  1
  C  2412  1  0.18457400  0.01492200  0.52295200  1
  C  2415  1  0.10522000  0.99474000  0.49052600  1
  C  2416  1  0.09402600  0.00925100  0.47023000  1
  C  2417  1  0.07147500  0.99935800  0.45256700  1
  C  2418  1  0.05939100  0.97472200  0.45458800  1
  C  2419  1  0.07100500  0.96021500  0.47485900  1
  C  2420  1  0.09353700  0.96979900  0.49310800  1
  C  2425  1  0.07617200  0.02525500  0.53256600  1
  C  2426  1  0.10495500  0.95408900  0.51451000  1
  C  2435  1  0.19501400  0.04237700  0.56049900  1
  C  2438  1  0.03539900  0.96529800  0.43522100  1
  C  2441  1  0.67538700  0.72077600  0.71013200  1
  C  2442  1  0.63984300  0.71831600  0.70685800  1
  C  2443  1  0.61612000  0.72971200  0.72307700  1
  C  2444  1  0.62868000  0.74427700  0.74320000  1
  C  2445  1  0.66421000  0.74693000  0.74646700  1
  C  2446  1  0.68724300  0.73537700  0.73013100  1
  C  2449  1  0.60671800  0.75600800  0.76065700  1
  C  2450  1  0.59469500  0.74160700  0.78077600  1
  C  2451  1  0.57178300  0.75170400  0.79807500  1
  C  2452  1  0.56021700  0.77646000  0.79588500  1
  C  2453  1  0.57257200  0.79082500  0.77574700  1
  C  2454  1  0.59543600  0.78102200  0.75784100  1
  C  2459  1  0.57923200  0.72561100  0.71795400  1
  C  2460  1  0.60763000  0.79659000  0.73656500  1
  C  2469  1  0.69917400  0.70780700  0.69293000  1
  C  2472  1  0.53598700  0.78615300  0.81495800  1
  C  2475  1  0.80161300  0.22054300  0.04218400  1
  C  2476  1  0.83725300  0.21806000  0.04481300  1
  C  2477  1  0.86040100  0.22963800  0.02829400  1
  C  2478  1  0.84713700  0.24434000  0.00851400  1
  C  2479  1  0.81150700  0.24699800  0.00589400  1
  C  2480  1  0.78904200  0.23530300  0.02254400  1
  C  2483  1  0.86849900  0.25611000  0.99070800  1
  C  2484  1  0.88030100  0.24163100  0.97057400  1
  C  2485  1  0.90281300  0.25172200  0.95300200  1
  C  2486  1  0.91418500  0.27654500  0.95493100  1
  C  2487  1  0.90200900  0.29100000  0.97506700  1
  C  2488  1  0.87955500  0.28120400  0.99324900  1
  C  2493  1  0.89744900  0.22555000  0.03275200  1
  C  2494  1  0.86758200  0.29685000  0.01453500  1
  C  2503  1  0.77850900  0.20727300  0.05962000  1
  C  2506  1  0.93800100  0.28622000  0.93558200  1
  C  2509  1  0.55245000  0.28017400  0.29164300  1
  C  2510  1  0.58803800  0.28282300  0.29445800  1
  C  2511  1  0.61146600  0.27127800  0.27812400  1
  C  2512  1  0.59856900  0.25645000  0.25830200  1
  C  2513  1  0.56299000  0.25365200  0.25547400  1
  C  2514  1  0.54024100  0.26531100  0.27195500  1
  C  2517  1  0.62031400  0.24465200  0.24073500  1
  C  2518  1  0.63293700  0.25921800  0.22092800  1
  C  2519  1  0.65654900  0.24932600  0.20402000  1
  C  2520  1  0.66819500  0.22459600  0.20625600  1
  C  2521  1  0.65502800  0.20999100  0.22594000  1
  C  2522  1  0.63148500  0.21960100  0.24348700  1
  C  2527  1  0.64842900  0.27552400  0.28283600  1
  C  2528  1  0.61870500  0.20386500  0.26445400  1
  C  2537  1  0.52904700  0.29324900  0.30903700  1
  C  2540  1  0.69407400  0.21540500  0.18810600  1
  C  2543  1  0.42125400  0.78102500  0.95930000  1
  C  2544  1  0.38558000  0.78316900  0.95660800  1
  C  2545  1  0.36257900  0.77155300  0.97321000  1
  C  2546  1  0.37603100  0.75711000  0.99311000  1
  C  2547  1  0.41169500  0.75476200  0.99578300  1
  C  2548  1  0.43400800  0.76652800  0.97907400  1
  C  2551  1  0.35479400  0.74530100  0.01096900  1
  C  2552  1  0.34333300  0.75969600  0.03126600  1
  C  2553  1  0.32080100  0.74962300  0.04883700  1
  C  2554  1  0.30899800  0.72492500  0.04670200  1
  C  2555  1  0.32089700  0.71053400  0.02643400  1
  C  2556  1  0.34342500  0.72029800  0.00828200  1
  C  2561  1  0.32547700  0.77535700  0.96872000  1
  C  2562  1  0.35516800  0.70471300  0.98688400  1
  C  2571  1  0.44418400  0.79428500  0.94172300  1
  C  2574  1  0.28499400  0.71531900  0.06596000  1
  C  2577  1  0.17415700  0.53049500  0.03986200  1
  C  2578  1  0.13862300  0.53245100  0.04350600  1
  C  2579  1  0.11488100  0.52070100  0.02756000  1
  C  2580  1  0.12740900  0.50621700  0.00736600  1
  C  2581  1  0.16293200  0.50403200  0.00374100  1
  C  2582  1  0.18598400  0.51598300  0.01978600  1
  C  2585  1  0.10534200  0.49414400  0.99021200  1
  C  2586  1  0.09255700  0.50833600  0.97019500  1
  C  2587  1  0.06886900  0.49810700  0.95354800  1
  C  2588  1  0.05727000  0.47341300  0.95628500  1
  C  2589  1  0.07052600  0.45920200  0.97622200  1
  C  2590  1  0.09417600  0.46915400  0.99349800  1
  C  2595  1  0.07800300  0.52441400  0.03301800  1
  C  2596  1  0.10716200  0.45381600  0.01469000  1
  C  2605  1  0.19791400  0.54376300  0.05686900  1
  C  2608  1  0.03143800  0.46382400  0.93830900  1
  C  2611  1  0.29860100  0.03011400  0.71020500  1
  C  2612  1  0.33417100  0.03206600  0.70675600  1
  C  2613  1  0.35777500  0.02056900  0.72299000  1
  C  2614  1  0.34508000  0.00631700  0.74329500  1
  C  2615  1  0.30952000  0.00416200  0.74676000  1
  C  2616  1  0.28660800  0.01588400  0.73043400  1
  C  2619  1  0.36703400  0.99429400  0.76057200  1
  C  2620  1  0.37976800  0.00855900  0.78055500  1
  C  2621  1  0.40364200  0.99846000  0.79714800  1
  C  2622  1  0.41548000  0.97382900  0.79438900  1
  C  2623  1  0.40221700  0.95952700  0.77452000  1
  C  2624  1  0.37839300  0.96934900  0.75729600  1
  C  2629  1  0.39469900  0.02425600  0.71767100  1
  C  2630  1  0.36544600  0.95392000  0.73615600  1
  C  2639  1  0.27498900  0.04294600  0.69273900  1
  C  2642  1  0.44164600  0.96441800  0.81220600  1
  C  2645  1  0.92373700  0.97024900  0.28983600  1
  C  2646  1  0.88822300  0.96823000  0.29354800  1
  C  2647  1  0.86437300  0.97984700  0.27758400  1
  C  2648  1  0.87675200  0.99422500  0.25726300  1
  C  2649  1  0.91225800  0.99647300  0.25357200  1
  C  2650  1  0.93541900  0.98468300  0.26965500  1
  C  2653  1  0.85456400  0.00606200  0.24001000  1
  C  2654  1  0.84157800  0.99156500  0.22028100  1
  C  2655  1  0.81772700  0.00153100  0.20359400  1
  C  2656  1  0.80618600  0.02627700  0.20597200  1
  C  2657  1  0.81963900  0.04079400  0.22561700  1
  C  2658  1  0.84343400  0.03110400  0.24294600  1
  C  2663  1  0.82753200  0.97612300  0.28316400  1
  C  2664  1  0.85658900  0.04676400  0.26384200  1
  C  2673  1  0.94763100  0.95715500  0.30688900  1
  C  2676  1  0.78015600  0.03557600  0.18798300  1
  C  2679  1  0.67388900  0.52972300  0.54001100  1
  C  2680  1  0.63835900  0.53173800  0.54363300  1
  C  2681  1  0.61456100  0.52035900  0.52745900  1
  C  2682  1  0.62700600  0.50618700  0.50701400  1
  C  2683  1  0.66252700  0.50396300  0.50338500  1
  C  2684  1  0.68563400  0.51554600  0.51966700  1
  C  2687  1  0.60485200  0.49441100  0.48968600  1
  C  2688  1  0.59202700  0.50893300  0.46991800  1
  C  2689  1  0.56817000  0.49902900  0.45319300  1
  C  2690  1  0.55645200  0.47432600  0.45557300  1
  C  2691  1  0.56975900  0.45978000  0.47524800  1
  C  2692  1  0.59356200  0.46940500  0.49260800  1
  C  2697  1  0.57770200  0.52407500  0.53298600  1
  C  2698  1  0.60656100  0.45370800  0.51353200  1
  C  2707  1  0.69772700  0.54244700  0.55740200  1
  C  2710  1  0.53040400  0.46509900  0.43755500  1
  N  38  1  0.15866600  0.06204300  0.19170300  1
  N  40  1  0.08008700  0.07090800  0.05568700  1
  N  42  1  0.09376300  0.18897000  0.19177900  1
  N  44  1  0.17159600  0.18014100  0.05555600  1
  N  83  1  0.66192500  0.68936100  0.06156500  1
  N  85  1  0.58307300  0.67961000  0.19744800  1
  N  87  1  0.58261200  0.57098600  0.05338500  1
  N  89  1  0.66249100  0.56155300  0.18933100  1
  N  128  1  0.59499000  0.19011700  0.69072700  1
  N  130  1  0.66721600  0.18105300  0.55316600  1
  N  132  1  0.66802300  0.07026900  0.69556400  1
  N  134  1  0.58053700  0.06961200  0.55689800  1
  N  173  1  0.08309500  0.56979400  0.55451800  1
  N  175  1  0.17052900  0.56984100  0.69339700  1
  N  177  1  0.15718700  0.69015100  0.55939600  1
  N  179  1  0.08498500  0.68057600  0.69689200  1
  N  218  1  0.33274500  0.92988700  0.30345600  1
  N  220  1  0.41259800  0.81165400  0.31148900  1
  N  222  1  0.41207900  0.93936700  0.43944000  1
  N  224  1  0.33258900  0.82100200  0.44740600  1
  N  263  1  0.82852600  0.82144600  0.94523600  1
  N  265  1  0.91314700  0.93824400  0.94064800  1
  N  267  1  0.91389300  0.81240700  0.81089800  1
  N  269  1  0.84170500  0.93814700  0.80794200  1
  N  308  1  0.90867200  0.43867700  0.44128000  1
  N  310  1  0.84304900  0.31196800  0.44157600  1
  N  312  1  0.83022600  0.43013100  0.30541500  1
  N  314  1  0.92178500  0.32044400  0.30518600  1
  N  353  1  0.42355200  0.32102200  0.80493200  1
  N  355  1  0.33834800  0.43847100  0.80985600  1
  N  357  1  0.33804000  0.31251300  0.93945600  1
  N  359  1  0.40976700  0.43746700  0.94248800  1
  N  942  1  0.46415800  0.06204300  0.19170300  1
  N  944  1  0.38557900  0.07090800  0.05568700  1
  N  946  1  0.39925500  0.18897000  0.19177900  1
  N  948  1  0.47708800  0.18014100  0.05555600  1
  N  987  1  0.96741700  0.68936100  0.06156500  1
  N  989  1  0.88856500  0.67961000  0.19744800  1
  N  991  1  0.88810400  0.57098600  0.05338500  1
  N  993  1  0.96798300  0.56155300  0.18933100  1
  N  1032  1  0.90048200  0.19011700  0.69072700  1
  N  1034  1  0.97270800  0.18105300  0.55316600  1
  N  1036  1  0.97351500  0.07026900  0.69556400  1
  N  1038  1  0.88602900  0.06961200  0.55689800  1
  N  1077  1  0.38858700  0.56979400  0.55451800  1
  N  1079  1  0.47602100  0.56984100  0.69339700  1
  N  1081  1  0.46267900  0.69015100  0.55939600  1
  N  1083  1  0.39047700  0.68057600  0.69689200  1
  N  1122  1  0.63823700  0.92988700  0.30345600  1
  N  1124  1  0.71809000  0.81165400  0.31148900  1
  N  1126  1  0.71757100  0.93936700  0.43944000  1
  N  1128  1  0.63808100  0.82100200  0.44740600  1
  N  1167  1  0.13401800  0.82144600  0.94523600  1
  N  1169  1  0.21863900  0.93824400  0.94064800  1
  N  1171  1  0.21938500  0.81240700  0.81089800  1
  N  1173  1  0.14719700  0.93814700  0.80794200  1
  N  1212  1  0.21416400  0.43867700  0.44128000  1
  N  1214  1  0.14854100  0.31196800  0.44157600  1
  N  1216  1  0.13571800  0.43013100  0.30541500  1
  N  1218  1  0.22727700  0.32044400  0.30518600  1
  N  1257  1  0.72904400  0.32102200  0.80493200  1
  N  1259  1  0.64384000  0.43847100  0.80985600  1
  N  1261  1  0.64353200  0.31251300  0.93945600  1
  N  1263  1  0.71525900  0.43746700  0.94248800  1
  N  1846  1  0.76965000  0.06204300  0.19170300  1
  N  1848  1  0.69107100  0.07090800  0.05568700  1
  N  1850  1  0.70474700  0.18897000  0.19177900  1
  N  1852  1  0.78258000  0.18014100  0.05555600  1
  N  1891  1  0.27290900  0.68936100  0.06156500  1
  N  1893  1  0.19405700  0.67961000  0.19744800  1
  N  1895  1  0.19359600  0.57098600  0.05338500  1
  N  1897  1  0.27347500  0.56155300  0.18933100  1
  N  1936  1  0.20597400  0.19011700  0.69072700  1
  N  1938  1  0.27820000  0.18105300  0.55316600  1
  N  1940  1  0.27900700  0.07026900  0.69556400  1
  N  1942  1  0.19152100  0.06961200  0.55689800  1
  N  1981  1  0.69407900  0.56979400  0.55451800  1
  N  1983  1  0.78151300  0.56984100  0.69339700  1
  N  1985  1  0.76817100  0.69015100  0.55939600  1
  N  1987  1  0.69596900  0.68057600  0.69689200  1
  N  2026  1  0.94372900  0.92988700  0.30345600  1
  N  2028  1  0.02358200  0.81165400  0.31148900  1
  N  2030  1  0.02306300  0.93936700  0.43944000  1
  N  2032  1  0.94357300  0.82100200  0.44740600  1
  N  2071  1  0.43951000  0.82144600  0.94523600  1
  N  2073  1  0.52413100  0.93824400  0.94064800  1
  N  2075  1  0.52487700  0.81240700  0.81089800  1
  N  2077  1  0.45268900  0.93814700  0.80794200  1
  N  2116  1  0.51965600  0.43867700  0.44128000  1
  N  2118  1  0.45403300  0.31196800  0.44157600  1
  N  2120  1  0.44121000  0.43013100  0.30541500  1
  N  2122  1  0.53276900  0.32044400  0.30518600  1
  N  2161  1  0.03453600  0.32102200  0.80493200  1
  N  2163  1  0.94933200  0.43847100  0.80985600  1
  N  2165  1  0.94902400  0.31251300  0.93945600  1
  N  2167  1  0.02075100  0.43746700  0.94248800  1
  O  381  1  0.98048000  0.92985200  0.01767000  1
  O  385  1  0.95776900  0.05119100  0.02825900  1
  O  415  1  0.48178700  0.82074500  0.23522800  1
  O  419  1  0.45916500  0.70040000  0.22194500  1
  O  449  1  0.77041300  0.32175700  0.51619100  1
  O  453  1  0.79241900  0.20024400  0.52913200  1
  O  483  1  0.27044000  0.42976100  0.73317400  1
  O  487  1  0.29284500  0.55096900  0.72214200  1
  O  517  1  0.52297500  0.17967200  0.76556500  1
  O  521  1  0.54633000  0.30072300  0.77832400  1
  O  551  1  0.23045100  0.68010000  0.48510300  1
  O  555  1  0.20817700  0.80071700  0.47200900  1
  O  585  1  0.72984700  0.57101200  0.26629600  1
  O  589  1  0.70736700  0.44956600  0.27826100  1
  O  619  1  0.47963600  0.92963800  0.51630200  1
  O  623  1  0.45768400  0.05100600  0.52867700  1
  O  653  1  0.98258300  0.82110000  0.73445300  1
  O  657  1  0.96034800  0.69989600  0.72167400  1
  O  687  1  0.27046800  0.32144200  0.01636200  1
  O  691  1  0.29433700  0.19990200  0.02857800  1
  O  721  1  0.02165100  0.17931300  0.26654700  1
  O  725  1  0.04520900  0.30116000  0.27848800  1
  O  755  1  0.73020600  0.68015600  0.98501400  1
  O  759  1  0.70631400  0.80099600  0.97262600  1
  O  789  1  0.48235700  0.42927600  0.01726100  1
  O  793  1  0.45851600  0.55001500  0.02922200  1
  O  823  1  0.76839200  0.92940600  0.73363700  1
  O  827  1  0.79210600  0.04992400  0.72114400  1
  O  857  1  0.23178100  0.07133400  0.26611000  1
  O  861  1  0.20806900  0.95050100  0.27948600  1
  O  891  1  0.98163100  0.42917400  0.51577100  1
  O  895  1  0.95836500  0.54977200  0.52968800  1
  O  1285  1  0.28597200  0.92985200  0.01767000  1
  O  1289  1  0.26326100  0.05119100  0.02825900  1
  O  1319  1  0.78727900  0.82074500  0.23522800  1
  O  1323  1  0.76465700  0.70040000  0.22194500  1
  O  1353  1  0.07590500  0.32175700  0.51619100  1
  O  1357  1  0.09791100  0.20024400  0.52913200  1
  O  1387  1  0.57593200  0.42976100  0.73317400  1
  O  1391  1  0.59833700  0.55096900  0.72214200  1
  O  1421  1  0.82846700  0.17967200  0.76556500  1
  O  1425  1  0.85182200  0.30072300  0.77832400  1
  O  1455  1  0.53594300  0.68010000  0.48510300  1
  O  1459  1  0.51366900  0.80071700  0.47200900  1
  O  1489  1  0.03533900  0.57101200  0.26629600  1
  O  1493  1  0.01285900  0.44956600  0.27826100  1
  O  1523  1  0.78512800  0.92963800  0.51630200  1
  O  1527  1  0.76317600  0.05100600  0.52867700  1
  O  1557  1  0.28807500  0.82110000  0.73445300  1
  O  1561  1  0.26584000  0.69989600  0.72167400  1
  O  1591  1  0.57596000  0.32144200  0.01636200  1
  O  1595  1  0.59982900  0.19990200  0.02857800  1
  O  1625  1  0.32714300  0.17931300  0.26654700  1
  O  1629  1  0.35070100  0.30116000  0.27848800  1
  O  1659  1  0.03569800  0.68015600  0.98501400  1
  O  1663  1  0.01180600  0.80099600  0.97262600  1
  O  1693  1  0.78784900  0.42927600  0.01726100  1
  O  1697  1  0.76400800  0.55001500  0.02922200  1
  O  1727  1  0.07388400  0.92940600  0.73363700  1
  O  1731  1  0.09759800  0.04992400  0.72114400  1
  O  1761  1  0.53727300  0.07133400  0.26611000  1
  O  1765  1  0.51356100  0.95050100  0.27948600  1
  O  1795  1  0.28712300  0.42917400  0.51577100  1
  O  1799  1  0.26385700  0.54977200  0.52968800  1
  O  2189  1  0.59146400  0.92985200  0.01767000  1
  O  2193  1  0.56875300  0.05119100  0.02825900  1
  O  2223  1  0.09277100  0.82074500  0.23522800  1
  O  2227  1  0.07014900  0.70040000  0.22194500  1
  O  2257  1  0.38139700  0.32175700  0.51619100  1
  O  2261  1  0.40340300  0.20024400  0.52913200  1
  O  2291  1  0.88142400  0.42976100  0.73317400  1
  O  2295  1  0.90382900  0.55096900  0.72214200  1
  O  2325  1  0.13395900  0.17967200  0.76556500  1
  O  2329  1  0.15731400  0.30072300  0.77832400  1
  O  2359  1  0.84143500  0.68010000  0.48510300  1
  O  2363  1  0.81916100  0.80071700  0.47200900  1
  O  2393  1  0.34083100  0.57101200  0.26629600  1
  O  2397  1  0.31835100  0.44956600  0.27826100  1
  O  2427  1  0.09062000  0.92963800  0.51630200  1
  O  2431  1  0.06866800  0.05100600  0.52867700  1
  O  2461  1  0.59356700  0.82110000  0.73445300  1
  O  2465  1  0.57133200  0.69989600  0.72167400  1
  O  2495  1  0.88145200  0.32144200  0.01636200  1
  O  2499  1  0.90532100  0.19990200  0.02857800  1
  O  2529  1  0.63263500  0.17931300  0.26654700  1
  O  2533  1  0.65619300  0.30116000  0.27848800  1
  O  2563  1  0.34119000  0.68015600  0.98501400  1
  O  2567  1  0.31729800  0.80099600  0.97262600  1
  O  2597  1  0.09334100  0.42927600  0.01726100  1
  O  2601  1  0.06950000  0.55001500  0.02922200  1
  O  2631  1  0.37937600  0.92940600  0.73363700  1
  O  2635  1  0.40309000  0.04992400  0.72114400  1
  O  2665  1  0.84276500  0.07133400  0.26611000  1
  O  2669  1  0.81905300  0.95050100  0.27948600  1
  O  2699  1  0.59261500  0.42917400  0.51577100  1
  O  2703  1  0.56934900  0.54977200  0.52968800  1
