# generated using pymatgen
data_H15C22
_symmetry_space_group_name_H-M   'P 1'
_cell_length_a   61.27440000
_cell_length_b   61.27450000
_cell_length_c   72.02870000
_cell_angle_alpha   90.00000000
_cell_angle_beta   90.00000000
_cell_angle_gamma   89.99600000
_symmetry_Int_Tables_number   1
_chemical_formula_structural   H15C22
_chemical_formula_sum   'H1920 C2816'
_cell_volume   270435.94720356
_cell_formula_units_Z   128
loop_
 _symmetry_equiv_pos_site_id
 _symmetry_equiv_pos_as_xyz
  1  'x, y, z'
loop_
 _atom_site_type_symbol
 _atom_site_label
 _atom_site_symmetry_multiplicity
 _atom_site_fract_x
 _atom_site_fract_y
 _atom_site_fract_z
 _atom_site_occupancy
  H  9  1  0.53127300  0.86479400  0.09476600  1
  H  17  1  0.65395700  0.92057300  0.04110900  1
  H  19  1  0.63939000  0.87408000  0.09286600  1
  H  20  1  0.60760100  0.86138700  0.10749100  1
  H  21  1  0.57785700  0.92469400  0.02938400  1
  H  22  1  0.54670000  0.90742300  0.04116400  1
  H  31  1  0.41079200  0.63443500  0.59481400  1
  H  39  1  0.28806400  0.57870800  0.54113800  1
  H  41  1  0.30267300  0.62517300  0.59292900  1
  H  42  1  0.33446600  0.63783800  0.60755600  1
  H  43  1  0.36417900  0.57464500  0.52935800  1
  H  44  1  0.39534300  0.59187900  0.54116900  1
  H  53  1  0.08412500  0.19049300  0.84620700  1
  H  61  1  0.13860500  0.06783200  0.79159300  1
  H  63  1  0.09209600  0.08225500  0.84338900  1
  H  64  1  0.08016300  0.11409600  0.85855500  1
  H  65  1  0.14382700  0.14390900  0.78065700  1
  H  66  1  0.12680200  0.17514300  0.79261600  1
  H  75  1  0.85798200  0.30889600  0.34617600  1
  H  83  1  0.80339900  0.43151700  0.29160300  1
  H  85  1  0.85000100  0.41712800  0.34332000  1
  H  86  1  0.86197600  0.38529800  0.35848100  1
  H  87  1  0.79809000  0.35542900  0.28073800  1
  H  88  1  0.81514600  0.32420300  0.29267600  1
  H  97  1  0.53082700  0.63327100  0.48416400  1
  H  105  1  0.65379500  0.57730600  0.53717900  1
  H  107  1  0.63893100  0.62510900  0.48635200  1
  H  108  1  0.60708700  0.63789800  0.47191100  1
  H  109  1  0.57751200  0.57149500  0.54809300  1
  H  110  1  0.54625000  0.58850300  0.53638500  1
  H  119  1  0.41122800  0.86608800  0.98413800  1
  H  127  1  0.28823700  0.92209300  0.03708200  1
  H  129  1  0.30312400  0.87424000  0.98628700  1
  H  130  1  0.33497500  0.86144800  0.97186200  1
  H  131  1  0.36451800  0.92790100  0.04802800  1
  H  132  1  0.39577900  0.91087700  0.03634300  1
  H  141  1  0.08529700  0.30846900  0.73292200  1
  H  149  1  0.13977000  0.43153400  0.78683400  1
  H  151  1  0.09208000  0.41670900  0.73589600  1
  H  152  1  0.08010600  0.38478200  0.72090600  1
  H  153  1  0.14672900  0.35532800  0.79701000  1
  H  154  1  0.13000400  0.32396200  0.78513300  1
  H  163  1  0.85677500  0.19090000  0.23292800  1
  H  171  1  0.80223700  0.06786800  0.28681500  1
  H  173  1  0.84998200  0.08266200  0.23593100  1
  H  174  1  0.86198500  0.11458200  0.22094400  1
  H  175  1  0.79520700  0.14407500  0.29693200  1
  H  176  1  0.81195400  0.17544000  0.28506700  1
  H  185  1  0.41073100  0.14226600  0.98305600  1
  H  193  1  0.29316000  0.07334000  0.03255700  1
  H  195  1  0.30412900  0.12166100  0.98186900  1
  H  196  1  0.33497200  0.13759700  0.96804200  1
  H  197  1  0.36635600  0.08503700  0.05143600  1
  H  198  1  0.39617400  0.10505300  0.03983400  1
  H  207  1  0.53131700  0.35711700  0.48302700  1
  H  215  1  0.64895300  0.42593000  0.53252800  1
  H  217  1  0.63794400  0.37761700  0.48183900  1
  H  218  1  0.60708100  0.36171700  0.46800700  1
  H  219  1  0.57575500  0.41431400  0.55140200  1
  H  220  1  0.54591500  0.39432700  0.53980200  1
  H  229  1  0.85878000  0.80888600  0.23365600  1
  H  237  1  0.80176100  0.93257700  0.28417400  1
  H  239  1  0.85869900  0.91684200  0.24085500  1
  H  240  1  0.87003100  0.88497500  0.22531600  1
  H  241  1  0.79248300  0.85604800  0.29380500  1
  H  242  1  0.81010400  0.82458100  0.28327200  1
  H  251  1  0.08333500  0.69049800  0.73364900  1
  H  259  1  0.14029400  0.56681900  0.78420300  1
  H  261  1  0.08336000  0.58255200  0.74089500  1
  H  262  1  0.07204200  0.61441300  0.72534300  1
  H  263  1  0.14962700  0.64333800  0.79379900  1
  H  264  1  0.13204600  0.67481400  0.78323500  1
  H  273  1  0.41118000  0.35798100  0.59485000  1
  H  281  1  0.29335000  0.42696500  0.54590900  1
  H  283  1  0.30450300  0.37769500  0.59589600  1
  H  284  1  0.33539800  0.36171700  0.60956700  1
  H  285  1  0.36682600  0.41651900  0.52726500  1
  H  286  1  0.39680900  0.39686300  0.53880500  1
  H  295  1  0.53087600  0.14133100  0.09488400  1
  H  303  1  0.64877000  0.07244500  0.04591000  1
  H  305  1  0.63758000  0.12173100  0.09589700  1
  H  306  1  0.60667000  0.13767000  0.10958100  1
  H  307  1  0.57525000  0.08275800  0.02732700  1
  H  308  1  0.54525400  0.10239800  0.03886800  1
  H  317  1  0.85687600  0.69100500  0.34419500  1
  H  325  1  0.80080400  0.56651700  0.29437900  1
  H  327  1  0.85834900  0.58307100  0.33688700  1
  H  328  1  0.86957600  0.61511600  0.35223500  1
  H  329  1  0.78942900  0.64301400  0.28570300  1
  H  330  1  0.80657500  0.67475200  0.29622100  1
  H  339  1  0.08519800  0.80837200  0.84419400  1
  H  347  1  0.14122900  0.93283100  0.79432500  1
  H  349  1  0.08368600  0.91629300  0.83682900  1
  H  350  1  0.07247300  0.88425600  0.85219900  1
  H  351  1  0.15261100  0.85634700  0.78566000  1
  H  352  1  0.13550400  0.82460200  0.79622200  1
  H  361  1  0.03119300  0.35576200  0.59254400  1
  H  369  1  0.15394100  0.42128400  0.54798600  1
  H  371  1  0.13944200  0.36380000  0.59074500  1
  H  372  1  0.10766200  0.35009000  0.60473000  1
  H  373  1  0.07760900  0.42715700  0.53632100  1
  H  374  1  0.04668600  0.40736800  0.54509400  1
  H  383  1  0.91088700  0.14363600  0.09254600  1
  H  391  1  0.78812400  0.07813000  0.04799100  1
  H  393  1  0.80264400  0.13563100  0.09074400  1
  H  394  1  0.83442400  0.14933700  0.10472800  1
  H  395  1  0.86445900  0.07219700  0.03636500  1
  H  396  1  0.89538000  0.09198800  0.04512500  1
  H  405  1  0.57443900  0.68837300  0.34308300  1
  H  413  1  0.64920100  0.57124200  0.29868000  1
  H  415  1  0.59985800  0.58287400  0.34846700  1
  H  416  1  0.58244200  0.61356500  0.36098800  1
  H  417  1  0.63666700  0.64359800  0.27803800  1
  H  418  1  0.61556600  0.67328200  0.28838600  1
  H  427  1  0.36767800  0.81101300  0.84302400  1
  H  435  1  0.29294300  0.92816500  0.79864000  1
  H  437  1  0.34225600  0.91650000  0.84844800  1
  H  438  1  0.35968700  0.88580700  0.86094800  1
  H  439  1  0.30543800  0.85580800  0.77800100  1
  H  440  1  0.32652300  0.82611200  0.78835100  1
  H  449  1  0.03059200  0.14151600  0.98632200  1
  H  457  1  0.15392100  0.07732100  0.03104200  1
  H  459  1  0.13894100  0.13526400  0.98883500  1
  H  460  1  0.10706600  0.14870900  0.97481600  1
  H  461  1  0.07746200  0.06988900  0.04181800  1
  H  462  1  0.04627400  0.08911900  0.03279400  1
  H  471  1  0.91151700  0.35788400  0.48628700  1
  H  479  1  0.78813500  0.42204300  0.53097300  1
  H  481  1  0.80317100  0.36409300  0.48876900  1
  H  482  1  0.83505400  0.35066100  0.47475900  1
  H  483  1  0.86460300  0.42947800  0.54179400  1
  H  484  1  0.89579800  0.41026100  0.53277100  1
  H  493  1  0.57565000  0.81040700  0.23580600  1
  H  501  1  0.64987000  0.92778700  0.28022700  1
  H  503  1  0.59986600  0.91611300  0.23094100  1
  H  504  1  0.58256800  0.88538800  0.21843700  1
  H  505  1  0.63847600  0.85507300  0.30046200  1
  H  506  1  0.61785700  0.82521800  0.29001100  1
  H  515  1  0.36649800  0.68890600  0.73585100  1
  H  523  1  0.29216800  0.57160800  0.78027800  1
  H  525  1  0.34218100  0.58322900  0.73098600  1
  H  526  1  0.35953100  0.61393600  0.71849100  1
  H  527  1  0.30361300  0.64431100  0.80049800  1
  H  528  1  0.32424700  0.67415300  0.79003800  1
  H  537  1  0.91048700  0.65157900  0.48516900  1
  H  545  1  0.79299200  0.57575100  0.52690900  1
  H  547  1  0.80343200  0.63307500  0.48354500  1
  H  548  1  0.83438400  0.64934800  0.47025700  1
  H  549  1  0.86675500  0.58360600  0.54628100  1
  H  550  1  0.89639600  0.60545300  0.53704600  1
  H  559  1  0.03153100  0.84778000  0.98515300  1
  H  567  1  0.14905900  0.92361000  0.02685300  1
  H  569  1  0.13858700  0.86624700  0.98351600  1
  H  570  1  0.10762900  0.84997900  0.97023300  1
  H  571  1  0.07529300  0.91577300  0.04623900  1
  H  572  1  0.04564300  0.89393100  0.03701300  1
  H  581  1  0.37035900  0.31197400  0.73724100  1
  H  589  1  0.29298700  0.42853700  0.77872000  1
  H  591  1  0.35069300  0.41879300  0.73544300  1
  H  592  1  0.36776400  0.38798600  0.72254400  1
  H  593  1  0.30284000  0.35527900  0.79895700  1
  H  594  1  0.32478200  0.32578200  0.78958500  1
  H  603  1  0.57161700  0.18738000  0.23727600  1
  H  611  1  0.64893200  0.07080500  0.27879000  1
  H  613  1  0.59125900  0.08056700  0.23548000  1
  H  614  1  0.57419400  0.11137900  0.22257900  1
  H  615  1  0.63912400  0.14407100  0.29899600  1
  H  616  1  0.61720600  0.17358000  0.28960700  1
  H  625  1  0.91119500  0.84939500  0.09273000  1
  H  633  1  0.79310800  0.92418200  0.05103200  1
  H  635  1  0.80391800  0.86637600  0.09386700  1
  H  636  1  0.83499500  0.85035300  0.10716300  1
  H  637  1  0.86710700  0.91742000  0.03192900  1
  H  638  1  0.89702400  0.89612200  0.04131000  1
  H  647  1  0.03082400  0.64999400  0.59274700  1
  H  655  1  0.14896500  0.57528000  0.55105100  1
  H  657  1  0.13811200  0.63310100  0.59386900  1
  H  658  1  0.10702400  0.64910000  0.60717300  1
  H  659  1  0.07495300  0.58196400  0.53196600  1
  H  660  1  0.04502100  0.60324400  0.54134500  1
  H  669  1  0.36870700  0.18798800  0.84088600  1
  H  677  1  0.29220200  0.07098200  0.79942300  1
  H  679  1  0.35060400  0.08094600  0.84198800  1
  H  680  1  0.36747200  0.11183700  0.85490600  1
  H  681  1  0.30090400  0.14455400  0.77954300  1
  H  682  1  0.32229000  0.17429700  0.78908100  1
  H  691  1  0.57326200  0.31141300  0.34085000  1
  H  699  1  0.64975000  0.42839000  0.29931700  1
  H  701  1  0.59139200  0.41844000  0.34193200  1
  H  702  1  0.57451700  0.38755400  0.35485600  1
  H  703  1  0.64106600  0.35480300  0.27949000  1
  H  704  1  0.61969100  0.32506200  0.28905300  1
  H  711  1  0.60513500  0.94015500  0.00863700  1
  H  718  1  0.63954600  0.01842900  0.01110800  1
  H  719  1  0.63936300  0.05672000  0.01664600  1
  H  720  1  0.58361400  0.04949900  0.05026300  1
  H  721  1  0.63289700  0.95358200  0.06086300  1
  H  723  1  0.64277100  0.98828500  0.07074400  1
  H  724  1  0.62180500  0.00679700  0.06521800  1
  H  725  1  0.64684900  0.00740900  0.05285300  1
  H  726  1  0.60103100  0.97863600  0.00313400  1
  H  728  1  0.58203800  0.99606600  0.05506000  1
  H  729  1  0.56752100  0.99817800  0.03382300  1
  H  730  1  0.56308000  0.01733600  0.05166400  1
  H  737  1  0.33678700  0.55920500  0.50862600  1
  H  744  1  0.30249400  0.48096100  0.51119100  1
  H  745  1  0.30267200  0.44267900  0.51666800  1
  H  746  1  0.35853700  0.44980200  0.55015900  1
  H  747  1  0.30934500  0.54571900  0.56096400  1
  H  749  1  0.29956100  0.51099400  0.57086600  1
  H  750  1  0.32053600  0.49251900  0.56526900  1
  H  751  1  0.29543700  0.49186400  0.55298400  1
  H  752  1  0.34092900  0.52073400  0.50310100  1
  H  754  1  0.36018300  0.50321300  0.55499800  1
  H  755  1  0.37462800  0.50113800  0.53372300  1
  H  756  1  0.37912000  0.48194200  0.55152500  1
  H  763  1  0.16052600  0.11648200  0.76049100  1
  H  770  1  0.23708000  0.08087600  0.76489800  1
  H  771  1  0.27547800  0.08037000  0.76996400  1
  H  772  1  0.26985500  0.13580200  0.80417500  1
  H  773  1  0.17098000  0.08861400  0.81317400  1
  H  775  1  0.20507000  0.07823300  0.82425500  1
  H  776  1  0.22424700  0.09881200  0.81936500  1
  H  777  1  0.22487600  0.07380400  0.80696200  1
  H  778  1  0.19929700  0.12002000  0.75635400  1
  H  780  1  0.21609600  0.13821100  0.80949800  1
  H  781  1  0.21870800  0.15304100  0.78846800  1
  H  782  1  0.23788900  0.15663200  0.80643700  1
  H  789  1  0.78144600  0.38280500  0.26052000  1
  H  796  1  0.70489000  0.41852200  0.26478600  1
  H  797  1  0.66647600  0.41899800  0.26980800  1
  H  798  1  0.67211300  0.36365800  0.30413200  1
  H  799  1  0.77098800  0.41091900  0.31311000  1
  H  801  1  0.73690000  0.42138400  0.32414400  1
  H  802  1  0.71770600  0.40080600  0.31929200  1
  H  803  1  0.71711200  0.42577700  0.30683100  1
  H  804  1  0.74267400  0.37931100  0.25637000  1
  H  806  1  0.72587300  0.36135000  0.30953400  1
  H  807  1  0.72329700  0.34645700  0.28853200  1
  H  808  1  0.70410200  0.34289900  0.30649300  1
  H  815  1  0.60510900  0.55777600  0.56977800  1
  H  822  1  0.63977800  0.47933800  0.56762800  1
  H  823  1  0.63960300  0.44108100  0.56199000  1
  H  824  1  0.58354400  0.44833600  0.52875000  1
  H  825  1  0.63305300  0.54392700  0.51770600  1
  H  827  1  0.64289800  0.50912700  0.50802100  1
  H  828  1  0.62194200  0.49067100  0.51369800  1
  H  829  1  0.64702100  0.49015100  0.52602000  1
  H  830  1  0.60113900  0.51933800  0.57556900  1
  H  832  1  0.58200300  0.50173000  0.52396900  1
  H  833  1  0.56761600  0.49969400  0.54527900  1
  H  834  1  0.56301500  0.48051400  0.52748600  1
  H  841  1  0.33694000  0.94154100  0.06972900  1
  H  848  1  0.30229500  0.02002900  0.06764800  1
  H  849  1  0.30248200  0.05826500  0.06201600  1
  H  850  1  0.35856900  0.05099800  0.02881800  1
  H  851  1  0.30900200  0.95555200  0.01768500  1
  H  853  1  0.29916600  0.99038300  0.00807300  1
  H  854  1  0.32015900  0.00879300  0.01377400  1
  H  855  1  0.29508400  0.00933000  0.02610100  1
  H  856  1  0.34094000  0.97996000  0.07558900  1
  H  858  1  0.36008900  0.99763300  0.02403500  1
  H  859  1  0.37448000  0.99961700  0.04534600  1
  H  860  1  0.37910500  0.01881900  0.02757400  1
  H  867  1  0.16180000  0.38307700  0.81804900  1
  H  874  1  0.23857100  0.41878300  0.81370300  1
  H  875  1  0.27691200  0.41923400  0.80839700  1
  H  876  1  0.27101200  0.36351300  0.77456300  1
  H  877  1  0.17249800  0.41107300  0.76545300  1
  H  879  1  0.20665400  0.42140800  0.75447100  1
  H  880  1  0.22576500  0.40078500  0.75944200  1
  H  881  1  0.22641100  0.42582300  0.77180800  1
  H  882  1  0.20055900  0.37961000  0.82235400  1
  H  884  1  0.21725600  0.36124800  0.76944200  1
  H  885  1  0.21986200  0.34652100  0.79052900  1
  H  886  1  0.23897800  0.34274300  0.77253800  1
  H  893  1  0.78015300  0.11636800  0.31800700  1
  H  900  1  0.70340800  0.08053300  0.31375800  1
  H  901  1  0.66505100  0.08009700  0.30850200  1
  H  902  1  0.67093600  0.13575700  0.27458400  1
  H  903  1  0.76949100  0.08817100  0.26548300  1
  H  905  1  0.73534300  0.07776100  0.25452400  1
  H  906  1  0.71620500  0.09836800  0.25946600  1
  H  907  1  0.71559900  0.07335800  0.27187200  1
  H  908  1  0.74139500  0.11978200  0.32231000  1
  H  910  1  0.72469100  0.13795000  0.26938200  1
  H  911  1  0.72211400  0.15272300  0.29044700  1
  H  912  1  0.70298200  0.15647200  0.27246600  1
  H  919  1  0.78140800  0.88394700  0.31655000  1
  H  926  1  0.70314400  0.91933400  0.31518100  1
  H  927  1  0.66473600  0.91879300  0.31025700  1
  H  928  1  0.67160700  0.86295100  0.27671800  1
  H  929  1  0.76763600  0.91310100  0.26495000  1
  H  931  1  0.73271600  0.92325400  0.25549000  1
  H  932  1  0.71411200  0.90239900  0.26113100  1
  H  933  1  0.71393900  0.92734100  0.27365600  1
  H  934  1  0.74299600  0.88040900  0.32252800  1
  H  936  1  0.72497700  0.86220800  0.27073800  1
  H  937  1  0.72363700  0.84755400  0.29195600  1
  H  938  1  0.70405600  0.84295400  0.27448100  1
  H  945  1  0.16068700  0.61547900  0.81657000  1
  H  952  1  0.23891400  0.58000700  0.81517500  1
  H  953  1  0.27731400  0.58056100  0.81030300  1
  H  954  1  0.27047900  0.63637200  0.77672700  1
  H  955  1  0.17440400  0.58624400  0.76499200  1
  H  957  1  0.20931600  0.57603700  0.75553400  1
  H  958  1  0.22792100  0.59690400  0.76113800  1
  H  959  1  0.22811200  0.57198200  0.77369200  1
  H  960  1  0.19910300  0.61899200  0.82252500  1
  H  962  1  0.21712000  0.63707500  0.77068300  1
  H  963  1  0.21841600  0.65177200  0.79188200  1
  H  964  1  0.23802300  0.65634900  0.77442200  1
  H  971  1  0.78016900  0.61506200  0.26196800  1
  H  978  1  0.70165500  0.57944100  0.26323700  1
  H  979  1  0.66332300  0.58009600  0.26838900  1
  H  980  1  0.67054400  0.63619600  0.30155300  1
  H  981  1  0.76615500  0.58548300  0.31333900  1
  H  983  1  0.73117300  0.57532300  0.32265800  1
  H  984  1  0.71265300  0.59624800  0.31699200  1
  H  985  1  0.71244600  0.57132100  0.30444100  1
  H  986  1  0.74179000  0.61850000  0.25580400  1
  H  988  1  0.72395300  0.63666900  0.30733200  1
  H  989  1  0.72260700  0.65127700  0.28608900  1
  H  990  1  0.70312700  0.65603900  0.30361700  1
  H  997  1  0.16196000  0.88429900  0.76193700  1
  H  1004  1  0.24037000  0.91998700  0.76324600  1
  H  1005  1  0.27872400  0.91934600  0.76832300  1
  H  1006  1  0.27158700  0.86328700  0.80156700  1
  H  1007  1  0.17580800  0.91391200  0.81332700  1
  H  1009  1  0.21076200  0.92411200  0.82270500  1
  H  1010  1  0.22933300  0.90322100  0.81706500  1
  H  1011  1  0.22951600  0.92814700  0.80451300  1
  H  1012  1  0.20035700  0.88090400  0.75584300  1
  H  1014  1  0.21817800  0.86282000  0.80743600  1
  H  1015  1  0.21952100  0.84819000  0.78620500  1
  H  1016  1  0.23901900  0.84346700  0.80372500  1
  H  1023  1  0.10554900  0.44154900  0.51539500  1
  H  1030  1  0.13993300  0.51853500  0.51844300  1
  H  1031  1  0.13957400  0.55711900  0.52247600  1
  H  1032  1  0.08442200  0.55149200  0.55704300  1
  H  1033  1  0.13285000  0.45324400  0.56810300  1
  H  1035  1  0.14292100  0.48773500  0.57866500  1
  H  1036  1  0.12227000  0.50668900  0.57335900  1
  H  1037  1  0.14733400  0.50713600  0.56103300  1
  H  1038  1  0.10174900  0.48017900  0.51063100  1
  H  1040  1  0.08310200  0.49793100  0.56374200  1
  H  1041  1  0.06828200  0.49948400  0.54263100  1
  H  1042  1  0.06424300  0.51921700  0.56008800  1
  H  1049  1  0.83654200  0.05787000  0.01542200  1
  H  1056  1  0.80210800  0.98086000  0.01842300  1
  H  1057  1  0.80247100  0.94228900  0.02244900  1
  H  1058  1  0.85763800  0.94790900  0.05699400  1
  H  1059  1  0.80918000  0.04609200  0.06809400  1
  H  1061  1  0.79908600  0.01158100  0.07860500  1
  H  1062  1  0.81975400  0.99264600  0.07329400  1
  H  1063  1  0.79470200  0.99220100  0.06095100  1
  H  1064  1  0.84033700  0.01924800  0.01061500  1
  H  1066  1  0.85893400  0.00145200  0.06370900  1
  H  1067  1  0.87377200  0.99993800  0.04260500  1
  H  1068  1  0.87781400  0.98018600  0.06004700  1
  H  1075  1  0.10555700  0.05663500  0.06351200  1
  H  1082  1  0.14005700  0.97950600  0.06010900  1
  H  1083  1  0.13969200  0.94100900  0.05570800  1
  H  1084  1  0.08432300  0.94703400  0.02145700  1
  H  1085  1  0.13316000  0.04511300  0.01089300  1
  H  1087  1  0.14316100  0.01063100  0.00022800  1
  H  1088  1  0.12241700  0.99174500  0.00544800  1
  H  1089  1  0.14747200  0.99111100  0.01778300  1
  H  1090  1  0.10177700  0.01798600  0.06819100  1
  H  1092  1  0.08312800  0.00067500  0.01516600  1
  H  1093  1  0.06833100  0.99896000  0.03628100  1
  H  1094  1  0.06420800  0.97941100  0.01868700  1
  H  1101  1  0.83645900  0.44270300  0.56346700  1
  H  1108  1  0.80201700  0.51979700  0.56012500  1
  H  1109  1  0.80235600  0.55830900  0.55577800  1
  H  1110  1  0.85772600  0.55236700  0.52149400  1
  H  1111  1  0.80894500  0.45426200  0.51082000  1
  H  1113  1  0.79896000  0.48875000  0.50016200  1
  H  1114  1  0.81969500  0.50763600  0.50541000  1
  H  1115  1  0.79462600  0.50825800  0.51772400  1
  H  1116  1  0.84024700  0.48134800  0.56816400  1
  H  1118  1  0.85895300  0.49873100  0.51515000  1
  H  1119  1  0.87373800  0.50044000  0.53627100  1
  H  1120  1  0.87785200  0.52000900  0.51869200  1
  H  1127  1  0.51251600  0.91157100  0.07294300  1
  H  1134  1  0.44494100  0.86513600  0.05528800  1
  H  1135  1  0.41005900  0.86514600  0.04044600  1
  H  1136  1  0.43600300  0.90050500  0.99548900  1
  H  1137  1  0.52719900  0.85078700  0.04880400  1
  H  1139  1  0.50334300  0.83232500  0.02854700  1
  H  1140  1  0.48782400  0.85038200  0.01479700  1
  H  1141  1  0.47570100  0.83700000  0.03407700  1
  H  1142  1  0.47805100  0.91211000  0.05713400  1
  H  1144  1  0.49051800  0.89226700  0.00461100  1
  H  1145  1  0.48391200  0.91719100  0.01585900  1
  H  1146  1  0.47292900  0.91118200  0.99380900  1
  H  1153  1  0.42957100  0.58770000  0.57297600  1
  H  1160  1  0.49706400  0.63422200  0.55530000  1
  H  1161  1  0.53195000  0.63424600  0.54046700  1
  H  1162  1  0.50606300  0.59883600  0.49551500  1
  H  1163  1  0.41480000  0.64846000  0.54883100  1
  H  1165  1  0.43862400  0.66694600  0.52856200  1
  H  1166  1  0.45415700  0.64890300  0.51480900  1
  H  1167  1  0.46627300  0.66230600  0.53408000  1
  H  1168  1  0.46402600  0.58719800  0.55715300  1
  H  1170  1  0.45153500  0.60701800  0.50462200  1
  H  1171  1  0.45816600  0.58210500  0.51587600  1
  H  1172  1  0.46914700  0.58812000  0.49382800  1
  H  1179  1  0.13017400  0.20981300  0.82458500  1
  H  1186  1  0.08358700  0.27587100  0.80454200  1
  H  1187  1  0.08345500  0.31033600  0.78904000  1
  H  1188  1  0.12002600  0.28368900  0.74506100  1
  H  1189  1  0.07040800  0.19342500  0.79938000  1
  H  1191  1  0.05222600  0.21634800  0.77818300  1
  H  1192  1  0.07051600  0.23160400  0.76444500  1
  H  1193  1  0.05637800  0.24423200  0.78308900  1
  H  1194  1  0.13074500  0.24374400  0.80794300  1
  H  1196  1  0.11244200  0.22927600  0.75518500  1
  H  1197  1  0.13699900  0.23662800  0.76667800  1
  H  1198  1  0.13130000  0.24685900  0.74430600  1
  H  1205  1  0.81186100  0.28956700  0.32457900  1
  H  1212  1  0.85840500  0.22348900  0.30454800  1
  H  1213  1  0.85854000  0.18902800  0.28903900  1
  H  1214  1  0.82203300  0.21570400  0.24503400  1
  H  1215  1  0.87164500  0.30592900  0.29939200  1
  H  1217  1  0.88982300  0.28299900  0.27819900  1
  H  1218  1  0.87153100  0.26775800  0.26445200  1
  H  1219  1  0.88565300  0.25511700  0.28309800  1
  H  1220  1  0.81127900  0.25563900  0.30793300  1
  H  1222  1  0.82962400  0.27011200  0.25517600  1
  H  1223  1  0.80505600  0.26276700  0.26665100  1
  H  1224  1  0.81076900  0.25253700  0.24428200  1
  H  1231  1  0.43159000  0.09939200  0.00365400  1
  H  1238  1  0.49620600  0.14858700  0.02509400  1
  H  1239  1  0.53113400  0.14798400  0.03997000  1
  H  1240  1  0.50660500  0.10584500  0.08114500  1
  H  1241  1  0.41298800  0.15688000  0.03147500  1
  H  1243  1  0.43563900  0.17493000  0.05305300  1
  H  1244  1  0.45221200  0.15661700  0.06562800  1
  H  1245  1  0.46354500  0.17253300  0.04742100  1
  H  1246  1  0.46599800  0.09969100  0.01948400  1
  H  1248  1  0.45169100  0.11313000  0.07266600  1
  H  1249  1  0.45948700  0.09004000  0.05932600  1
  H  1250  1  0.47007600  0.09380800  0.08186700  1
  H  1257  1  0.51043200  0.39994200  0.50359800  1
  H  1264  1  0.44589600  0.35069800  0.52508800  1
  H  1265  1  0.41096000  0.35128100  0.53995100  1
  H  1266  1  0.43542700  0.39349800  0.58109900  1
  H  1267  1  0.52913200  0.34253500  0.53149400  1
  H  1269  1  0.50650900  0.32448100  0.55309100  1
  H  1270  1  0.48990600  0.34278600  0.56564500  1
  H  1271  1  0.47860000  0.32682600  0.54745500  1
  H  1272  1  0.47602800  0.39961300  0.51943000  1
  H  1274  1  0.49035200  0.38626300  0.57264100  1
  H  1275  1  0.48253500  0.40932700  0.55927800  1
  H  1276  1  0.47194100  0.40557700  0.58181900  1
  H  1283  1  0.80900200  0.79104900  0.25485300  1
  H  1290  1  0.85244900  0.72298300  0.27249700  1
  H  1291  1  0.85314000  0.68848200  0.28784800  1
  H  1292  1  0.82183900  0.71587000  0.33438500  1
  H  1293  1  0.87041200  0.80437000  0.27848300  1
  H  1295  1  0.88845800  0.78035500  0.29879200  1
  H  1296  1  0.87015600  0.76586700  0.31309500  1
  H  1297  1  0.88267300  0.75277500  0.29385900  1
  H  1298  1  0.80745000  0.75704300  0.27137800  1
  H  1300  1  0.82972800  0.77003000  0.32390400  1
  H  1301  1  0.80403900  0.76355000  0.31393600  1
  H  1302  1  0.81131900  0.75292800  0.33584300  1
  H  1309  1  0.13310300  0.70837000  0.75481900  1
  H  1316  1  0.08962800  0.77638100  0.77251000  1
  H  1317  1  0.08892000  0.81087900  0.78786800  1
  H  1318  1  0.12027400  0.78350500  0.83438500  1
  H  1319  1  0.07172500  0.69498500  0.77848100  1
  H  1321  1  0.05367900  0.71897200  0.79881500  1
  H  1322  1  0.07198200  0.73346300  0.81311200  1
  H  1323  1  0.05943800  0.74655900  0.79389200  1
  H  1324  1  0.13464400  0.74236600  0.77135900  1
  H  1326  1  0.11242400  0.72933700  0.82389900  1
  H  1327  1  0.13809900  0.73584600  0.81391700  1
  H  1328  1  0.13082700  0.74645400  0.83582900  1
  H  1335  1  0.01339100  0.40731500  0.57297200  1
  H  1342  1  0.94462200  0.36410900  0.55651800  1
  H  1343  1  0.90970000  0.36344400  0.54176200  1
  H  1344  1  0.93601100  0.39469000  0.49479300  1
  H  1345  1  0.02624500  0.34623800  0.54861100  1
  H  1347  1  0.00165500  0.32829900  0.52873400  1
  H  1348  1  0.98659000  0.34663900  0.51490600  1
  H  1349  1  0.97423100  0.33391700  0.53439100  1
  H  1350  1  0.97888600  0.40889100  0.55724900  1
  H  1352  1  0.99038700  0.38708300  0.50430900  1
  H  1353  1  0.98406200  0.41268300  0.51451400  1
  H  1354  1  0.97291400  0.40550100  0.49277700  1
  H  1361  1  0.92868200  0.09205400  0.07297100  1
  H  1368  1  0.99744400  0.13527900  0.05654100  1
  H  1369  1  0.03237100  0.13595100  0.04179900  1
  H  1370  1  0.00608600  0.10472700  0.99481100  1
  H  1371  1  0.91582700  0.15314200  0.04863500  1
  H  1373  1  0.94042000  0.17109400  0.02876800  1
  H  1374  1  0.95548600  0.15276400  0.01493200  1
  H  1375  1  0.96784400  0.16547200  0.03442400  1
  H  1376  1  0.96318900  0.09048700  0.05724900  1
  H  1378  1  0.95170700  0.11233300  0.00430900  1
  H  1379  1  0.95802200  0.08672700  0.01450400  1
  H  1380  1  0.96918400  0.09392000  0.99277600  1
  H  1387  1  0.62134100  0.70784600  0.32254400  1
  H  1394  1  0.57255600  0.77480200  0.30476900  1
  H  1395  1  0.57285100  0.81015600  0.29059900  1
  H  1396  1  0.61254600  0.78630500  0.24746500  1
  H  1397  1  0.56153300  0.69233000  0.29705800  1
  H  1399  1  0.54317700  0.71623800  0.27669700  1
  H  1400  1  0.56124900  0.73274000  0.26380700  1
  H  1401  1  0.54678700  0.74381600  0.28298400  1
  H  1402  1  0.62132000  0.74279400  0.30760400  1
  H  1404  1  0.60489200  0.73134100  0.25501100  1
  H  1405  1  0.62878600  0.73828900  0.26764900  1
  H  1406  1  0.62405700  0.74970000  0.24553800  1
  H  1413  1  0.32074900  0.79155900  0.82249200  1
  H  1420  1  0.36953600  0.72458300  0.80478200  1
  H  1421  1  0.36925700  0.68921600  0.79063900  1
  H  1422  1  0.32958300  0.71301500  0.74747000  1
  H  1423  1  0.38058000  0.80703500  0.79702500  1
  H  1425  1  0.39893700  0.78311000  0.77668100  1
  H  1426  1  0.38086900  0.76660000  0.76379600  1
  H  1427  1  0.39531700  0.75553900  0.78298700  1
  H  1428  1  0.32076700  0.75660200  0.80757000  1
  H  1430  1  0.33722100  0.76798900  0.75498100  1
  H  1431  1  0.31332200  0.76104900  0.76761500  1
  H  1432  1  0.31806500  0.74961700  0.74551400  1
  H  1439  1  0.93013700  0.60325900  0.50442500  1
  H  1446  1  0.99634500  0.65032800  0.52353400  1
  H  1447  1  0.03136900  0.65050900  0.53823500  1
  H  1448  1  0.00673100  0.61191400  0.58183600  1
  H  1449  1  0.91413700  0.66225500  0.53114400  1
  H  1451  1  0.93762900  0.67998500  0.55220500  1
  H  1452  1  0.95365100  0.66146700  0.56506600  1
  H  1453  1  0.96534600  0.67634200  0.54639800  1
  H  1454  1  0.96470000  0.60262200  0.52005700  1
  H  1456  1  0.95190100  0.61874500  0.57319700  1
  H  1457  1  0.95932200  0.59478000  0.56086000  1
  H  1458  1  0.97019000  0.59982900  0.58312500  1
  H  1465  1  0.01187300  0.89610700  0.00438700  1
  H  1472  1  0.94570700  0.84901700  0.02353400  1
  H  1473  1  0.91067800  0.84883300  0.03822800  1
  H  1474  1  0.93528500  0.88748000  0.08180800  1
  H  1475  1  0.02791400  0.83714600  0.03114300  1
  H  1477  1  0.00443800  0.81942200  0.05222100  1
  H  1478  1  0.98841100  0.83794300  0.06507400  1
  H  1479  1  0.97671800  0.82304500  0.04641800  1
  H  1480  1  0.97731600  0.89674100  0.02002800  1
  H  1482  1  0.99012100  0.88066500  0.07318300  1
  H  1483  1  0.98269400  0.90461600  0.06083000  1
  H  1484  1  0.97182100  0.89958300  0.08309600  1
  H  1491  1  0.32105800  0.29294200  0.75705800  1
  H  1498  1  0.36813800  0.22461200  0.77240200  1
  H  1499  1  0.36824500  0.18897700  0.78601700  1
  H  1500  1  0.33123700  0.21226200  0.83108400  1
  H  1501  1  0.38177200  0.30624200  0.78192700  1
  H  1503  1  0.39993400  0.28138800  0.80153500  1
  H  1504  1  0.38174200  0.26504500  0.81444100  1
  H  1505  1  0.39544000  0.25408200  0.79481900  1
  H  1506  1  0.32044100  0.25763700  0.77141100  1
  H  1508  1  0.33886000  0.26726400  0.82406900  1
  H  1509  1  0.31433400  0.26088000  0.81211200  1
  H  1510  1  0.31992500  0.24889400  0.83385900  1
  H  1517  1  0.62092300  0.20640500  0.25707800  1
  H  1524  1  0.57385300  0.27473900  0.27238700  1
  H  1525  1  0.57373400  0.31038200  0.28598500  1
  H  1526  1  0.61073200  0.28713800  0.33107200  1
  H  1527  1  0.56020800  0.19312500  0.28195200  1
  H  1529  1  0.54205000  0.21798700  0.30155300  1
  H  1530  1  0.56024400  0.23433500  0.31445400  1
  H  1531  1  0.54654500  0.24528800  0.29482700  1
  H  1532  1  0.62154500  0.24171500  0.27142100  1
  H  1534  1  0.60312300  0.23212900  0.32408300  1
  H  1535  1  0.62764900  0.23851100  0.31212700  1
  H  1536  1  0.62205100  0.25050900  0.33386700  1
  H  1543  1  0.54492800  0.85837700  0.21534500  1
  H  1550  1  0.55314500  0.82191100  0.14650400  1
  H  1551  1  0.55248500  0.83027900  0.11394400  1
  H  1552  1  0.57723800  0.89299100  0.12511300  1
  H  1553  1  0.60546500  0.82843100  0.20471400  1
  H  1555  1  0.61861100  0.82118500  0.17473700  1
  H  1556  1  0.61080500  0.84203600  0.15922500  1
  H  1557  1  0.59789300  0.81610800  0.15832700  1
  H  1558  1  0.53843900  0.86154400  0.18262900  1
  H  1560  1  0.59536800  0.88405900  0.16946400  1
  H  1561  1  0.56860100  0.89478500  0.17196500  1
  H  1562  1  0.58629200  0.90528700  0.15487900  1
  H  1569  1  0.39718100  0.64087000  0.71538300  1
  H  1576  1  0.38894900  0.67733600  0.64653100  1
  H  1577  1  0.38959400  0.66893400  0.61397900  1
  H  1578  1  0.36479900  0.60625100  0.62519800  1
  H  1579  1  0.33667600  0.67089300  0.70477900  1
  H  1581  1  0.32352500  0.67816100  0.67480700  1
  H  1582  1  0.33128200  0.65726900  0.65931600  1
  H  1583  1  0.34422600  0.68318000  0.65836800  1
  H  1584  1  0.40364200  0.63769300  0.68266400  1
  H  1586  1  0.34668200  0.61525400  0.66954400  1
  H  1587  1  0.37343400  0.60449700  0.67205200  1
  H  1588  1  0.35572800  0.59399800  0.65497500  1
  H  1595  1  0.07668300  0.17763900  0.96693200  1
  H  1602  1  0.04162800  0.16757600  0.89831400  1
  H  1603  1  0.04935100  0.16816800  0.86562700  1
  H  1604  1  0.11303100  0.14554600  0.87608100  1
  H  1605  1  0.05202400  0.11481100  0.95609100  1
  H  1607  1  0.04550900  0.10131500  0.92617900  1
  H  1608  1  0.06573100  0.11053600  0.91063900  1
  H  1609  1  0.03899200  0.12167200  0.90981300  1
  H  1610  1  0.07974700  0.18427100  0.93418700  1
  H  1612  1  0.10591400  0.12802400  0.92073700  1
  H  1613  1  0.11535200  0.15530700  0.92290200  1
  H  1614  1  0.12643300  0.13795100  0.90582300  1
  H  1621  1  0.86544100  0.32177100  0.46687200  1
  H  1628  1  0.90053500  0.33178900  0.39825400  1
  H  1629  1  0.89279600  0.33119700  0.36557000  1
  H  1630  1  0.82912900  0.35385500  0.37604700  1
  H  1631  1  0.89012800  0.38458800  0.45604200  1
  H  1633  1  0.89667400  0.39807600  0.42612500  1
  H  1634  1  0.87646500  0.38884700  0.41057200  1
  H  1635  1  0.90320600  0.37771200  0.40977000  1
  H  1636  1  0.86240900  0.31513000  0.43412800  1
  H  1638  1  0.83627600  0.37136900  0.42070300  1
  H  1639  1  0.82683300  0.34408900  0.42286900  1
  H  1640  1  0.81574700  0.36145000  0.40579500  1
  H  1647  1  0.54435300  0.64011800  0.36389000  1
  H  1654  1  0.55217200  0.67669100  0.43275000  1
  H  1655  1  0.55155400  0.66811000  0.46527600  1
  H  1656  1  0.57734900  0.60587500  0.45387700  1
  H  1657  1  0.60450700  0.67091300  0.37431500  1
  H  1659  1  0.61761500  0.67847300  0.40425700  1
  H  1660  1  0.61017500  0.65752600  0.41980600  1
  H  1661  1  0.59688100  0.68326200  0.42071800  1
  H  1662  1  0.53800100  0.63697600  0.39661800  1
  H  1664  1  0.59545000  0.61536100  0.40959000  1
  H  1665  1  0.56886700  0.60421100  0.40702500  1
  H  1666  1  0.58671000  0.59391300  0.42408800  1
  H  1673  1  0.39776000  0.85929900  0.86386300  1
  H  1680  1  0.38990700  0.82267700  0.93271400  1
  H  1681  1  0.39051300  0.83126600  0.96523800  1
  H  1682  1  0.36469600  0.89348800  0.95382200  1
  H  1683  1  0.33762100  0.82845400  0.87424000  1
  H  1685  1  0.32450100  0.82085300  0.90417200  1
  H  1686  1  0.33190700  0.84181400  0.91972000  1
  H  1687  1  0.34521800  0.81608800  0.92065400  1
  H  1688  1  0.40408300  0.86241900  0.89660000  1
  H  1690  1  0.34660800  0.88397600  0.90953300  1
  H  1691  1  0.37318100  0.89514700  0.90697200  1
  H  1692  1  0.35532700  0.90543300  0.92403000  1
  H  1699  1  0.07774400  0.32061000  0.61249100  1
  H  1706  1  0.04236100  0.33050600  0.68104700  1
  H  1707  1  0.05024700  0.33011200  0.71371100  1
  H  1708  1  0.11339700  0.35402400  0.70301800  1
  H  1709  1  0.05185400  0.38305700  0.62283900  1
  H  1711  1  0.04488400  0.39666700  0.65265100  1
  H  1712  1  0.06524600  0.38799100  0.66829100  1
  H  1713  1  0.03873000  0.37633700  0.66914400  1
  H  1714  1  0.08074500  0.31431700  0.64528300  1
  H  1716  1  0.10572200  0.37132400  0.65835000  1
  H  1717  1  0.11572100  0.34423700  0.65623100  1
  H  1718  1  0.12649400  0.36188300  0.67323700  1
  H  1725  1  0.86433900  0.17876000  0.11252200  1
  H  1732  1  0.89975500  0.16891200  0.18107800  1
  H  1733  1  0.89185400  0.16929300  0.21374000  1
  H  1734  1  0.82872800  0.14533000  0.20302200  1
  H  1735  1  0.89027900  0.11633100  0.12285700  1
  H  1737  1  0.89727600  0.10273000  0.15267400  1
  H  1738  1  0.87693000  0.11140700  0.16832700  1
  H  1739  1  0.90344300  0.12307000  0.16915300  1
  H  1740  1  0.86135800  0.18505800  0.14531300  1
  H  1742  1  0.83643600  0.12804900  0.15835100  1
  H  1743  1  0.82642000  0.15513200  0.15623600  1
  H  1744  1  0.81565100  0.13747400  0.17323400  1
  H  1751  1  0.40104200  0.14189600  0.86159100  1
  H  1758  1  0.38775900  0.18000100  0.92903700  1
  H  1759  1  0.38748000  0.17373600  0.96192000  1
  H  1760  1  0.36895500  0.10843600  0.95294900  1
  H  1761  1  0.33816800  0.16739300  0.87073600  1
  H  1763  1  0.32361200  0.17399200  0.90028000  1
  H  1764  1  0.33271000  0.15441200  0.91645800  1
  H  1765  1  0.34348300  0.18132000  0.91682300  1
  H  1766  1  0.40685900  0.13977800  0.89451100  1
  H  1768  1  0.35227100  0.11304900  0.90773600  1
  H  1769  1  0.37997000  0.10463100  0.90649500  1
  H  1770  1  0.36250700  0.09359200  0.92351000  1
  H  1777  1  0.54094900  0.35755900  0.36157800  1
  H  1784  1  0.55424600  0.31937900  0.42900500  1
  H  1785  1  0.55454200  0.32564600  0.46188700  1
  H  1786  1  0.57314200  0.39092300  0.45290800  1
  H  1787  1  0.60378700  0.33194800  0.37066600  1
  H  1789  1  0.61835600  0.32529400  0.40019700  1
  H  1790  1  0.60930900  0.34488800  0.41638400  1
  H  1791  1  0.59849200  0.31799800  0.41675600  1
  H  1792  1  0.53516700  0.35965600  0.39450300  1
  H  1794  1  0.58981100  0.38627700  0.40769400  1
  H  1795  1  0.56212700  0.39474400  0.40645700  1
  H  1796  1  0.57961300  0.40575200  0.42346900  1
  H  1803  1  0.86263500  0.81862700  0.11483200  1
  H  1810  1  0.90136300  0.82719600  0.18190500  1
  H  1811  1  0.89406900  0.82755400  0.21468500  1
  H  1812  1  0.83371700  0.85824300  0.20480200  1
  H  1813  1  0.89424400  0.87899800  0.12221700  1
  H  1815  1  0.90412200  0.89301600  0.15133000  1
  H  1816  1  0.88384700  0.88693400  0.16791000  1
  H  1817  1  0.90917700  0.87286100  0.16825200  1
  H  1818  1  0.86077400  0.81398900  0.14787400  1
  H  1820  1  0.84212600  0.87443900  0.15985700  1
  H  1821  1  0.82935000  0.84849700  0.15829000  1
  H  1822  1  0.82092200  0.86742600  0.17525400  1
  H  1829  1  0.07938300  0.68076300  0.61486000  1
  H  1836  1  0.04067200  0.67225800  0.68194500  1
  H  1837  1  0.04799600  0.67188600  0.71471900  1
  H  1838  1  0.10830000  0.64111800  0.70479100  1
  H  1839  1  0.04774000  0.62041100  0.62224400  1
  H  1841  1  0.03785000  0.60640400  0.65136400  1
  H  1842  1  0.05811600  0.61249000  0.66795000  1
  H  1843  1  0.03279100  0.62657100  0.66827500  1
  H  1844  1  0.08124200  0.68540600  0.64790000  1
  H  1846  1  0.09983500  0.62494400  0.65985200  1
  H  1847  1  0.11263000  0.65087700  0.65827500  1
  H  1848  1  0.12106100  0.63194100  0.67523200  1
  H  1855  1  0.40188400  0.35836800  0.71605100  1
  H  1862  1  0.38879600  0.31989000  0.64865500  1
  H  1863  1  0.38839100  0.32627100  0.61578500  1
  H  1864  1  0.36888700  0.39125000  0.62495000  1
  H  1865  1  0.33936400  0.33185100  0.70727900  1
  H  1867  1  0.32474400  0.32485700  0.67781600  1
  H  1868  1  0.33341700  0.34453700  0.66155700  1
  H  1869  1  0.34462200  0.31780500  0.66118800  1
  H  1870  1  0.40747100  0.36040000  0.68310300  1
  H  1872  1  0.35231600  0.38621000  0.67017600  1
  H  1873  1  0.37987700  0.39507500  0.67137300  1
  H  1874  1  0.36218300  0.40587200  0.65441800  1
  H  1881  1  0.54010200  0.14092700  0.21605100  1
  H  1888  1  0.55321200  0.17945400  0.14866400  1
  H  1889  1  0.55363600  0.17304900  0.11579800  1
  H  1890  1  0.57323300  0.10810700  0.12500200  1
  H  1891  1  0.60258500  0.16755700  0.20734400  1
  H  1893  1  0.61722000  0.17460400  0.17789400  1
  H  1894  1  0.60861000  0.15488900  0.16164300  1
  H  1895  1  0.59736200  0.18160200  0.16123600  1
  H  1896  1  0.53455800  0.13891000  0.18309900  1
  H  1898  1  0.58978000  0.11320900  0.17023200  1
  H  1899  1  0.56223700  0.10429200  0.17142200  1
  H  1900  1  0.57996000  0.09351900  0.15447900  1
  H  1907  1  0.86151100  0.68155100  0.46276400  1
  H  1914  1  0.90018500  0.67352000  0.39560200  1
  H  1915  1  0.89258800  0.67304100  0.36286900  1
  H  1916  1  0.83300400  0.64106400  0.37314300  1
  H  1917  1  0.89421700  0.62173200  0.45557400  1
  H  1919  1  0.90442100  0.60781100  0.42649800  1
  H  1920  1  0.88401000  0.61342300  0.40991700  1
  H  1921  1  0.90906100  0.62797700  0.40949900  1
  H  1922  1  0.85959900  0.68602600  0.42971300  1
  H  1924  1  0.84216700  0.62501300  0.41802600  1
  H  1925  1  0.82886000  0.65068200  0.41966900  1
  H  1926  1  0.82069000  0.63157500  0.40276000  1
  H  1933  1  0.08050700  0.81782500  0.96272900  1
  H  1940  1  0.04182700  0.82578500  0.89555800  1
  H  1941  1  0.04945000  0.82628300  0.86283200  1
  H  1942  1  0.10898700  0.85833000  0.87314200  1
  H  1943  1  0.04775300  0.87761700  0.95554200  1
  H  1945  1  0.03753000  0.89152500  0.92646000  1
  H  1946  1  0.05792800  0.88590900  0.90986800  1
  H  1947  1  0.03288400  0.87134300  0.90947400  1
  H  1948  1  0.08240800  0.81334000  0.92968200  1
  H  1950  1  0.09977500  0.87435800  0.91802100  1
  H  1951  1  0.11310300  0.84870100  0.91967300  1
  H  1952  1  0.12127100  0.86781400  0.90277000  1
  H  1959  1  0.77853400  0.90000000  0.09774000  1
  H  1966  1  0.70352100  0.85660800  0.07042800  1
  H  1967  1  0.66538100  0.86093300  0.06465100  1
  H  1968  1  0.67119700  0.92868000  0.07242700  1
  H  1969  1  0.77420400  0.88231400  0.04148500  1
  H  1971  1  0.74146500  0.87755800  0.02578600  1
  H  1972  1  0.71966900  0.89231500  0.03558400  1
  H  1973  1  0.72211200  0.86377500  0.03946600  1
  H  1974  1  0.73983100  0.89628600  0.10085000  1
  H  1976  1  0.72633400  0.93250900  0.06576600  1
  H  1977  1  0.72244100  0.93184600  0.09021100  1
  H  1978  1  0.70434700  0.94657400  0.07599200  1
  H  1985  1  0.16349300  0.59941000  0.59777000  1
  H  1992  1  0.23855400  0.64269900  0.57046000  1
  H  1993  1  0.27668200  0.63833200  0.56469900  1
  H  1994  1  0.27079700  0.57059500  0.57246200  1
  H  1995  1  0.16786500  0.61709900  0.54151900  1
  H  1997  1  0.20061800  0.62180200  0.52582700  1
  H  1998  1  0.22237700  0.60699300  0.53562800  1
  H  1999  1  0.22000100  0.63553900  0.53950900  1
  H  2000  1  0.20220700  0.60306000  0.60088400  1
  H  2002  1  0.21566800  0.56683800  0.56576300  1
  H  2003  1  0.21953100  0.56746800  0.59021200  1
  H  2004  1  0.23762500  0.55273500  0.57599800  1
  H  2011  1  0.11613400  0.94235600  0.84307100  1
  H  2018  1  0.07315200  0.01894600  0.81759600  1
  H  2019  1  0.07836300  0.05727500  0.81348100  1
  H  2020  1  0.14562400  0.04982400  0.82305200  1
  H  2021  1  0.10057600  0.94949800  0.78656400  1
  H  2023  1  0.09554000  0.98305700  0.77218000  1
  H  2024  1  0.10981300  0.00431100  0.78327900  1
  H  2025  1  0.08115000  0.00156300  0.78625600  1
  H  2026  1  0.11112000  0.98057100  0.84775200  1
  H  2028  1  0.14883600  0.99504000  0.81441300  1
  H  2029  1  0.14729500  0.99770900  0.83895000  1
  H  2030  1  0.16283000  0.01624600  0.82582200  1
  H  2037  1  0.82595400  0.55693400  0.34309500  1
  H  2044  1  0.86894500  0.48038800  0.31755400  1
  H  2045  1  0.86370800  0.44205300  0.31342900  1
  H  2046  1  0.79644400  0.44957000  0.32301900  1
  H  2047  1  0.84150100  0.54991800  0.28658700  1
  H  2049  1  0.84655500  0.51637400  0.27215500  1
  H  2050  1  0.83230700  0.49508700  0.28323400  1
  H  2051  1  0.86096700  0.49786100  0.28621000  1
  H  2052  1  0.83099200  0.51872500  0.34773200  1
  H  2054  1  0.79328200  0.50437600  0.31441100  1
  H  2055  1  0.79483400  0.50165700  0.33894300  1
  H  2056  1  0.77927300  0.48316400  0.32579500  1
  H  2063  1  0.77790400  0.59969900  0.48010700  1
  H  2070  1  0.70279100  0.64243000  0.50835000  1
  H  2071  1  0.66477400  0.63764400  0.51440900  1
  H  2072  1  0.67118400  0.57006900  0.50591400  1
  H  2073  1  0.77411900  0.61744900  0.53637500  1
  H  2075  1  0.74156600  0.62182800  0.55238700  1
  H  2076  1  0.71975400  0.60694500  0.54276100  1
  H  2077  1  0.72194100  0.63551700  0.53892100  1
  H  2078  1  0.73915100  0.60318200  0.47732400  1
  H  2080  1  0.72646700  0.56674200  0.51219900  1
  H  2081  1  0.72221400  0.56755200  0.48780000  1
  H  2082  1  0.70447900  0.55253900  0.50212300  1
  H  2089  1  0.16412400  0.89966200  0.98004500  1
  H  2096  1  0.23923200  0.85697700  0.00834000  1
  H  2097  1  0.27724500  0.86176900  0.01437200  1
  H  2098  1  0.27084900  0.92932300  0.00579600  1
  H  2099  1  0.16792500  0.88198500  0.03632700  1
  H  2101  1  0.20048400  0.87764700  0.05233900  1
  H  2102  1  0.22226600  0.89255500  0.04269300  1
  H  2103  1  0.22013500  0.86397300  0.03889300  1
  H  2104  1  0.20288600  0.89618600  0.97726200  1
  H  2106  1  0.21558000  0.93266200  0.01212400  1
  H  2107  1  0.21979900  0.93183800  0.98772200  1
  H  2108  1  0.23755600  0.94685700  0.00202100  1
  H  2115  1  0.11569200  0.55666300  0.73526500  1
  H  2122  1  0.07331700  0.47984600  0.76129900  1
  H  2123  1  0.07893700  0.44160600  0.76559600  1
  H  2124  1  0.14601400  0.44961300  0.75544200  1
  H  2125  1  0.09984800  0.54980500  0.79173900  1
  H  2127  1  0.09524100  0.51632700  0.80631700  1
  H  2128  1  0.10966000  0.49508500  0.79534100  1
  H  2129  1  0.08097900  0.49761800  0.79234800  1
  H  2130  1  0.11097700  0.51838800  0.73076000  1
  H  2132  1  0.14877500  0.50450700  0.76388600  1
  H  2133  1  0.14713900  0.50158300  0.73937500  1
  H  2134  1  0.16290200  0.48331900  0.75257800  1
  H  2141  1  0.82639400  0.94278800  0.23525600  1
  H  2148  1  0.86877100  0.01957500  0.26132600  1
  H  2149  1  0.86312300  0.05782100  0.26562300  1
  H  2150  1  0.79604100  0.04974200  0.25547000  1
  H  2151  1  0.84223600  0.94954400  0.29172800  1
  H  2153  1  0.84685500  0.98301500  0.30634300  1
  H  2154  1  0.83243900  0.00427200  0.29538200  1
  H  2155  1  0.86112100  0.00173700  0.29238900  1
  H  2156  1  0.83112700  0.98105500  0.23078300  1
  H  2158  1  0.79333800  0.99482800  0.26389800  1
  H  2159  1  0.79498000  0.99779200  0.23938900  1
  H  2160  1  0.77919200  0.01601800  0.25260900  1
  H  2167  1  0.16432500  0.10077700  0.98308900  1
  H  2174  1  0.24208000  0.14128700  0.00730000  1
  H  2175  1  0.28025400  0.13568800  0.01122100  1
  H  2176  1  0.27171300  0.06808700  0.00439800  1
  H  2177  1  0.17186500  0.11865500  0.03902900  1
  H  2179  1  0.20552200  0.12247900  0.05352900  1
  H  2180  1  0.22606900  0.10649600  0.04316800  1
  H  2181  1  0.22492800  0.13508000  0.03909600  1
  H  2182  1  0.20289300  0.10297400  0.97865000  1
  H  2184  1  0.21689000  0.06637200  0.01368200  1
  H  2185  1  0.21925200  0.06671800  0.98909400  1
  H  2186  1  0.23765900  0.05140300  0.00256600  1
  H  2193  1  0.77773600  0.39858100  0.48299100  1
  H  2200  1  0.70003600  0.35804900  0.50727800  1
  H  2201  1  0.66186900  0.36362300  0.51120300  1
  H  2202  1  0.67034700  0.43122000  0.50433800  1
  H  2203  1  0.77023900  0.38076900  0.53894900  1
  H  2205  1  0.73659300  0.37694000  0.55346400  1
  H  2206  1  0.71605100  0.39292300  0.54309900  1
  H  2207  1  0.71716800  0.36433400  0.53905200  1
  H  2208  1  0.73915900  0.39635600  0.47857300  1
  H  2210  1  0.72516100  0.43298000  0.51361800  1
  H  2211  1  0.72280900  0.43262800  0.48902900  1
  H  2212  1  0.70438600  0.44793100  0.50249300  1
  H  2219  1  0.16492900  0.39813200  0.59597900  1
  H  2226  1  0.24269400  0.35817900  0.57082500  1
  H  2227  1  0.28075500  0.36410500  0.56658400  1
  H  2228  1  0.27179700  0.43156300  0.57398500  1
  H  2229  1  0.17188300  0.38006200  0.54003300  1
  H  2231  1  0.20533400  0.37660500  0.52518700  1
  H  2232  1  0.22588600  0.39275500  0.53534200  1
  H  2233  1  0.22505700  0.36415800  0.53940000  1
  H  2234  1  0.20357300  0.39619700  0.60006800  1
  H  2236  1  0.21680900  0.43290800  0.56511600  1
  H  2237  1  0.21955900  0.43247500  0.58967600  1
  H  2238  1  0.23763300  0.44798300  0.57604400  1
  H  2245  1  0.77713900  0.10129200  0.09597800  1
  H  2252  1  0.69936900  0.14129300  0.07086600  1
  H  2253  1  0.66130200  0.13533700  0.06662500  1
  H  2254  1  0.67033600  0.06787800  0.07398600  1
  H  2255  1  0.77021700  0.11939500  0.04004100  1
  H  2257  1  0.73675200  0.12291200  0.02519700  1
  H  2258  1  0.71617500  0.10678600  0.03534700  1
  H  2259  1  0.71705500  0.13537900  0.03942600  1
  H  2260  1  0.73850300  0.10326600  0.10007000  1
  H  2262  1  0.72533200  0.06659100  0.06512300  1
  H  2263  1  0.72255800  0.06700900  0.08968100  1
  H  2264  1  0.70451300  0.05149200  0.07603200  1
  H  2271  1  0.62633800  0.44150000  0.34720300  1
  H  2278  1  0.58419200  0.51802600  0.32357000  1
  H  2279  1  0.58761800  0.55645900  0.31975200  1
  H  2280  1  0.65537800  0.55187500  0.32785400  1
  H  2281  1  0.60971000  0.45023000  0.29110800  1
  H  2283  1  0.60640200  0.48416200  0.27701700  1
  H  2284  1  0.62128100  0.50496200  0.28815300  1
  H  2285  1  0.59262900  0.50272000  0.29148400  1
  H  2286  1  0.62383200  0.48004900  0.35219600  1
  H  2288  1  0.66066900  0.49748000  0.31850200  1
  H  2289  1  0.65930300  0.49932100  0.34309700  1
  H  2290  1  0.67397200  0.51887300  0.33028400  1
  H  2297  1  0.31566400  0.05784900  0.84726600  1
  H  2304  1  0.35783500  0.98139400  0.82355600  1
  H  2305  1  0.35445800  0.94296500  0.81971100  1
  H  2306  1  0.28669600  0.94744200  0.82787100  1
  H  2307  1  0.33220900  0.04915000  0.79115400  1
  H  2309  1  0.33551200  0.01522700  0.77705000  1
  H  2310  1  0.32063200  0.99443400  0.78819400  1
  H  2311  1  0.34929000  0.99664700  0.79149300  1
  H  2312  1  0.31819000  0.01929500  0.85224200  1
  H  2314  1  0.28133200  0.00183200  0.81855700  1
  H  2315  1  0.28271700  0.99999200  0.84315100  1
  H  2316  1  0.26806300  0.98042200  0.83034500  1
  H  2323  1  0.62600100  0.05717600  0.23080400  1
  H  2330  1  0.58416300  0.98069600  0.25528400  1
  H  2331  1  0.58788500  0.94236300  0.25951900  1
  H  2332  1  0.65557200  0.94729700  0.25116800  1
  H  2333  1  0.60890500  0.04915800  0.28687300  1
  H  2335  1  0.60580300  0.01545400  0.30132900  1
  H  2336  1  0.62086500  0.99457900  0.29047600  1
  H  2337  1  0.59221200  0.99658300  0.28704000  1
  H  2338  1  0.62369500  0.01854600  0.22619500  1
  H  2340  1  0.66046200  0.00191300  0.26000200  1
  H  2341  1  0.65913700  0.99960600  0.23543300  1
  H  2342  1  0.67393400  0.98040300  0.24851800  1
  H  2349  1  0.31596900  0.44222500  0.73078900  1
  H  2356  1  0.35785000  0.51864800  0.75528500  1
  H  2357  1  0.35415800  0.55699400  0.75953300  1
  H  2358  1  0.28644800  0.55208500  0.75122000  1
  H  2359  1  0.33306400  0.45016300  0.78686000  1
  H  2361  1  0.33619300  0.48385700  0.80134300  1
  H  2362  1  0.32115700  0.50476100  0.79050700  1
  H  2363  1  0.34980500  0.50272200  0.78706300  1
  H  2364  1  0.31828800  0.48085600  0.72620900  1
  H  2366  1  0.28154000  0.49745600  0.76001400  1
  H  2367  1  0.28287200  0.49979900  0.73544900  1
  H  2368  1  0.26807600  0.51898600  0.74855200  1
  H  2377  1  0.53127300  0.86479400  0.74768200  1
  H  2385  1  0.65395700  0.92057300  0.69402500  1
  H  2387  1  0.63939000  0.87408000  0.74578200  1
  H  2388  1  0.60760100  0.86138700  0.76040700  1
  H  2389  1  0.57785700  0.92469400  0.68230000  1
  H  2390  1  0.54670000  0.90742300  0.69408000  1
  H  2399  1  0.41079200  0.63443500  0.24773000  1
  H  2407  1  0.28806400  0.57870800  0.19405400  1
  H  2409  1  0.30267300  0.62517300  0.24584500  1
  H  2410  1  0.33446600  0.63783800  0.26047200  1
  H  2411  1  0.36417900  0.57464500  0.18227400  1
  H  2412  1  0.39534300  0.59187900  0.19408500  1
  H  2421  1  0.08412500  0.19049300  0.49912300  1
  H  2429  1  0.13860500  0.06783200  0.44450900  1
  H  2431  1  0.09209600  0.08225500  0.49630500  1
  H  2432  1  0.08016300  0.11409600  0.51147100  1
  H  2433  1  0.14382700  0.14390900  0.43357300  1
  H  2434  1  0.12680200  0.17514300  0.44553200  1
  H  2443  1  0.85798200  0.30889600  0.99909213  1
  H  2451  1  0.80339900  0.43151700  0.94451910  1
  H  2453  1  0.85000100  0.41712800  0.99623613  1
  H  2454  1  0.86197600  0.38529800  0.01139700  1
  H  2455  1  0.79809000  0.35542900  0.93365410  1
  H  2456  1  0.81514600  0.32420300  0.94559210  1
  H  2465  1  0.53082700  0.63327100  0.13708000  1
  H  2473  1  0.65379500  0.57730600  0.19009500  1
  H  2475  1  0.63893100  0.62510900  0.13926800  1
  H  2476  1  0.60708700  0.63789800  0.12482700  1
  H  2477  1  0.57751200  0.57149500  0.20100900  1
  H  2478  1  0.54625000  0.58850300  0.18930100  1
  H  2487  1  0.41122800  0.86608800  0.63705400  1
  H  2495  1  0.28823700  0.92209300  0.68999800  1
  H  2497  1  0.30312400  0.87424000  0.63920300  1
  H  2498  1  0.33497500  0.86144800  0.62477800  1
  H  2499  1  0.36451800  0.92790100  0.70094400  1
  H  2500  1  0.39577900  0.91087700  0.68925900  1
  H  2509  1  0.08529700  0.30846900  0.38583800  1
  H  2517  1  0.13977000  0.43153400  0.43975000  1
  H  2519  1  0.09208000  0.41670900  0.38881200  1
  H  2520  1  0.08010600  0.38478200  0.37382200  1
  H  2521  1  0.14672900  0.35532800  0.44992600  1
  H  2522  1  0.13000400  0.32396200  0.43804900  1
  H  2531  1  0.85677500  0.19090000  0.88584400  1
  H  2539  1  0.80223700  0.06786800  0.93973110  1
  H  2541  1  0.84998200  0.08266200  0.88884700  1
  H  2542  1  0.86198500  0.11458200  0.87386000  1
  H  2543  1  0.79520700  0.14407500  0.94984810  1
  H  2544  1  0.81195400  0.17544000  0.93798310  1
  H  2553  1  0.41073100  0.14226600  0.63597200  1
  H  2561  1  0.29316000  0.07334000  0.68547300  1
  H  2563  1  0.30412900  0.12166100  0.63478500  1
  H  2564  1  0.33497200  0.13759700  0.62095800  1
  H  2565  1  0.36635600  0.08503700  0.70435200  1
  H  2566  1  0.39617400  0.10505300  0.69275000  1
  H  2575  1  0.53131700  0.35711700  0.13594300  1
  H  2583  1  0.64895300  0.42593000  0.18544400  1
  H  2585  1  0.63794400  0.37761700  0.13475500  1
  H  2586  1  0.60708100  0.36171700  0.12092300  1
  H  2587  1  0.57575500  0.41431400  0.20431800  1
  H  2588  1  0.54591500  0.39432700  0.19271800  1
  H  2597  1  0.85878000  0.80888600  0.88657200  1
  H  2605  1  0.80176100  0.93257700  0.93709010  1
  H  2607  1  0.85869900  0.91684200  0.89377100  1
  H  2608  1  0.87003100  0.88497500  0.87823200  1
  H  2609  1  0.79248300  0.85604800  0.94672110  1
  H  2610  1  0.81010400  0.82458100  0.93618810  1
  H  2619  1  0.08333500  0.69049800  0.38656500  1
  H  2627  1  0.14029400  0.56681900  0.43711900  1
  H  2629  1  0.08336000  0.58255200  0.39381100  1
  H  2630  1  0.07204200  0.61441300  0.37825900  1
  H  2631  1  0.14962700  0.64333800  0.44671500  1
  H  2632  1  0.13204600  0.67481400  0.43615100  1
  H  2641  1  0.41118000  0.35798100  0.24776600  1
  H  2649  1  0.29335000  0.42696500  0.19882500  1
  H  2651  1  0.30450300  0.37769500  0.24881200  1
  H  2652  1  0.33539800  0.36171700  0.26248300  1
  H  2653  1  0.36682600  0.41651900  0.18018100  1
  H  2654  1  0.39680900  0.39686300  0.19172100  1
  H  2663  1  0.53087600  0.14133100  0.74780000  1
  H  2671  1  0.64877000  0.07244500  0.69882600  1
  H  2673  1  0.63758000  0.12173100  0.74881300  1
  H  2674  1  0.60667000  0.13767000  0.76249700  1
  H  2675  1  0.57525000  0.08275800  0.68024300  1
  H  2676  1  0.54525400  0.10239800  0.69178400  1
  H  2685  1  0.85687600  0.69100500  0.99711113  1
  H  2693  1  0.80080400  0.56651700  0.94729510  1
  H  2695  1  0.85834900  0.58307100  0.98980310  1
  H  2696  1  0.86957600  0.61511600  0.00515100  1
  H  2697  1  0.78942900  0.64301400  0.93861910  1
  H  2698  1  0.80657500  0.67475200  0.94913710  1
  H  2707  1  0.08519800  0.80837200  0.49711000  1
  H  2715  1  0.14122900  0.93283100  0.44724100  1
  H  2717  1  0.08368600  0.91629300  0.48974500  1
  H  2718  1  0.07247300  0.88425600  0.50511500  1
  H  2719  1  0.15261100  0.85634700  0.43857600  1
  H  2720  1  0.13550400  0.82460200  0.44913800  1
  H  2729  1  0.03119300  0.35576200  0.24546000  1
  H  2737  1  0.15394100  0.42128400  0.20090200  1
  H  2739  1  0.13944200  0.36380000  0.24366100  1
  H  2740  1  0.10766200  0.35009000  0.25764600  1
  H  2741  1  0.07760900  0.42715700  0.18923700  1
  H  2742  1  0.04668600  0.40736800  0.19801000  1
  H  2751  1  0.91088700  0.14363600  0.74546200  1
  H  2759  1  0.78812400  0.07813000  0.70090700  1
  H  2761  1  0.80264400  0.13563100  0.74366000  1
  H  2762  1  0.83442400  0.14933700  0.75764400  1
  H  2763  1  0.86445900  0.07219700  0.68928100  1
  H  2764  1  0.89538000  0.09198800  0.69804100  1
  H  2773  1  0.57443900  0.68837300  0.99599913  1
  H  2781  1  0.64920100  0.57124200  0.95159610  1
  H  2783  1  0.59985800  0.58287400  0.00138300  1
  H  2784  1  0.58244200  0.61356500  0.01390400  1
  H  2785  1  0.63666700  0.64359800  0.93095410  1
  H  2786  1  0.61556600  0.67328200  0.94130210  1
  H  2795  1  0.36767800  0.81101300  0.49594000  1
  H  2803  1  0.29294300  0.92816500  0.45155600  1
  H  2805  1  0.34225600  0.91650000  0.50136400  1
  H  2806  1  0.35968700  0.88580700  0.51386400  1
  H  2807  1  0.30543800  0.85580800  0.43091700  1
  H  2808  1  0.32652300  0.82611200  0.44126700  1
  H  2817  1  0.03059200  0.14151600  0.63923800  1
  H  2825  1  0.15392100  0.07732100  0.68395800  1
  H  2827  1  0.13894100  0.13526400  0.64175100  1
  H  2828  1  0.10706600  0.14870900  0.62773200  1
  H  2829  1  0.07746200  0.06988900  0.69473400  1
  H  2830  1  0.04627400  0.08911900  0.68571000  1
  H  2839  1  0.91151700  0.35788400  0.13920300  1
  H  2847  1  0.78813500  0.42204300  0.18388900  1
  H  2849  1  0.80317100  0.36409300  0.14168500  1
  H  2850  1  0.83505400  0.35066100  0.12767500  1
  H  2851  1  0.86460300  0.42947800  0.19471000  1
  H  2852  1  0.89579800  0.41026100  0.18568700  1
  H  2861  1  0.57565000  0.81040700  0.88872200  1
  H  2869  1  0.64987000  0.92778700  0.93314310  1
  H  2871  1  0.59986600  0.91611300  0.88385700  1
  H  2872  1  0.58256800  0.88538800  0.87135300  1
  H  2873  1  0.63847600  0.85507300  0.95337810  1
  H  2874  1  0.61785700  0.82521800  0.94292710  1
  H  2883  1  0.36649800  0.68890600  0.38876700  1
  H  2891  1  0.29216800  0.57160800  0.43319400  1
  H  2893  1  0.34218100  0.58322900  0.38390200  1
  H  2894  1  0.35953100  0.61393600  0.37140700  1
  H  2895  1  0.30361300  0.64431100  0.45341400  1
  H  2896  1  0.32424700  0.67415300  0.44295400  1
  H  2905  1  0.91048700  0.65157900  0.13808500  1
  H  2913  1  0.79299200  0.57575100  0.17982500  1
  H  2915  1  0.80343200  0.63307500  0.13646100  1
  H  2916  1  0.83438400  0.64934800  0.12317300  1
  H  2917  1  0.86675500  0.58360600  0.19919700  1
  H  2918  1  0.89639600  0.60545300  0.18996200  1
  H  2927  1  0.03153100  0.84778000  0.63806900  1
  H  2935  1  0.14905900  0.92361000  0.67976900  1
  H  2937  1  0.13858700  0.86624700  0.63643200  1
  H  2938  1  0.10762900  0.84997900  0.62314900  1
  H  2939  1  0.07529300  0.91577300  0.69915500  1
  H  2940  1  0.04564300  0.89393100  0.68992900  1
  H  2949  1  0.37035900  0.31197400  0.39015700  1
  H  2957  1  0.29298700  0.42853700  0.43163600  1
  H  2959  1  0.35069300  0.41879300  0.38835900  1
  H  2960  1  0.36776400  0.38798600  0.37546000  1
  H  2961  1  0.30284000  0.35527900  0.45187300  1
  H  2962  1  0.32478200  0.32578200  0.44250100  1
  H  2971  1  0.57161700  0.18738000  0.89019200  1
  H  2979  1  0.64893200  0.07080500  0.93170610  1
  H  2981  1  0.59125900  0.08056700  0.88839600  1
  H  2982  1  0.57419400  0.11137900  0.87549500  1
  H  2983  1  0.63912400  0.14407100  0.95191210  1
  H  2984  1  0.61720600  0.17358000  0.94252310  1
  H  2993  1  0.91119500  0.84939500  0.74564600  1
  H  3001  1  0.79310800  0.92418200  0.70394800  1
  H  3003  1  0.80391800  0.86637600  0.74678300  1
  H  3004  1  0.83499500  0.85035300  0.76007900  1
  H  3005  1  0.86710700  0.91742000  0.68484500  1
  H  3006  1  0.89702400  0.89612200  0.69422600  1
  H  3015  1  0.03082400  0.64999400  0.24566300  1
  H  3023  1  0.14896500  0.57528000  0.20396700  1
  H  3025  1  0.13811200  0.63310100  0.24678500  1
  H  3026  1  0.10702400  0.64910000  0.26008900  1
  H  3027  1  0.07495300  0.58196400  0.18488200  1
  H  3028  1  0.04502100  0.60324400  0.19426100  1
  H  3037  1  0.36870700  0.18798800  0.49380200  1
  H  3045  1  0.29220200  0.07098200  0.45233900  1
  H  3047  1  0.35060400  0.08094600  0.49490400  1
  H  3048  1  0.36747200  0.11183700  0.50782200  1
  H  3049  1  0.30090400  0.14455400  0.43245900  1
  H  3050  1  0.32229000  0.17429700  0.44199700  1
  H  3059  1  0.57326200  0.31141300  0.99376613  1
  H  3067  1  0.64975000  0.42839000  0.95223310  1
  H  3069  1  0.59139200  0.41844000  0.99484813  1
  H  3070  1  0.57451700  0.38755400  0.00777200  1
  H  3071  1  0.64106600  0.35480300  0.93240610  1
  H  3072  1  0.61969100  0.32506200  0.94196910  1
  H  3079  1  0.60513500  0.94015500  0.66155300  1
  H  3086  1  0.63954600  0.01842900  0.66402400  1
  H  3087  1  0.63936300  0.05672000  0.66956200  1
  H  3088  1  0.58361400  0.04949900  0.70317900  1
  H  3089  1  0.63289700  0.95358200  0.71377900  1
  H  3091  1  0.64277100  0.98828500  0.72366000  1
  H  3092  1  0.62180500  0.00679700  0.71813400  1
  H  3093  1  0.64684900  0.00740900  0.70576900  1
  H  3094  1  0.60103100  0.97863600  0.65605000  1
  H  3096  1  0.58203800  0.99606600  0.70797600  1
  H  3097  1  0.56752100  0.99817800  0.68673900  1
  H  3098  1  0.56308000  0.01733600  0.70458000  1
  H  3105  1  0.33678700  0.55920500  0.16154200  1
  H  3112  1  0.30249400  0.48096100  0.16410700  1
  H  3113  1  0.30267200  0.44267900  0.16958400  1
  H  3114  1  0.35853700  0.44980200  0.20307500  1
  H  3115  1  0.30934500  0.54571900  0.21388000  1
  H  3117  1  0.29956100  0.51099400  0.22378200  1
  H  3118  1  0.32053600  0.49251900  0.21818500  1
  H  3119  1  0.29543700  0.49186400  0.20590000  1
  H  3120  1  0.34092900  0.52073400  0.15601700  1
  H  3122  1  0.36018300  0.50321300  0.20791400  1
  H  3123  1  0.37462800  0.50113800  0.18663900  1
  H  3124  1  0.37912000  0.48194200  0.20444100  1
  H  3131  1  0.16052600  0.11648200  0.41340700  1
  H  3138  1  0.23708000  0.08087600  0.41781400  1
  H  3139  1  0.27547800  0.08037000  0.42288000  1
  H  3140  1  0.26985500  0.13580200  0.45709100  1
  H  3141  1  0.17098000  0.08861400  0.46609000  1
  H  3143  1  0.20507000  0.07823300  0.47717100  1
  H  3144  1  0.22424700  0.09881200  0.47228100  1
  H  3145  1  0.22487600  0.07380400  0.45987800  1
  H  3146  1  0.19929700  0.12002000  0.40927000  1
  H  3148  1  0.21609600  0.13821100  0.46241400  1
  H  3149  1  0.21870800  0.15304100  0.44138400  1
  H  3150  1  0.23788900  0.15663200  0.45935300  1
  H  3157  1  0.78144600  0.38280500  0.91343610  1
  H  3164  1  0.70489000  0.41852200  0.91770210  1
  H  3165  1  0.66647600  0.41899800  0.92272410  1
  H  3166  1  0.67211300  0.36365800  0.95704810  1
  H  3167  1  0.77098800  0.41091900  0.96602610  1
  H  3169  1  0.73690000  0.42138400  0.97706010  1
  H  3170  1  0.71770600  0.40080600  0.97220810  1
  H  3171  1  0.71711200  0.42577700  0.95974710  1
  H  3172  1  0.74267400  0.37931100  0.90928610  1
  H  3174  1  0.72587300  0.36135000  0.96245010  1
  H  3175  1  0.72329700  0.34645700  0.94144810  1
  H  3176  1  0.70410200  0.34289900  0.95940910  1
  H  3183  1  0.60510900  0.55777600  0.22269400  1
  H  3190  1  0.63977800  0.47933800  0.22054400  1
  H  3191  1  0.63960300  0.44108100  0.21490600  1
  H  3192  1  0.58354400  0.44833600  0.18166600  1
  H  3193  1  0.63305300  0.54392700  0.17062200  1
  H  3195  1  0.64289800  0.50912700  0.16093700  1
  H  3196  1  0.62194200  0.49067100  0.16661400  1
  H  3197  1  0.64702100  0.49015100  0.17893600  1
  H  3198  1  0.60113900  0.51933800  0.22848500  1
  H  3200  1  0.58200300  0.50173000  0.17688500  1
  H  3201  1  0.56761600  0.49969400  0.19819500  1
  H  3202  1  0.56301500  0.48051400  0.18040200  1
  H  3209  1  0.33694000  0.94154100  0.72264500  1
  H  3216  1  0.30229500  0.02002900  0.72056400  1
  H  3217  1  0.30248200  0.05826500  0.71493200  1
  H  3218  1  0.35856900  0.05099800  0.68173400  1
  H  3219  1  0.30900200  0.95555200  0.67060100  1
  H  3221  1  0.29916600  0.99038300  0.66098900  1
  H  3222  1  0.32015900  0.00879300  0.66666667  1
  H  3223  1  0.29508400  0.00933000  0.67901700  1
  H  3224  1  0.34094000  0.97996000  0.72850500  1
  H  3226  1  0.36008900  0.99763300  0.67695100  1
  H  3227  1  0.37448000  0.99961700  0.69826200  1
  H  3228  1  0.37910500  0.01881900  0.68049000  1
  H  3235  1  0.16180000  0.38307700  0.47096500  1
  H  3242  1  0.23857100  0.41878300  0.46661900  1
  H  3243  1  0.27691200  0.41923400  0.46131300  1
  H  3244  1  0.27101200  0.36351300  0.42747900  1
  H  3245  1  0.17249800  0.41107300  0.41836900  1
  H  3247  1  0.20665400  0.42140800  0.40738700  1
  H  3248  1  0.22576500  0.40078500  0.41235800  1
  H  3249  1  0.22641100  0.42582300  0.42472400  1
  H  3250  1  0.20055900  0.37961000  0.47527000  1
  H  3252  1  0.21725600  0.36124800  0.42235800  1
  H  3253  1  0.21986200  0.34652100  0.44344500  1
  H  3254  1  0.23897800  0.34274300  0.42545400  1
  H  3261  1  0.78015300  0.11636800  0.97092310  1
  H  3268  1  0.70340800  0.08053300  0.96667410  1
  H  3269  1  0.66505100  0.08009700  0.96141810  1
  H  3270  1  0.67093600  0.13575700  0.92750010  1
  H  3271  1  0.76949100  0.08817100  0.91839910  1
  H  3273  1  0.73534300  0.07776100  0.90744010  1
  H  3274  1  0.71620500  0.09836800  0.91238210  1
  H  3275  1  0.71559900  0.07335800  0.92478810  1
  H  3276  1  0.74139500  0.11978200  0.97522610  1
  H  3278  1  0.72469100  0.13795000  0.92229810  1
  H  3279  1  0.72211400  0.15272300  0.94336310  1
  H  3280  1  0.70298200  0.15647200  0.92538210  1
  H  3287  1  0.78140800  0.88394700  0.96946610  1
  H  3294  1  0.70314400  0.91933400  0.96809710  1
  H  3295  1  0.66473600  0.91879300  0.96317310  1
  H  3296  1  0.67160700  0.86295100  0.92963410  1
  H  3297  1  0.76763600  0.91310100  0.91786610  1
  H  3299  1  0.73271600  0.92325400  0.90840610  1
  H  3300  1  0.71411200  0.90239900  0.91404710  1
  H  3301  1  0.71393900  0.92734100  0.92657210  1
  H  3302  1  0.74299600  0.88040900  0.97544410  1
  H  3304  1  0.72497700  0.86220800  0.92365410  1
  H  3305  1  0.72363700  0.84755400  0.94487210  1
  H  3306  1  0.70405600  0.84295400  0.92739710  1
  H  3313  1  0.16068700  0.61547900  0.46948600  1
  H  3320  1  0.23891400  0.58000700  0.46809100  1
  H  3321  1  0.27731400  0.58056100  0.46321900  1
  H  3322  1  0.27047900  0.63637200  0.42964300  1
  H  3323  1  0.17440400  0.58624400  0.41790800  1
  H  3325  1  0.20931600  0.57603700  0.40845000  1
  H  3326  1  0.22792100  0.59690400  0.41405400  1
  H  3327  1  0.22811200  0.57198200  0.42660800  1
  H  3328  1  0.19910300  0.61899200  0.47544100  1
  H  3330  1  0.21712000  0.63707500  0.42359900  1
  H  3331  1  0.21841600  0.65177200  0.44479800  1
  H  3332  1  0.23802300  0.65634900  0.42733800  1
  H  3339  1  0.78016900  0.61506200  0.91488410  1
  H  3346  1  0.70165500  0.57944100  0.91615310  1
  H  3347  1  0.66332300  0.58009600  0.92130510  1
  H  3348  1  0.67054400  0.63619600  0.95446910  1
  H  3349  1  0.76615500  0.58548300  0.96625510  1
  H  3351  1  0.73117300  0.57532300  0.97557410  1
  H  3352  1  0.71265300  0.59624800  0.96990810  1
  H  3353  1  0.71244600  0.57132100  0.95735710  1
  H  3354  1  0.74179000  0.61850000  0.90872010  1
  H  3356  1  0.72395300  0.63666900  0.96024810  1
  H  3357  1  0.72260700  0.65127700  0.93900510  1
  H  3358  1  0.70312700  0.65603900  0.95653310  1
  H  3365  1  0.16196000  0.88429900  0.41485300  1
  H  3372  1  0.24037000  0.91998700  0.41616200  1
  H  3373  1  0.27872400  0.91934600  0.42123900  1
  H  3374  1  0.27158700  0.86328700  0.45448300  1
  H  3375  1  0.17580800  0.91391200  0.46624300  1
  H  3377  1  0.21076200  0.92411200  0.47562100  1
  H  3378  1  0.22933300  0.90322100  0.46998100  1
  H  3379  1  0.22951600  0.92814700  0.45742900  1
  H  3380  1  0.20035700  0.88090400  0.40875900  1
  H  3382  1  0.21817800  0.86282000  0.46035200  1
  H  3383  1  0.21952100  0.84819000  0.43912100  1
  H  3384  1  0.23901900  0.84346700  0.45664100  1
  H  3391  1  0.10554900  0.44154900  0.16831100  1
  H  3398  1  0.13993300  0.51853500  0.17135900  1
  H  3399  1  0.13957400  0.55711900  0.17539200  1
  H  3400  1  0.08442200  0.55149200  0.20995900  1
  H  3401  1  0.13285000  0.45324400  0.22101900  1
  H  3403  1  0.14292100  0.48773500  0.23158100  1
  H  3404  1  0.12227000  0.50668900  0.22627500  1
  H  3405  1  0.14733400  0.50713600  0.21394900  1
  H  3406  1  0.10174900  0.48017900  0.16354700  1
  H  3408  1  0.08310200  0.49793100  0.21665800  1
  H  3409  1  0.06828200  0.49948400  0.19554700  1
  H  3410  1  0.06424300  0.51921700  0.21300400  1
  H  3417  1  0.83654200  0.05787000  0.66833800  1
  H  3424  1  0.80210800  0.98086000  0.67133900  1
  H  3425  1  0.80247100  0.94228900  0.67536500  1
  H  3426  1  0.85763800  0.94790900  0.70991000  1
  H  3427  1  0.80918000  0.04609200  0.72101000  1
  H  3429  1  0.79908600  0.01158100  0.73152100  1
  H  3430  1  0.81975400  0.99264600  0.72621000  1
  H  3431  1  0.79470200  0.99220100  0.71386700  1
  H  3432  1  0.84033700  0.01924800  0.66353100  1
  H  3434  1  0.85893400  0.00145200  0.71662500  1
  H  3435  1  0.87377200  0.99993800  0.69552100  1
  H  3436  1  0.87781400  0.98018600  0.71296300  1
  H  3443  1  0.10555700  0.05663500  0.71642800  1
  H  3450  1  0.14005700  0.97950600  0.71302500  1
  H  3451  1  0.13969200  0.94100900  0.70862400  1
  H  3452  1  0.08432300  0.94703400  0.67437300  1
  H  3453  1  0.13316000  0.04511300  0.66380900  1
  H  3455  1  0.14316100  0.01063100  0.65314400  1
  H  3456  1  0.12241700  0.99174500  0.65836400  1
  H  3457  1  0.14747200  0.99111100  0.67069900  1
  H  3458  1  0.10177700  0.01798600  0.72110700  1
  H  3460  1  0.08312800  0.00067500  0.66808200  1
  H  3461  1  0.06833100  0.99896000  0.68919700  1
  H  3462  1  0.06420800  0.97941100  0.67160300  1
  H  3469  1  0.83645900  0.44270300  0.21638300  1
  H  3476  1  0.80201700  0.51979700  0.21304100  1
  H  3477  1  0.80235600  0.55830900  0.20869400  1
  H  3478  1  0.85772600  0.55236700  0.17441000  1
  H  3479  1  0.80894500  0.45426200  0.16373600  1
  H  3481  1  0.79896000  0.48875000  0.15307800  1
  H  3482  1  0.81969500  0.50763600  0.15832600  1
  H  3483  1  0.79462600  0.50825800  0.17064000  1
  H  3484  1  0.84024700  0.48134800  0.22108000  1
  H  3486  1  0.85895300  0.49873100  0.16806600  1
  H  3487  1  0.87373800  0.50044000  0.18918700  1
  H  3488  1  0.87785200  0.52000900  0.17160800  1
  H  3495  1  0.51251600  0.91157100  0.72585900  1
  H  3502  1  0.44494100  0.86513600  0.70820400  1
  H  3503  1  0.41005900  0.86514600  0.69336200  1
  H  3504  1  0.43600300  0.90050500  0.64840500  1
  H  3505  1  0.52719900  0.85078700  0.70172000  1
  H  3507  1  0.50334300  0.83232500  0.68146300  1
  H  3508  1  0.48782400  0.85038200  0.66771300  1
  H  3509  1  0.47570100  0.83700000  0.68699300  1
  H  3510  1  0.47805100  0.91211000  0.71005000  1
  H  3512  1  0.49051800  0.89226700  0.65752700  1
  H  3513  1  0.48391200  0.91719100  0.66877500  1
  H  3514  1  0.47292900  0.91118200  0.64672500  1
  H  3521  1  0.42957100  0.58770000  0.22589200  1
  H  3528  1  0.49706400  0.63422200  0.20821600  1
  H  3529  1  0.53195000  0.63424600  0.19338300  1
  H  3530  1  0.50606300  0.59883600  0.14843100  1
  H  3531  1  0.41480000  0.64846000  0.20174700  1
  H  3533  1  0.43862400  0.66694600  0.18147800  1
  H  3534  1  0.45415700  0.64890300  0.16772500  1
  H  3535  1  0.46627300  0.66230600  0.18699600  1
  H  3536  1  0.46402600  0.58719800  0.21006900  1
  H  3538  1  0.45153500  0.60701800  0.15753800  1
  H  3539  1  0.45816600  0.58210500  0.16879200  1
  H  3540  1  0.46914700  0.58812000  0.14674400  1
  H  3547  1  0.13017400  0.20981300  0.47750100  1
  H  3554  1  0.08358700  0.27587100  0.45745800  1
  H  3555  1  0.08345500  0.31033600  0.44195600  1
  H  3556  1  0.12002600  0.28368900  0.39797700  1
  H  3557  1  0.07040800  0.19342500  0.45229600  1
  H  3559  1  0.05222600  0.21634800  0.43109900  1
  H  3560  1  0.07051600  0.23160400  0.41736100  1
  H  3561  1  0.05637800  0.24423200  0.43600500  1
  H  3562  1  0.13074500  0.24374400  0.46085900  1
  H  3564  1  0.11244200  0.22927600  0.40810100  1
  H  3565  1  0.13699900  0.23662800  0.41959400  1
  H  3566  1  0.13130000  0.24685900  0.39722200  1
  H  3573  1  0.81186100  0.28956700  0.97749510  1
  H  3580  1  0.85840500  0.22348900  0.95746410  1
  H  3581  1  0.85854000  0.18902800  0.94195510  1
  H  3582  1  0.82203300  0.21570400  0.89795000  1
  H  3583  1  0.87164500  0.30592900  0.95230810  1
  H  3585  1  0.88982300  0.28299900  0.93111510  1
  H  3586  1  0.87153100  0.26775800  0.91736810  1
  H  3587  1  0.88565300  0.25511700  0.93601410  1
  H  3588  1  0.81127900  0.25563900  0.96084910  1
  H  3590  1  0.82962400  0.27011200  0.90809210  1
  H  3591  1  0.80505600  0.26276700  0.91956710  1
  H  3592  1  0.81076900  0.25253700  0.89719800  1
  H  3599  1  0.43159000  0.09939200  0.65657000  1
  H  3606  1  0.49620600  0.14858700  0.67801000  1
  H  3607  1  0.53113400  0.14798400  0.69288600  1
  H  3608  1  0.50660500  0.10584500  0.73406100  1
  H  3609  1  0.41298800  0.15688000  0.68439100  1
  H  3611  1  0.43563900  0.17493000  0.70596900  1
  H  3612  1  0.45221200  0.15661700  0.71854400  1
  H  3613  1  0.46354500  0.17253300  0.70033700  1
  H  3614  1  0.46599800  0.09969100  0.67240000  1
  H  3616  1  0.45169100  0.11313000  0.72558200  1
  H  3617  1  0.45948700  0.09004000  0.71224200  1
  H  3618  1  0.47007600  0.09380800  0.73478300  1
  H  3625  1  0.51043200  0.39994200  0.15651400  1
  H  3632  1  0.44589600  0.35069800  0.17800400  1
  H  3633  1  0.41096000  0.35128100  0.19286700  1
  H  3634  1  0.43542700  0.39349800  0.23401500  1
  H  3635  1  0.52913200  0.34253500  0.18441000  1
  H  3637  1  0.50650900  0.32448100  0.20600700  1
  H  3638  1  0.48990600  0.34278600  0.21856100  1
  H  3639  1  0.47860000  0.32682600  0.20037100  1
  H  3640  1  0.47602800  0.39961300  0.17234600  1
  H  3642  1  0.49035200  0.38626300  0.22555700  1
  H  3643  1  0.48253500  0.40932700  0.21219400  1
  H  3644  1  0.47194100  0.40557700  0.23473500  1
  H  3651  1  0.80900200  0.79104900  0.90776910  1
  H  3658  1  0.85244900  0.72298300  0.92541310  1
  H  3659  1  0.85314000  0.68848200  0.94076410  1
  H  3660  1  0.82183900  0.71587000  0.98730110  1
  H  3661  1  0.87041200  0.80437000  0.93139910  1
  H  3663  1  0.88845800  0.78035500  0.95170810  1
  H  3664  1  0.87015600  0.76586700  0.96601110  1
  H  3665  1  0.88267300  0.75277500  0.94677510  1
  H  3666  1  0.80745000  0.75704300  0.92429410  1
  H  3668  1  0.82972800  0.77003000  0.97682010  1
  H  3669  1  0.80403900  0.76355000  0.96685210  1
  H  3670  1  0.81131900  0.75292800  0.98875910  1
  H  3677  1  0.13310300  0.70837000  0.40773500  1
  H  3684  1  0.08962800  0.77638100  0.42542600  1
  H  3685  1  0.08892000  0.81087900  0.44078400  1
  H  3686  1  0.12027400  0.78350500  0.48730100  1
  H  3687  1  0.07172500  0.69498500  0.43139700  1
  H  3689  1  0.05367900  0.71897200  0.45173100  1
  H  3690  1  0.07198200  0.73346300  0.46602800  1
  H  3691  1  0.05943800  0.74655900  0.44680800  1
  H  3692  1  0.13464400  0.74236600  0.42427500  1
  H  3694  1  0.11242400  0.72933700  0.47681500  1
  H  3695  1  0.13809900  0.73584600  0.46683300  1
  H  3696  1  0.13082700  0.74645400  0.48874500  1
  H  3703  1  0.01339100  0.40731500  0.22588800  1
  H  3710  1  0.94462200  0.36410900  0.20943400  1
  H  3711  1  0.90970000  0.36344400  0.19467800  1
  H  3712  1  0.93601100  0.39469000  0.14770900  1
  H  3713  1  0.02624500  0.34623800  0.20152700  1
  H  3715  1  0.00165500  0.32829900  0.18165000  1
  H  3716  1  0.98659000  0.34663900  0.16782200  1
  H  3717  1  0.97423100  0.33391700  0.18730700  1
  H  3718  1  0.97888600  0.40889100  0.21016500  1
  H  3720  1  0.99038700  0.38708300  0.15722500  1
  H  3721  1  0.98406200  0.41268300  0.16743000  1
  H  3722  1  0.97291400  0.40550100  0.14569300  1
  H  3729  1  0.92868200  0.09205400  0.72588700  1
  H  3736  1  0.99744400  0.13527900  0.70945700  1
  H  3737  1  0.03237100  0.13595100  0.69471500  1
  H  3738  1  0.00608600  0.10472700  0.64772700  1
  H  3739  1  0.91582700  0.15314200  0.70155100  1
  H  3741  1  0.94042000  0.17109400  0.68168400  1
  H  3742  1  0.95548600  0.15276400  0.66784800  1
  H  3743  1  0.96784400  0.16547200  0.68734000  1
  H  3744  1  0.96318900  0.09048700  0.71016500  1
  H  3746  1  0.95170700  0.11233300  0.65722500  1
  H  3747  1  0.95802200  0.08672700  0.66742000  1
  H  3748  1  0.96918400  0.09392000  0.64569200  1
  H  3755  1  0.62134100  0.70784600  0.97546010  1
  H  3762  1  0.57255600  0.77480200  0.95768510  1
  H  3763  1  0.57285100  0.81015600  0.94351510  1
  H  3764  1  0.61254600  0.78630500  0.90038110  1
  H  3765  1  0.56153300  0.69233000  0.94997410  1
  H  3767  1  0.54317700  0.71623800  0.92961310  1
  H  3768  1  0.56124900  0.73274000  0.91672310  1
  H  3769  1  0.54678700  0.74381600  0.93590010  1
  H  3770  1  0.62132000  0.74279400  0.96052010  1
  H  3772  1  0.60489200  0.73134100  0.90792710  1
  H  3773  1  0.62878600  0.73828900  0.92056510  1
  H  3774  1  0.62405700  0.74970000  0.89845400  1
  H  3781  1  0.32074900  0.79155900  0.47540800  1
  H  3788  1  0.36953600  0.72458300  0.45769800  1
  H  3789  1  0.36925700  0.68921600  0.44355500  1
  H  3790  1  0.32958300  0.71301500  0.40038600  1
  H  3791  1  0.38058000  0.80703500  0.44994100  1
  H  3793  1  0.39893700  0.78311000  0.42959700  1
  H  3794  1  0.38086900  0.76660000  0.41671200  1
  H  3795  1  0.39531700  0.75553900  0.43590300  1
  H  3796  1  0.32076700  0.75660200  0.46048600  1
  H  3798  1  0.33722100  0.76798900  0.40789700  1
  H  3799  1  0.31332200  0.76104900  0.42053100  1
  H  3800  1  0.31806500  0.74961700  0.39843000  1
  H  3807  1  0.93013700  0.60325900  0.15734100  1
  H  3814  1  0.99634500  0.65032800  0.17645000  1
  H  3815  1  0.03136900  0.65050900  0.19115100  1
  H  3816  1  0.00673100  0.61191400  0.23475200  1
  H  3817  1  0.91413700  0.66225500  0.18406000  1
  H  3819  1  0.93762900  0.67998500  0.20512100  1
  H  3820  1  0.95365100  0.66146700  0.21798200  1
  H  3821  1  0.96534600  0.67634200  0.19931400  1
  H  3822  1  0.96470000  0.60262200  0.17297300  1
  H  3824  1  0.95190100  0.61874500  0.22611300  1
  H  3825  1  0.95932200  0.59478000  0.21377600  1
  H  3826  1  0.97019000  0.59982900  0.23604100  1
  H  3833  1  0.01187300  0.89610700  0.65730300  1
  H  3840  1  0.94570700  0.84901700  0.67645000  1
  H  3841  1  0.91067800  0.84883300  0.69114400  1
  H  3842  1  0.93528500  0.88748000  0.73472400  1
  H  3843  1  0.02791400  0.83714600  0.68405900  1
  H  3845  1  0.00443800  0.81942200  0.70513700  1
  H  3846  1  0.98841100  0.83794300  0.71799000  1
  H  3847  1  0.97671800  0.82304500  0.69933400  1
  H  3848  1  0.97731600  0.89674100  0.67294400  1
  H  3850  1  0.99012100  0.88066500  0.72609900  1
  H  3851  1  0.98269400  0.90461600  0.71374600  1
  H  3852  1  0.97182100  0.89958300  0.73601200  1
  H  3859  1  0.32105800  0.29294200  0.40997400  1
  H  3866  1  0.36813800  0.22461200  0.42531800  1
  H  3867  1  0.36824500  0.18897700  0.43893300  1
  H  3868  1  0.33123700  0.21226200  0.48400000  1
  H  3869  1  0.38177200  0.30624200  0.43484300  1
  H  3871  1  0.39993400  0.28138800  0.45445100  1
  H  3872  1  0.38174200  0.26504500  0.46735700  1
  H  3873  1  0.39544000  0.25408200  0.44773500  1
  H  3874  1  0.32044100  0.25763700  0.42432700  1
  H  3876  1  0.33886000  0.26726400  0.47698500  1
  H  3877  1  0.31433400  0.26088000  0.46502800  1
  H  3878  1  0.31992500  0.24889400  0.48677500  1
  H  3885  1  0.62092300  0.20640500  0.90999410  1
  H  3892  1  0.57385300  0.27473900  0.92530310  1
  H  3893  1  0.57373400  0.31038200  0.93890110  1
  H  3894  1  0.61073200  0.28713800  0.98398810  1
  H  3895  1  0.56020800  0.19312500  0.93486810  1
  H  3897  1  0.54205000  0.21798700  0.95446910  1
  H  3898  1  0.56024400  0.23433500  0.96737010  1
  H  3899  1  0.54654500  0.24528800  0.94774310  1
  H  3900  1  0.62154500  0.24171500  0.92433710  1
  H  3902  1  0.60312300  0.23212900  0.97699910  1
  H  3903  1  0.62764900  0.23851100  0.96504310  1
  H  3904  1  0.62205100  0.25050900  0.98678310  1
  H  3911  1  0.54492800  0.85837700  0.86826100  1
  H  3918  1  0.55314500  0.82191100  0.79942000  1
  H  3919  1  0.55248500  0.83027900  0.76686000  1
  H  3920  1  0.57723800  0.89299100  0.77802900  1
  H  3921  1  0.60546500  0.82843100  0.85763000  1
  H  3923  1  0.61861100  0.82118500  0.82765300  1
  H  3924  1  0.61080500  0.84203600  0.81214100  1
  H  3925  1  0.59789300  0.81610800  0.81124300  1
  H  3926  1  0.53843900  0.86154400  0.83554500  1
  H  3928  1  0.59536800  0.88405900  0.82238000  1
  H  3929  1  0.56860100  0.89478500  0.82488100  1
  H  3930  1  0.58629200  0.90528700  0.80779500  1
  H  3937  1  0.39718100  0.64087000  0.36829900  1
  H  3944  1  0.38894900  0.67733600  0.29944700  1
  H  3945  1  0.38959400  0.66893400  0.26689500  1
  H  3946  1  0.36479900  0.60625100  0.27811400  1
  H  3947  1  0.33667600  0.67089300  0.35769500  1
  H  3949  1  0.32352500  0.67816100  0.32772300  1
  H  3950  1  0.33128200  0.65726900  0.31223200  1
  H  3951  1  0.34422600  0.68318000  0.31128400  1
  H  3952  1  0.40364200  0.63769300  0.33558000  1
  H  3954  1  0.34668200  0.61525400  0.32246000  1
  H  3955  1  0.37343400  0.60449700  0.32496800  1
  H  3956  1  0.35572800  0.59399800  0.30789100  1
  H  3963  1  0.07668300  0.17763900  0.61984800  1
  H  3970  1  0.04162800  0.16757600  0.55123000  1
  H  3971  1  0.04935100  0.16816800  0.51854300  1
  H  3972  1  0.11303100  0.14554600  0.52899700  1
  H  3973  1  0.05202400  0.11481100  0.60900700  1
  H  3975  1  0.04550900  0.10131500  0.57909500  1
  H  3976  1  0.06573100  0.11053600  0.56355500  1
  H  3977  1  0.03899200  0.12167200  0.56272900  1
  H  3978  1  0.07974700  0.18427100  0.58710300  1
  H  3980  1  0.10591400  0.12802400  0.57365300  1
  H  3981  1  0.11535200  0.15530700  0.57581800  1
  H  3982  1  0.12643300  0.13795100  0.55873900  1
  H  3989  1  0.86544100  0.32177100  0.11978800  1
  H  3996  1  0.90053500  0.33178900  0.05117000  1
  H  3997  1  0.89279600  0.33119700  0.01848600  1
  H  3998  1  0.82912900  0.35385500  0.02896300  1
  H  3999  1  0.89012800  0.38458800  0.10895800  1
  H  4001  1  0.89667400  0.39807600  0.07904100  1
  H  4002  1  0.87646500  0.38884700  0.06348800  1
  H  4003  1  0.90320600  0.37771200  0.06268600  1
  H  4004  1  0.86240900  0.31513000  0.08704400  1
  H  4006  1  0.83627600  0.37136900  0.07361900  1
  H  4007  1  0.82683300  0.34408900  0.07578500  1
  H  4008  1  0.81574700  0.36145000  0.05871100  1
  H  4015  1  0.54435300  0.64011800  0.01680600  1
  H  4022  1  0.55217200  0.67669100  0.08566600  1
  H  4023  1  0.55155400  0.66811000  0.11819200  1
  H  4024  1  0.57734900  0.60587500  0.10679300  1
  H  4025  1  0.60450700  0.67091300  0.02723100  1
  H  4027  1  0.61761500  0.67847300  0.05717300  1
  H  4028  1  0.61017500  0.65752600  0.07272200  1
  H  4029  1  0.59688100  0.68326200  0.07363400  1
  H  4030  1  0.53800100  0.63697600  0.04953400  1
  H  4032  1  0.59545000  0.61536100  0.06250600  1
  H  4033  1  0.56886700  0.60421100  0.05994100  1
  H  4034  1  0.58671000  0.59391300  0.07700400  1
  H  4041  1  0.39776000  0.85929900  0.51677900  1
  H  4048  1  0.38990700  0.82267700  0.58563000  1
  H  4049  1  0.39051300  0.83126600  0.61815400  1
  H  4050  1  0.36469600  0.89348800  0.60673800  1
  H  4051  1  0.33762100  0.82845400  0.52715600  1
  H  4053  1  0.32450100  0.82085300  0.55708800  1
  H  4054  1  0.33190700  0.84181400  0.57263600  1
  H  4055  1  0.34521800  0.81608800  0.57357000  1
  H  4056  1  0.40408300  0.86241900  0.54951600  1
  H  4058  1  0.34660800  0.88397600  0.56244900  1
  H  4059  1  0.37318100  0.89514700  0.55988800  1
  H  4060  1  0.35532700  0.90543300  0.57694600  1
  H  4067  1  0.07774400  0.32061000  0.26540700  1
  H  4074  1  0.04236100  0.33050600  0.33396300  1
  H  4075  1  0.05024700  0.33011200  0.36662700  1
  H  4076  1  0.11339700  0.35402400  0.35593400  1
  H  4077  1  0.05185400  0.38305700  0.27575500  1
  H  4079  1  0.04488400  0.39666700  0.30556700  1
  H  4080  1  0.06524600  0.38799100  0.32120700  1
  H  4081  1  0.03873000  0.37633700  0.32206000  1
  H  4082  1  0.08074500  0.31431700  0.29819900  1
  H  4084  1  0.10572200  0.37132400  0.31126600  1
  H  4085  1  0.11572100  0.34423700  0.30914700  1
  H  4086  1  0.12649400  0.36188300  0.32615300  1
  H  4093  1  0.86433900  0.17876000  0.76543800  1
  H  4100  1  0.89975500  0.16891200  0.83399400  1
  H  4101  1  0.89185400  0.16929300  0.86665600  1
  H  4102  1  0.82872800  0.14533000  0.85593800  1
  H  4103  1  0.89027900  0.11633100  0.77577300  1
  H  4105  1  0.89727600  0.10273000  0.80559000  1
  H  4106  1  0.87693000  0.11140700  0.82124300  1
  H  4107  1  0.90344300  0.12307000  0.82206900  1
  H  4108  1  0.86135800  0.18505800  0.79822900  1
  H  4110  1  0.83643600  0.12804900  0.81126700  1
  H  4111  1  0.82642000  0.15513200  0.80915200  1
  H  4112  1  0.81565100  0.13747400  0.82615000  1
  H  4119  1  0.40104200  0.14189600  0.51450700  1
  H  4126  1  0.38775900  0.18000100  0.58195300  1
  H  4127  1  0.38748000  0.17373600  0.61483600  1
  H  4128  1  0.36895500  0.10843600  0.60586500  1
  H  4129  1  0.33816800  0.16739300  0.52365200  1
  H  4131  1  0.32361200  0.17399200  0.55319600  1
  H  4132  1  0.33271000  0.15441200  0.56937400  1
  H  4133  1  0.34348300  0.18132000  0.56973900  1
  H  4134  1  0.40685900  0.13977800  0.54742700  1
  H  4136  1  0.35227100  0.11304900  0.56065200  1
  H  4137  1  0.37997000  0.10463100  0.55941100  1
  H  4138  1  0.36250700  0.09359200  0.57642600  1
  H  4145  1  0.54094900  0.35755900  0.01449400  1
  H  4152  1  0.55424600  0.31937900  0.08192100  1
  H  4153  1  0.55454200  0.32564600  0.11480300  1
  H  4154  1  0.57314200  0.39092300  0.10582400  1
  H  4155  1  0.60378700  0.33194800  0.02358200  1
  H  4157  1  0.61835600  0.32529400  0.05311300  1
  H  4158  1  0.60930900  0.34488800  0.06930000  1
  H  4159  1  0.59849200  0.31799800  0.06967200  1
  H  4160  1  0.53516700  0.35965600  0.04741900  1
  H  4162  1  0.58981100  0.38627700  0.06061000  1
  H  4163  1  0.56212700  0.39474400  0.05937300  1
  H  4164  1  0.57961300  0.40575200  0.07638500  1
  H  4171  1  0.86263500  0.81862700  0.76774800  1
  H  4178  1  0.90136300  0.82719600  0.83482100  1
  H  4179  1  0.89406900  0.82755400  0.86760100  1
  H  4180  1  0.83371700  0.85824300  0.85771800  1
  H  4181  1  0.89424400  0.87899800  0.77513300  1
  H  4183  1  0.90412200  0.89301600  0.80424600  1
  H  4184  1  0.88384700  0.88693400  0.82082600  1
  H  4185  1  0.90917700  0.87286100  0.82116800  1
  H  4186  1  0.86077400  0.81398900  0.80079000  1
  H  4188  1  0.84212600  0.87443900  0.81277300  1
  H  4189  1  0.82935000  0.84849700  0.81120600  1
  H  4190  1  0.82092200  0.86742600  0.82817000  1
  H  4197  1  0.07938300  0.68076300  0.26777600  1
  H  4204  1  0.04067200  0.67225800  0.33486100  1
  H  4205  1  0.04799600  0.67188600  0.36763500  1
  H  4206  1  0.10830000  0.64111800  0.35770700  1
  H  4207  1  0.04774000  0.62041100  0.27516000  1
  H  4209  1  0.03785000  0.60640400  0.30428000  1
  H  4210  1  0.05811600  0.61249000  0.32086600  1
  H  4211  1  0.03279100  0.62657100  0.32119100  1
  H  4212  1  0.08124200  0.68540600  0.30081600  1
  H  4214  1  0.09983500  0.62494400  0.31276800  1
  H  4215  1  0.11263000  0.65087700  0.31119100  1
  H  4216  1  0.12106100  0.63194100  0.32814800  1
  H  4223  1  0.40188400  0.35836800  0.36896700  1
  H  4230  1  0.38879600  0.31989000  0.30157100  1
  H  4231  1  0.38839100  0.32627100  0.26870100  1
  H  4232  1  0.36888700  0.39125000  0.27786600  1
  H  4233  1  0.33936400  0.33185100  0.36019500  1
  H  4235  1  0.32474400  0.32485700  0.33073200  1
  H  4236  1  0.33341700  0.34453700  0.31447300  1
  H  4237  1  0.34462200  0.31780500  0.31410400  1
  H  4238  1  0.40747100  0.36040000  0.33601900  1
  H  4240  1  0.35231600  0.38621000  0.32309200  1
  H  4241  1  0.37987700  0.39507500  0.32428900  1
  H  4242  1  0.36218300  0.40587200  0.30733400  1
  H  4249  1  0.54010200  0.14092700  0.86896700  1
  H  4256  1  0.55321200  0.17945400  0.80158000  1
  H  4257  1  0.55363600  0.17304900  0.76871400  1
  H  4258  1  0.57323300  0.10810700  0.77791800  1
  H  4259  1  0.60258500  0.16755700  0.86026000  1
  H  4261  1  0.61722000  0.17460400  0.83081000  1
  H  4262  1  0.60861000  0.15488900  0.81455900  1
  H  4263  1  0.59736200  0.18160200  0.81415200  1
  H  4264  1  0.53455800  0.13891000  0.83601500  1
  H  4266  1  0.58978000  0.11320900  0.82314800  1
  H  4267  1  0.56223700  0.10429200  0.82433800  1
  H  4268  1  0.57996000  0.09351900  0.80739500  1
  H  4275  1  0.86151100  0.68155100  0.11568000  1
  H  4282  1  0.90018500  0.67352000  0.04851800  1
  H  4283  1  0.89258800  0.67304100  0.01578500  1
  H  4284  1  0.83300400  0.64106400  0.02605900  1
  H  4285  1  0.89421700  0.62173200  0.10849000  1
  H  4287  1  0.90442100  0.60781100  0.07941400  1
  H  4288  1  0.88401000  0.61342300  0.06283300  1
  H  4289  1  0.90906100  0.62797700  0.06241500  1
  H  4290  1  0.85959900  0.68602600  0.08262900  1
  H  4292  1  0.84216700  0.62501300  0.07094200  1
  H  4293  1  0.82886000  0.65068200  0.07258500  1
  H  4294  1  0.82069000  0.63157500  0.05567600  1
  H  4301  1  0.08050700  0.81782500  0.61564500  1
  H  4308  1  0.04182700  0.82578500  0.54847400  1
  H  4309  1  0.04945000  0.82628300  0.51574800  1
  H  4310  1  0.10898700  0.85833000  0.52605800  1
  H  4311  1  0.04775300  0.87761700  0.60845800  1
  H  4313  1  0.03753000  0.89152500  0.57937600  1
  H  4314  1  0.05792800  0.88590900  0.56278400  1
  H  4315  1  0.03288400  0.87134300  0.56239000  1
  H  4316  1  0.08240800  0.81334000  0.58259800  1
  H  4318  1  0.09977500  0.87435800  0.57093700  1
  H  4319  1  0.11310300  0.84870100  0.57258900  1
  H  4320  1  0.12127100  0.86781400  0.55568600  1
  H  4327  1  0.77853400  0.90000000  0.75065600  1
  H  4334  1  0.70352100  0.85660800  0.72334400  1
  H  4335  1  0.66538100  0.86093300  0.71756700  1
  H  4336  1  0.67119700  0.92868000  0.72534300  1
  H  4337  1  0.77420400  0.88231400  0.69440100  1
  H  4339  1  0.74146500  0.87755800  0.67870200  1
  H  4340  1  0.71966900  0.89231500  0.68850000  1
  H  4341  1  0.72211200  0.86377500  0.69238200  1
  H  4342  1  0.73983100  0.89628600  0.75376600  1
  H  4344  1  0.72633400  0.93250900  0.71868200  1
  H  4345  1  0.72244100  0.93184600  0.74312700  1
  H  4346  1  0.70434700  0.94657400  0.72890800  1
  H  4353  1  0.16349300  0.59941000  0.25068600  1
  H  4360  1  0.23855400  0.64269900  0.22337600  1
  H  4361  1  0.27668200  0.63833200  0.21761500  1
  H  4362  1  0.27079700  0.57059500  0.22537800  1
  H  4363  1  0.16786500  0.61709900  0.19443500  1
  H  4365  1  0.20061800  0.62180200  0.17874300  1
  H  4366  1  0.22237700  0.60699300  0.18854400  1
  H  4367  1  0.22000100  0.63553900  0.19242500  1
  H  4368  1  0.20220700  0.60306000  0.25380000  1
  H  4370  1  0.21566800  0.56683800  0.21867900  1
  H  4371  1  0.21953100  0.56746800  0.24312800  1
  H  4372  1  0.23762500  0.55273500  0.22891400  1
  H  4379  1  0.11613400  0.94235600  0.49598700  1
  H  4386  1  0.07315200  0.01894600  0.47051200  1
  H  4387  1  0.07836300  0.05727500  0.46639700  1
  H  4388  1  0.14562400  0.04982400  0.47596800  1
  H  4389  1  0.10057600  0.94949800  0.43948000  1
  H  4391  1  0.09554000  0.98305700  0.42509600  1
  H  4392  1  0.10981300  0.00431100  0.43619500  1
  H  4393  1  0.08115000  0.00156300  0.43917200  1
  H  4394  1  0.11112000  0.98057100  0.50066800  1
  H  4396  1  0.14883600  0.99504000  0.46732900  1
  H  4397  1  0.14729500  0.99770900  0.49186600  1
  H  4398  1  0.16283000  0.01624600  0.47873800  1
  H  4405  1  0.82595400  0.55693400  0.99601113  1
  H  4412  1  0.86894500  0.48038800  0.97047010  1
  H  4413  1  0.86370800  0.44205300  0.96634510  1
  H  4414  1  0.79644400  0.44957000  0.97593510  1
  H  4415  1  0.84150100  0.54991800  0.93950310  1
  H  4417  1  0.84655500  0.51637400  0.92507110  1
  H  4418  1  0.83230700  0.49508700  0.93615010  1
  H  4419  1  0.86096700  0.49786100  0.93912610  1
  H  4420  1  0.83099200  0.51872500  0.00064800  1
  H  4422  1  0.79328200  0.50437600  0.96732710  1
  H  4423  1  0.79483400  0.50165700  0.99185913  1
  H  4424  1  0.77927300  0.48316400  0.97871110  1
  H  4431  1  0.77790400  0.59969900  0.13302300  1
  H  4438  1  0.70279100  0.64243000  0.16126600  1
  H  4439  1  0.66477400  0.63764400  0.16732500  1
  H  4440  1  0.67118400  0.57006900  0.15883000  1
  H  4441  1  0.77411900  0.61744900  0.18929100  1
  H  4443  1  0.74156600  0.62182800  0.20530300  1
  H  4444  1  0.71975400  0.60694500  0.19567700  1
  H  4445  1  0.72194100  0.63551700  0.19183700  1
  H  4446  1  0.73915100  0.60318200  0.13024000  1
  H  4448  1  0.72646700  0.56674200  0.16511500  1
  H  4449  1  0.72221400  0.56755200  0.14071600  1
  H  4450  1  0.70447900  0.55253900  0.15503900  1
  H  4457  1  0.16412400  0.89966200  0.63296100  1
  H  4464  1  0.23923200  0.85697700  0.66125600  1
  H  4465  1  0.27724500  0.86176900  0.66728800  1
  H  4466  1  0.27084900  0.92932300  0.65871200  1
  H  4467  1  0.16792500  0.88198500  0.68924300  1
  H  4469  1  0.20048400  0.87764700  0.70525500  1
  H  4470  1  0.22226600  0.89255500  0.69560900  1
  H  4471  1  0.22013500  0.86397300  0.69180900  1
  H  4472  1  0.20288600  0.89618600  0.63017800  1
  H  4474  1  0.21558000  0.93266200  0.66504000  1
  H  4475  1  0.21979900  0.93183800  0.64063800  1
  H  4476  1  0.23755600  0.94685700  0.65493700  1
  H  4483  1  0.11569200  0.55666300  0.38818100  1
  H  4490  1  0.07331700  0.47984600  0.41421500  1
  H  4491  1  0.07893700  0.44160600  0.41851200  1
  H  4492  1  0.14601400  0.44961300  0.40835800  1
  H  4493  1  0.09984800  0.54980500  0.44465500  1
  H  4495  1  0.09524100  0.51632700  0.45923300  1
  H  4496  1  0.10966000  0.49508500  0.44825700  1
  H  4497  1  0.08097900  0.49761800  0.44526400  1
  H  4498  1  0.11097700  0.51838800  0.38367600  1
  H  4500  1  0.14877500  0.50450700  0.41680200  1
  H  4501  1  0.14713900  0.50158300  0.39229100  1
  H  4502  1  0.16290200  0.48331900  0.40549400  1
  H  4509  1  0.82639400  0.94278800  0.88817200  1
  H  4516  1  0.86877100  0.01957500  0.91424210  1
  H  4517  1  0.86312300  0.05782100  0.91853910  1
  H  4518  1  0.79604100  0.04974200  0.90838610  1
  H  4519  1  0.84223600  0.94954400  0.94464410  1
  H  4521  1  0.84685500  0.98301500  0.95925910  1
  H  4522  1  0.83243900  0.00427200  0.94829810  1
  H  4523  1  0.86112100  0.00173700  0.94530510  1
  H  4524  1  0.83112700  0.98105500  0.88369900  1
  H  4526  1  0.79333800  0.99482800  0.91681410  1
  H  4527  1  0.79498000  0.99779200  0.89230500  1
  H  4528  1  0.77919200  0.01601800  0.90552510  1
  H  4535  1  0.16432500  0.10077700  0.63600500  1
  H  4542  1  0.24208000  0.14128700  0.66021600  1
  H  4543  1  0.28025400  0.13568800  0.66413700  1
  H  4544  1  0.27171300  0.06808700  0.65731400  1
  H  4545  1  0.17186500  0.11865500  0.69194500  1
  H  4547  1  0.20552200  0.12247900  0.70644500  1
  H  4548  1  0.22606900  0.10649600  0.69608400  1
  H  4549  1  0.22492800  0.13508000  0.69201200  1
  H  4550  1  0.20289300  0.10297400  0.63156600  1
  H  4552  1  0.21689000  0.06637200  0.66659800  1
  H  4553  1  0.21925200  0.06671800  0.64201000  1
  H  4554  1  0.23765900  0.05140300  0.65548200  1
  H  4561  1  0.77773600  0.39858100  0.13590700  1
  H  4568  1  0.70003600  0.35804900  0.16019400  1
  H  4569  1  0.66186900  0.36362300  0.16411900  1
  H  4570  1  0.67034700  0.43122000  0.15725400  1
  H  4571  1  0.77023900  0.38076900  0.19186500  1
  H  4573  1  0.73659300  0.37694000  0.20638000  1
  H  4574  1  0.71605100  0.39292300  0.19601500  1
  H  4575  1  0.71716800  0.36433400  0.19196800  1
  H  4576  1  0.73915900  0.39635600  0.13148900  1
  H  4578  1  0.72516100  0.43298000  0.16653400  1
  H  4579  1  0.72280900  0.43262800  0.14194500  1
  H  4580  1  0.70438600  0.44793100  0.15540900  1
  H  4587  1  0.16492900  0.39813200  0.24889500  1
  H  4594  1  0.24269400  0.35817900  0.22374100  1
  H  4595  1  0.28075500  0.36410500  0.21950000  1
  H  4596  1  0.27179700  0.43156300  0.22690100  1
  H  4597  1  0.17188300  0.38006200  0.19294900  1
  H  4599  1  0.20533400  0.37660500  0.17810300  1
  H  4600  1  0.22588600  0.39275500  0.18825800  1
  H  4601  1  0.22505700  0.36415800  0.19231600  1
  H  4602  1  0.20357300  0.39619700  0.25298400  1
  H  4604  1  0.21680900  0.43290800  0.21803200  1
  H  4605  1  0.21955900  0.43247500  0.24259200  1
  H  4606  1  0.23763300  0.44798300  0.22896000  1
  H  4613  1  0.77713900  0.10129200  0.74889400  1
  H  4620  1  0.69936900  0.14129300  0.72378200  1
  H  4621  1  0.66130200  0.13533700  0.71954100  1
  H  4622  1  0.67033600  0.06787800  0.72690200  1
  H  4623  1  0.77021700  0.11939500  0.69295700  1
  H  4625  1  0.73675200  0.12291200  0.67811300  1
  H  4626  1  0.71617500  0.10678600  0.68826300  1
  H  4627  1  0.71705500  0.13537900  0.69234200  1
  H  4628  1  0.73850300  0.10326600  0.75298600  1
  H  4630  1  0.72533200  0.06659100  0.71803900  1
  H  4631  1  0.72255800  0.06700900  0.74259700  1
  H  4632  1  0.70451300  0.05149200  0.72894800  1
  H  4639  1  0.62633800  0.44150000  0.00011900  1
  H  4646  1  0.58419200  0.51802600  0.97648610  1
  H  4647  1  0.58761800  0.55645900  0.97266810  1
  H  4648  1  0.65537800  0.55187500  0.98077010  1
  H  4649  1  0.60971000  0.45023000  0.94402410  1
  H  4651  1  0.60640200  0.48416200  0.92993310  1
  H  4652  1  0.62128100  0.50496200  0.94106910  1
  H  4653  1  0.59262900  0.50272000  0.94440010  1
  H  4654  1  0.62383200  0.48004900  0.00511200  1
  H  4656  1  0.66066900  0.49748000  0.97141810  1
  H  4657  1  0.65930300  0.49932100  0.99601313  1
  H  4658  1  0.67397200  0.51887300  0.98320010  1
  H  4665  1  0.31566400  0.05784900  0.50018200  1
  H  4672  1  0.35783500  0.98139400  0.47647200  1
  H  4673  1  0.35445800  0.94296500  0.47262700  1
  H  4674  1  0.28669600  0.94744200  0.48078700  1
  H  4675  1  0.33220900  0.04915000  0.44407000  1
  H  4677  1  0.33551200  0.01522700  0.42996600  1
  H  4678  1  0.32063200  0.99443400  0.44111000  1
  H  4679  1  0.34929000  0.99664700  0.44440900  1
  H  4680  1  0.31819000  0.01929500  0.50515800  1
  H  4682  1  0.28133200  0.00183200  0.47147300  1
  H  4683  1  0.28271700  0.99999200  0.49606700  1
  H  4684  1  0.26806300  0.98042200  0.48326100  1
  H  4691  1  0.62600100  0.05717600  0.88372000  1
  H  4698  1  0.58416300  0.98069600  0.90820010  1
  H  4699  1  0.58788500  0.94236300  0.91243510  1
  H  4700  1  0.65557200  0.94729700  0.90408410  1
  H  4701  1  0.60890500  0.04915800  0.93978910  1
  H  4703  1  0.60580300  0.01545400  0.95424510  1
  H  4704  1  0.62086500  0.99457900  0.94339210  1
  H  4705  1  0.59221200  0.99658300  0.93995610  1
  H  4706  1  0.62369500  0.01854600  0.87911100  1
  H  4708  1  0.66046200  0.00191300  0.91291810  1
  H  4709  1  0.65913700  0.99960600  0.88834900  1
  H  4710  1  0.67393400  0.98040300  0.90143410  1
  H  4717  1  0.31596900  0.44222500  0.38370500  1
  H  4724  1  0.35785000  0.51864800  0.40820100  1
  H  4725  1  0.35415800  0.55699400  0.41244900  1
  H  4726  1  0.28644800  0.55208500  0.40413600  1
  H  4727  1  0.33306400  0.45016300  0.43977600  1
  H  4729  1  0.33619300  0.48385700  0.45425900  1
  H  4730  1  0.32115700  0.50476100  0.44342300  1
  H  4731  1  0.34980500  0.50272200  0.43997900  1
  H  4732  1  0.31828800  0.48085600  0.37912500  1
  H  4734  1  0.28154000  0.49745600  0.41293000  1
  H  4735  1  0.28287200  0.49979900  0.38836500  1
  H  4736  1  0.26807600  0.51898600  0.40146800  1
  C  1  1  0.58342300  0.88647100  0.07120900  1
  C  2  1  0.58487300  0.87463200  0.08818600  1
  C  3  1  0.56549100  0.86778200  0.09741500  1
  C  4  1  0.54524300  0.87004600  0.08830000  1
  C  5  1  0.54358500  0.88068800  0.07100900  1
  C  6  1  0.56255000  0.89025400  0.06304200  1
  C  7  1  0.60580800  0.87032800  0.09559300  1
  C  8  1  0.56134200  0.90394100  0.04729900  1
  C  10  1  0.60274500  0.89516000  0.06281300  1
  C  11  1  0.62377300  0.89018600  0.07028600  1
  C  12  1  0.64290000  0.89855100  0.06158200  1
  C  13  1  0.64038000  0.91300000  0.04643700  1
  C  14  1  0.61978600  0.92077100  0.04071300  1
  C  15  1  0.60086600  0.91021400  0.04777800  1
  C  16  1  0.62479100  0.87755400  0.08667800  1
  C  18  1  0.57990600  0.91455200  0.04047100  1
  C  23  1  0.35863100  0.61275000  0.57127100  1
  C  24  1  0.35718900  0.62457800  0.58825400  1
  C  25  1  0.37657800  0.63141700  0.59748000  1
  C  26  1  0.39682300  0.62914700  0.58836400  1
  C  27  1  0.39846900  0.61854900  0.57105600  1
  C  28  1  0.37950100  0.60898600  0.56308800  1
  C  29  1  0.33625700  0.62888400  0.59566700  1
  C  30  1  0.38070600  0.59533100  0.54732500  1
  C  32  1  0.33930700  0.60407400  0.56287100  1
  C  33  1  0.31827700  0.60905300  0.57035000  1
  C  34  1  0.29913700  0.60069700  0.56165100  1
  C  35  1  0.30164300  0.58623400  0.54651700  1
  C  36  1  0.32224400  0.57857800  0.54073300  1
  C  37  1  0.34119000  0.58905300  0.54781500  1
  C  38  1  0.31727000  0.62166300  0.58675400  1
  C  40  1  0.36214300  0.58471800  0.54049600  1
  C  45  1  0.10542100  0.13835100  0.82240400  1
  C  46  1  0.09360100  0.13685200  0.83938800  1
  C  47  1  0.08697200  0.15624100  0.84872100  1
  C  48  1  0.08933300  0.17653000  0.83970300  1
  C  49  1  0.09993100  0.17817200  0.82240300  1
  C  50  1  0.10940200  0.15923100  0.81434800  1
  C  51  1  0.08908200  0.11588900  0.84664400  1
  C  52  1  0.12314800  0.16047800  0.79863700  1
  C  54  1  0.11387700  0.11905000  0.81384600  1
  C  55  1  0.10847800  0.09800300  0.82103000  1
  C  56  1  0.11649400  0.07892700  0.81202500  1
  C  57  1  0.13120200  0.08143200  0.79705700  1
  C  58  1  0.13936500  0.10199100  0.79172300  1
  C  59  1  0.12904500  0.12094600  0.79890700  1
  C  60  1  0.09584600  0.09691800  0.83742300  1
  C  62  1  0.13367600  0.14190200  0.79175200  1
  C  67  1  0.83664300  0.36101900  0.32238100  1
  C  68  1  0.84850600  0.36252800  0.33934100  1
  C  69  1  0.85517500  0.34315600  0.34867900  1
  C  70  1  0.85278200  0.32286000  0.33967000  1
  C  71  1  0.84211700  0.32119800  0.32240100  1
  C  72  1  0.83263300  0.34013300  0.31434800  1
  C  73  1  0.85304500  0.38349600  0.34657900  1
  C  74  1  0.81884000  0.33887300  0.29866800  1
  C  76  1  0.82817000  0.38031300  0.31382800  1
  C  77  1  0.83356700  0.40136400  0.32099700  1
  C  78  1  0.82554900  0.42042800  0.31198100  1
  C  79  1  0.81078700  0.41789800  0.29705000  1
  C  80  1  0.80259600  0.39732900  0.29172300  1
  C  81  1  0.81297600  0.37841500  0.29891000  1
  C  82  1  0.84621800  0.40246000  0.33737900  1
  C  84  1  0.80832600  0.35745400  0.29177400  1
  C  89  1  0.58303000  0.61172000  0.50768400  1
  C  90  1  0.58443500  0.62395900  0.49091800  1
  C  91  1  0.56503100  0.63065800  0.48165700  1
  C  92  1  0.54475300  0.62788300  0.49061400  1
  C  93  1  0.54303500  0.61703200  0.50783500  1
  C  94  1  0.56213400  0.60747700  0.51564600  1
  C  95  1  0.60534600  0.62867700  0.48365900  1
  C  96  1  0.56094400  0.59282500  0.53075000  1
  C  98  1  0.60240000  0.60293700  0.51594300  1
  C  99  1  0.62341100  0.60828900  0.50860700  1
  C  100  1  0.64259800  0.59976500  0.51710600  1
  C  101  1  0.64016200  0.58486200  0.53193800  1
  C  102  1  0.61961900  0.57685200  0.53754400  1
  C  103  1  0.60060200  0.58735800  0.53059700  1
  C  104  1  0.62436200  0.62138900  0.49247900  1
  C  106  1  0.57960100  0.58229200  0.53747200  1
  C  111  1  0.35901300  0.88767600  0.00761900  1
  C  112  1  0.35761600  0.87542300  0.99085900  1
  C  113  1  0.37702900  0.86872700  0.98161000  1
  C  114  1  0.39730300  0.87150300  0.99057000  1
  C  115  1  0.39900900  0.88234300  0.00779800  1
  C  116  1  0.37990600  0.89190700  0.01559500  1
  C  117  1  0.33671000  0.87069700  0.98359400  1
  C  118  1  0.38108600  0.90656600  0.03069300  1
  C  120  1  0.33963800  0.89646900  0.01586500  1
  C  121  1  0.31863300  0.89110800  0.00852200  1
  C  122  1  0.29944000  0.89964400  0.01700300  1
  C  123  1  0.30187800  0.91458700  0.03180000  1
  C  124  1  0.32241200  0.92256300  0.03746000  1
  C  125  1  0.34143300  0.91205400  0.03051700  1
  C  126  1  0.31769100  0.87800100  0.99239800  1
  C  128  1  0.36243200  0.91712500  0.03739100  1
  C  133  1  0.10643300  0.36072900  0.75659300  1
  C  134  1  0.09422700  0.36214200  0.73981200  1
  C  135  1  0.08776300  0.34270800  0.73047600  1
  C  136  1  0.09060000  0.32241600  0.73938700  1
  C  137  1  0.10138100  0.32076800  0.75663300  1
  C  138  1  0.11087400  0.33985100  0.76447900  1
  C  139  1  0.08929400  0.38306400  0.73267500  1
  C  140  1  0.12554700  0.33866000  0.77957100  1
  C  142  1  0.11494600  0.38009400  0.76501200  1
  C  143  1  0.10916400  0.40110500  0.75794900  1
  C  144  1  0.11729600  0.42025600  0.76676200  1
  C  145  1  0.13240300  0.41786900  0.78145100  1
  C  146  1  0.14083900  0.39738100  0.78667000  1
  C  147  1  0.13060500  0.37831500  0.77959800  1
  C  148  1  0.09610600  0.40208500  0.74179200  1
  C  150  1  0.13596600  0.35734200  0.78634600  1
  C  155  1  0.83561000  0.13865400  0.25659500  1
  C  156  1  0.84784500  0.13723500  0.23982900  1
  C  157  1  0.85434300  0.15665400  0.23048900  1
  C  158  1  0.85147300  0.17695100  0.23939200  1
  C  159  1  0.84064800  0.17861300  0.25661700  1
  C  160  1  0.83114500  0.15953600  0.26446000  1
  C  161  1  0.85279200  0.11630800  0.23271000  1
  C  162  1  0.81643900  0.16073600  0.27953000  1
  C  164  1  0.82708400  0.11929400  0.26501200  1
  C  165  1  0.83286500  0.09828200  0.25796000  1
  C  166  1  0.82473800  0.07914100  0.26678800  1
  C  167  1  0.80958600  0.08155200  0.28144900  1
  C  168  1  0.80112700  0.10204800  0.28666500  1
  C  169  1  0.81140900  0.12107600  0.27958200  1
  C  170  1  0.84594100  0.09729200  0.24181500  1
  C  172  1  0.80603700  0.14205100  0.28631600  1
  C  177  1  0.35972300  0.11778800  0.00635200  1
  C  178  1  0.35794100  0.12818900  0.98872400  1
  C  179  1  0.37697800  0.13637900  0.97977400  1
  C  180  1  0.39694400  0.13651300  0.98950500  1
  C  181  1  0.39868100  0.12764300  0.00748900  1
  C  182  1  0.38028300  0.11722800  0.01562700  1
  C  183  1  0.33708600  0.12966200  0.98040700  1
  C  184  1  0.38180300  0.10583400  0.03264700  1
  C  186  1  0.34119300  0.10695100  0.01416800  1
  C  187  1  0.32025800  0.10867800  0.00560200  1
  C  188  1  0.30194100  0.09782300  0.01353500  1
  C  189  1  0.30589200  0.08273300  0.02801400  1
  C  190  1  0.32679600  0.07919800  0.03576900  1
  C  191  1  0.34394500  0.09333000  0.03003300  1
  C  192  1  0.31860300  0.12060600  0.98886900  1
  C  194  1  0.36417000  0.09371900  0.03944100  1
  C  199  1  0.58235100  0.38156100  0.50631300  1
  C  200  1  0.58412000  0.37116200  0.48868400  1
  C  201  1  0.56507000  0.36300100  0.47973700  1
  C  202  1  0.54510200  0.36289300  0.48946300  1
  C  203  1  0.54338200  0.37174200  0.50745600  1
  C  204  1  0.56179300  0.38213400  0.51559500  1
  C  205  1  0.60497400  0.36966500  0.48036700  1
  C  206  1  0.56028500  0.39353000  0.53261400  1
  C  208  1  0.60089100  0.39237700  0.51413300  1
  C  209  1  0.62182300  0.39063500  0.50556400  1
  C  210  1  0.64014800  0.40147200  0.51349800  1
  C  211  1  0.63620700  0.41656700  0.52797400  1
  C  212  1  0.61531300  0.42011000  0.53575500  1
  C  213  1  0.59815500  0.40599600  0.53000000  1
  C  214  1  0.62346100  0.37871700  0.48882300  1
  C  216  1  0.57793000  0.40562500  0.53940900  1
  C  221  1  0.83710500  0.86118600  0.25689100  1
  C  222  1  0.85144100  0.86261400  0.24139300  1
  C  223  1  0.85789700  0.84331200  0.23188800  1
  C  224  1  0.85358600  0.82288400  0.24011000  1
  C  225  1  0.84097800  0.82121900  0.25640900  1
  C  226  1  0.83112700  0.84028200  0.26390600  1
  C  227  1  0.85885400  0.88342300  0.23579200  1
  C  228  1  0.81524100  0.83922600  0.27806800  1
  C  230  1  0.82828700  0.88062100  0.26493900  1
  C  231  1  0.83609800  0.90153300  0.25918600  1
  C  232  1  0.82765900  0.92074200  0.26767900  1
  C  233  1  0.80955000  0.91869200  0.27969000  1
  C  234  1  0.80037200  0.89833800  0.28438300  1
  C  235  1  0.81095400  0.87903800  0.27811800  1
  C  236  1  0.85222100  0.90234300  0.24515200  1
  C  238  1  0.80447000  0.85805300  0.28414600  1
  C  243  1  0.10498200  0.63820700  0.75690400  1
  C  244  1  0.09063400  0.63678000  0.74141300  1
  C  245  1  0.08416000  0.65606600  0.73189300  1
  C  246  1  0.08850700  0.67649500  0.74010900  1
  C  247  1  0.10115500  0.67817300  0.75638600  1
  C  248  1  0.11098600  0.65911100  0.76389700  1
  C  249  1  0.08319800  0.61597100  0.73583400  1
  C  250  1  0.12688100  0.66016900  0.77805400  1
  C  252  1  0.11378500  0.61877100  0.76496500  1
  C  253  1  0.10597000  0.59786100  0.75921800  1
  C  254  1  0.11438800  0.57865600  0.76773100  1
  C  255  1  0.13250800  0.58071100  0.77973200  1
  C  256  1  0.14168800  0.60106700  0.78444800  1
  C  257  1  0.13111200  0.62034900  0.77814800  1
  C  258  1  0.08985500  0.59704900  0.74517800  1
  C  260  1  0.13760800  0.64133300  0.78416900  1
  C  265  1  0.36015400  0.38241400  0.57159200  1
  C  266  1  0.35836400  0.37169200  0.58907500  1
  C  267  1  0.37741700  0.36359200  0.59803800  1
  C  268  1  0.39743500  0.36383200  0.58840000  1
  C  269  1  0.39928600  0.37297300  0.57049900  1
  C  270  1  0.38079100  0.38336400  0.56243800  1
  C  271  1  0.33749000  0.36988000  0.59730500  1
  C  272  1  0.38233900  0.39543100  0.54575700  1
  C  274  1  0.34156600  0.39328600  0.56389500  1
  C  275  1  0.32060200  0.39122900  0.57236800  1
  C  276  1  0.30223100  0.40213400  0.56456800  1
  C  277  1  0.30613000  0.41756800  0.55034200  1
  C  278  1  0.32703900  0.42144500  0.54271400  1
  C  279  1  0.34427800  0.40732600  0.54829500  1
  C  280  1  0.31897400  0.37894700  0.58891700  1
  C  282  1  0.36460000  0.40743900  0.53903900  1
  C  287  1  0.58191400  0.11690600  0.07163400  1
  C  288  1  0.58370400  0.12764300  0.08911000  1
  C  289  1  0.56463900  0.13572100  0.09807200  1
  C  290  1  0.54461600  0.13545500  0.08844400  1
  C  291  1  0.54277200  0.12632000  0.07054000  1
  C  292  1  0.56127500  0.11593800  0.06248300  1
  C  293  1  0.60457900  0.12948400  0.09733200  1
  C  294  1  0.55972700  0.10385100  0.04581100  1
  C  296  1  0.60051000  0.10605200  0.06393200  1
  C  297  1  0.62147800  0.10813800  0.07239300  1
  C  298  1  0.63986400  0.09726100  0.06458400  1
  C  299  1  0.63597700  0.08181100  0.05037000  1
  C  300  1  0.61506300  0.07791300  0.04276600  1
  C  301  1  0.59780000  0.09200400  0.04833800  1
  C  302  1  0.62309400  0.12040700  0.08895100  1
  C  304  1  0.57747300  0.09185700  0.03909100  1
  C  309  1  0.83573200  0.63841100  0.32111600  1
  C  310  1  0.85037800  0.63720700  0.33640800  1
  C  311  1  0.85654900  0.65660300  0.34590900  1
  C  312  1  0.85164600  0.67698000  0.33782000  1
  C  313  1  0.83895600  0.67850500  0.32153000  1
  C  314  1  0.82925300  0.65922700  0.31426800  1
  C  315  1  0.85820800  0.61650800  0.34189200  1
  C  316  1  0.81250400  0.66011800  0.30083700  1
  C  318  1  0.82696900  0.61886300  0.31322500  1
  C  319  1  0.83519200  0.59807100  0.31887200  1
  C  320  1  0.82677600  0.57873400  0.31058300  1
  C  321  1  0.80844200  0.58051600  0.29879100  1
  C  322  1  0.79891000  0.60073700  0.29419800  1
  C  323  1  0.80924200  0.62020400  0.30040300  1
  C  324  1  0.85164200  0.59748900  0.33264000  1
  C  326  1  0.80198400  0.64112200  0.29483900  1
  C  331  1  0.10632500  0.86095100  0.82109400  1
  C  332  1  0.09167200  0.86215700  0.83637900  1
  C  333  1  0.08547800  0.84277800  0.84589800  1
  C  334  1  0.09041700  0.82239900  0.83781300  1
  C  335  1  0.10313500  0.82086100  0.82154200  1
  C  336  1  0.11282200  0.84013500  0.81426300  1
  C  337  1  0.08382500  0.88285700  0.84184200  1
  C  338  1  0.12956200  0.83923800  0.80082400  1
  C  340  1  0.11507500  0.88049500  0.81318600  1
  C  341  1  0.10685400  0.90129000  0.81882600  1
  C  342  1  0.11524800  0.92062000  0.81051000  1
  C  343  1  0.13358500  0.91882800  0.79872100  1
  C  344  1  0.14311600  0.89860200  0.79410800  1
  C  345  1  0.13278700  0.87915400  0.80035000  1
  C  346  1  0.09043000  0.90187700  0.83261400  1
  C  348  1  0.14004400  0.85823700  0.79478700  1
  C  353  1  0.08333900  0.38139800  0.57224000  1
  C  354  1  0.08480400  0.36661400  0.58747800  1
  C  355  1  0.06534900  0.35834100  0.59568900  1
  C  356  1  0.04518400  0.36201300  0.58677700  1
  C  357  1  0.04357000  0.37536600  0.57091700  1
  C  358  1  0.06249600  0.38650300  0.56452800  1
  C  359  1  0.10578200  0.36101600  0.59415100  1
  C  360  1  0.06128900  0.40291800  0.55081200  1
  C  362  1  0.10262600  0.39169000  0.56520400  1
  C  363  1  0.12368000  0.38501900  0.57159700  1
  C  364  1  0.14277300  0.39449100  0.56372700  1
  C  365  1  0.14028300  0.41272700  0.55194000  1
  C  366  1  0.11969200  0.42121500  0.54706400  1
  C  367  1  0.10073700  0.40938600  0.55240800  1
  C  368  1  0.12476500  0.36904300  0.58569700  1
  C  370  1  0.07976300  0.41493900  0.54574800  1
  C  375  1  0.85874000  0.11795600  0.07228400  1
  C  376  1  0.85727900  0.13275800  0.08751100  1
  C  377  1  0.87673600  0.14103900  0.09571200  1
  C  378  1  0.89690000  0.13734300  0.08680400  1
  C  379  1  0.89850500  0.12400400  0.07093600  1
  C  380  1  0.87958000  0.11285400  0.06456500  1
  C  381  1  0.83630500  0.13835900  0.09418800  1
  C  382  1  0.88078100  0.09643100  0.05085500  1
  C  384  1  0.83945100  0.10766400  0.06525500  1
  C  385  1  0.81839900  0.11435500  0.07163800  1
  C  386  1  0.79930300  0.10489700  0.06376100  1
  C  387  1  0.80178800  0.08664500  0.05199500  1
  C  388  1  0.82237500  0.07815200  0.04710500  1
  C  389  1  0.84133500  0.08996500  0.05246000  1
  C  390  1  0.81732000  0.13033100  0.08573800  1
  C  392  1  0.86230900  0.08438800  0.04581700  1
  C  397  1  0.60203500  0.63747700  0.32218500  1
  C  398  1  0.59067400  0.63591900  0.33942300  1
  C  399  1  0.58091000  0.65490700  0.34725900  1
  C  400  1  0.58117100  0.67465400  0.33722700  1
  C  401  1  0.59141400  0.67626200  0.31977500  1
  C  402  1  0.60261900  0.65781500  0.31249500  1
  C  403  1  0.59030100  0.61548800  0.34858700  1
  C  404  1  0.61482100  0.65912600  0.29588100  1
  C  406  1  0.61383900  0.61902600  0.31522300  1
  C  407  1  0.61260200  0.59837400  0.32438000  1
  C  408  1  0.62433800  0.58008600  0.31731700  1
  C  409  1  0.63939000  0.58387100  0.30279500  1
  C  410  1  0.64241900  0.60451600  0.29444800  1
  C  411  1  0.62792100  0.62160100  0.29962200  1
  C  412  1  0.60042200  0.59704300  0.34098200  1
  C  414  1  0.62756200  0.64156700  0.28982300  1
  C  419  1  0.34007700  0.86191000  0.82214600  1
  C  420  1  0.35144700  0.86346300  0.83937900  1
  C  421  1  0.36124100  0.84448700  0.84720700  1
  C  422  1  0.36095400  0.82473800  0.83717300  1
  C  423  1  0.35069800  0.82312800  0.81972700  1
  C  424  1  0.33948500  0.84157400  0.81245500  1
  C  425  1  0.35182300  0.88388900  0.84855200  1
  C  426  1  0.32727200  0.84026700  0.79584500  1
  C  428  1  0.32827800  0.88036500  0.81518800  1
  C  429  1  0.32950500  0.90101000  0.82435600  1
  C  430  1  0.31777100  0.91930000  0.81729600  1
  C  431  1  0.30274700  0.91552700  0.80274900  1
  C  432  1  0.29973600  0.89489300  0.79436400  1
  C  433  1  0.31420500  0.87780500  0.79957900  1
  C  434  1  0.34167500  0.90233100  0.84096500  1
  C  436  1  0.31454400  0.85783500  0.78978700  1
  C  441  1  0.08298300  0.11681000  0.00700000  1
  C  442  1  0.08432800  0.13170900  0.99183900  1
  C  443  1  0.06479800  0.13957100  0.98346400  1
  C  444  1  0.04458800  0.13534400  0.99213300  1
  C  445  1  0.04304100  0.12206600  0.00805800  1
  C  446  1  0.06215500  0.11130400  0.01451600  1
  C  447  1  0.10527000  0.13768200  0.98532900  1
  C  448  1  0.06097100  0.09427700  0.02768200  1
  C  450  1  0.10234500  0.10663800  0.01401500  1
  C  451  1  0.12334600  0.11360700  0.00772900  1
  C  452  1  0.14252000  0.10416800  0.01548800  1
  C  453  1  0.14018800  0.08578800  0.02713600  1
  C  454  1  0.11966900  0.07703900  0.03190000  1
  C  455  1  0.10058700  0.08867800  0.02656200  1
  C  456  1  0.12430500  0.12978800  0.99378800  1
  C  458  1  0.07959500  0.08252500  0.03279800  1
  C  463  1  0.85911200  0.38259100  0.50693700  1
  C  464  1  0.85778000  0.36769100  0.49177600  1
  C  465  1  0.87731600  0.35983200  0.48340900  1
  C  466  1  0.89751900  0.36407500  0.49208000  1
  C  467  1  0.89905300  0.37733500  0.50801700  1
  C  468  1  0.87993300  0.38809300  0.51447000  1
  C  469  1  0.83684500  0.36172100  0.48525000  1
  C  470  1  0.88110700  0.40511300  0.52764100  1
  C  472  1  0.83974300  0.39275700  0.51394500  1
  C  473  1  0.81874700  0.38577600  0.50765500  1
  C  474  1  0.79955900  0.39520600  0.51540600  1
  C  475  1  0.80187300  0.41360000  0.52703900  1
  C  476  1  0.82239400  0.42231200  0.53183200  1
  C  477  1  0.84149500  0.41071000  0.52650000  1
  C  478  1  0.81780300  0.36960300  0.49370600  1
  C  480  1  0.86248100  0.41687400  0.53273900  1
  C  485  1  0.60275300  0.86136500  0.25698500  1
  C  486  1  0.59123900  0.86296000  0.23982400  1
  C  487  1  0.58171300  0.84393400  0.23187400  1
  C  488  1  0.58237600  0.82408600  0.24173000  1
  C  489  1  0.59270100  0.82234100  0.25916100  1
  C  490  1  0.60367200  0.84092100  0.26651900  1
  C  491  1  0.59055200  0.88345100  0.23077700  1
  C  492  1  0.61643700  0.83953000  0.28282300  1
  C  494  1  0.61451600  0.87987200  0.26391000  1
  C  495  1  0.61301000  0.90057900  0.25486200  1
  C  496  1  0.62474600  0.91890700  0.26185700  1
  C  497  1  0.64006700  0.91512500  0.27617700  1
  C  498  1  0.64341600  0.89443100  0.28434900  1
  C  499  1  0.62892800  0.87728700  0.27928900  1
  C  500  1  0.60060700  0.90192300  0.23838300  1
  C  502  1  0.62901500  0.85719300  0.28889200  1
  C  507  1  0.33933500  0.63798300  0.75702300  1
  C  508  1  0.35086300  0.63637300  0.73987200  1
  C  509  1  0.36044100  0.65537400  0.73192600  1
  C  510  1  0.35976400  0.67523100  0.74177500  1
  C  511  1  0.34943200  0.67699400  0.75920200  1
  C  512  1  0.33842600  0.65843100  0.76655100  1
  C  513  1  0.35153500  0.61588200  0.73082700  1
  C  514  1  0.32565300  0.65983800  0.78285200  1
  C  516  1  0.32755300  0.61948900  0.76394800  1
  C  517  1  0.32903500  0.59878200  0.75490000  1
  C  518  1  0.31728500  0.58046700  0.76189900  1
  C  519  1  0.30198000  0.58426400  0.77623100  1
  C  520  1  0.29867300  0.60495300  0.78443700  1
  C  521  1  0.31315100  0.62208300  0.77933200  1
  C  522  1  0.34143500  0.59742600  0.73841800  1
  C  524  1  0.31306600  0.64218400  0.78892300  1
  C  529  1  0.85971000  0.62343500  0.50551800  1
  C  530  1  0.85773000  0.63668900  0.48932200  1
  C  531  1  0.87675900  0.64616800  0.48132800  1
  C  532  1  0.89673700  0.64484500  0.49097100  1
  C  533  1  0.89857400  0.63319700  0.50774100  1
  C  534  1  0.88032600  0.62133800  0.51453400  1
  C  535  1  0.83672500  0.63954600  0.48154300  1
  C  536  1  0.88200900  0.60726900  0.53002300  1
  C  538  1  0.84128400  0.61140200  0.51213100  1
  C  539  1  0.82016300  0.61503000  0.50438000  1
  C  540  1  0.80193700  0.60350400  0.51164700  1
  C  541  1  0.80587000  0.58573500  0.52366800  1
  C  542  1  0.82683200  0.58069400  0.53061800  1
  C  543  1  0.84414100  0.59529100  0.52621200  1
  C  544  1  0.81819200  0.63005100  0.48960900  1
  C  546  1  0.86448400  0.59405900  0.53537000  1
  C  551  1  0.08231200  0.87594800  0.00546900  1
  C  552  1  0.08428500  0.86268400  0.98927800  1
  C  553  1  0.06525500  0.85320000  0.98129300  1
  C  554  1  0.04527600  0.85455100  0.99093400  1
  C  555  1  0.04344900  0.86618700  0.00770800  1
  C  556  1  0.06170200  0.87804500  0.01449400  1
  C  557  1  0.10528600  0.85982700  0.98148900  1
  C  558  1  0.06002700  0.89211500  0.02998500  1
  C  560  1  0.10074400  0.88798000  0.01207600  1
  C  561  1  0.12186200  0.88434300  0.00432500  1
  C  562  1  0.14009800  0.89585200  0.01159700  1
  C  563  1  0.13617600  0.91363800  0.02360000  1
  C  564  1  0.11521300  0.91867700  0.03054800  1
  C  565  1  0.09789300  0.90408900  0.02616000  1
  C  566  1  0.12381700  0.86934000  0.98954000  1
  C  568  1  0.07755500  0.90532800  0.03532300  1
  C  573  1  0.34204400  0.36254000  0.75785300  1
  C  574  1  0.35525800  0.36463800  0.74166400  1
  C  575  1  0.36496000  0.34572300  0.73369600  1
  C  576  1  0.36363000  0.32564600  0.74317900  1
  C  577  1  0.35202200  0.32361500  0.75996700  1
  C  578  1  0.34019600  0.34186800  0.76686200  1
  C  579  1  0.35787100  0.38562400  0.73378500  1
  C  580  1  0.32636800  0.34015100  0.78249500  1
  C  582  1  0.32977400  0.38088000  0.76437900  1
  C  583  1  0.33283300  0.40198300  0.75635000  1
  C  584  1  0.32080500  0.42009600  0.76330800  1
  C  585  1  0.30334600  0.41591000  0.77560500  1
  C  586  1  0.29901900  0.39498000  0.78297700  1
  C  587  1  0.31388700  0.37788800  0.77861500  1
  C  588  1  0.34788100  0.40404700  0.74160200  1
  C  590  1  0.31310500  0.35760700  0.78792900  1
  C  595  1  0.59992300  0.13681500  0.25788900  1
  C  596  1  0.58670000  0.13472000  0.24170500  1
  C  597  1  0.57697500  0.15361800  0.23373000  1
  C  598  1  0.57833300  0.17370000  0.24321300  1
  C  599  1  0.58995000  0.17573700  0.25999600  1
  C  600  1  0.60178000  0.15748900  0.26689200  1
  C  601  1  0.58407800  0.11373600  0.23382900  1
  C  602  1  0.61561300  0.15920800  0.28252100  1
  C  604  1  0.61218400  0.11847000  0.26441800  1
  C  605  1  0.60912900  0.09737200  0.25638500  1
  C  606  1  0.62114700  0.07925600  0.26334900  1
  C  607  1  0.63857700  0.08343600  0.27567800  1
  C  608  1  0.64290300  0.10435800  0.28307500  1
  C  609  1  0.62805900  0.12145600  0.27866700  1
  C  610  1  0.59411300  0.09532000  0.24161300  1
  C  612  1  0.62885700  0.14174300  0.28796900  1
  C  617  1  0.86017300  0.87674800  0.07208400  1
  C  618  1  0.85827300  0.86342300  0.08824100  1
  C  619  1  0.87739000  0.85429400  0.09636200  1
  C  620  1  0.89743400  0.85604000  0.08687200  1
  C  621  1  0.89925500  0.86762200  0.07005400  1
  C  622  1  0.88083000  0.87917200  0.06318300  1
  C  623  1  0.83726400  0.86023700  0.09591900  1
  C  624  1  0.88250900  0.89369300  0.04799600  1
  C  626  1  0.84164800  0.88866900  0.06551000  1
  C  627  1  0.82054300  0.88479300  0.07320400  1
  C  628  1  0.80224200  0.89629300  0.06603900  1
  C  629  1  0.80604600  0.91422800  0.05416900  1
  C  630  1  0.82699600  0.91955000  0.04734200  1
  C  631  1  0.84441200  0.90501900  0.05161800  1
  C  632  1  0.81866300  0.86959100  0.08785000  1
  C  634  1  0.86482900  0.90667900  0.04263200  1
  C  639  1  0.08185700  0.62264300  0.57212100  1
  C  640  1  0.08374800  0.63597700  0.58827200  1
  C  641  1  0.06462600  0.64510200  0.59638900  1
  C  642  1  0.04458200  0.64332600  0.58690500  1
  C  643  1  0.04277200  0.63175200  0.57008100  1
  C  644  1  0.06120400  0.62020900  0.56321600  1
  C  645  1  0.10475200  0.63917300  0.59595600  1
  C  646  1  0.05953400  0.60568300  0.54803200  1
  C  648  1  0.10039000  0.61073600  0.56554700  1
  C  649  1  0.12149300  0.61463200  0.57323500  1
  C  650  1  0.13980800  0.60316400  0.56605500  1
  C  651  1  0.13601300  0.58521000  0.55420100  1
  C  652  1  0.11506800  0.57986900  0.54737500  1
  C  653  1  0.09763800  0.59438500  0.55165200  1
  C  654  1  0.12335400  0.62980900  0.58789900  1
  C  656  1  0.07722200  0.59270700  0.54267000  1
  C  661  1  0.34113500  0.13725300  0.81990100  1
  C  662  1  0.35447500  0.13518200  0.83601700  1
  C  663  1  0.36384600  0.15416200  0.84414100  1
  C  664  1  0.36203100  0.17433500  0.83488000  1
  C  665  1  0.35042400  0.17642300  0.81807700  1
  C  666  1  0.33893500  0.15800000  0.81105600  1
  C  667  1  0.35745100  0.11416700  0.84374100  1
  C  668  1  0.32456800  0.15976600  0.79578000  1
  C  670  1  0.32894200  0.11883500  0.81342200  1
  C  671  1  0.33226100  0.09772000  0.82135700  1
  C  672  1  0.32021200  0.07955100  0.81452900  1
  C  673  1  0.30255100  0.08365500  0.80242200  1
  C  674  1  0.29793700  0.10459400  0.79519400  1
  C  675  1  0.31275700  0.12178000  0.79942200  1
  C  676  1  0.34754400  0.09570300  0.83593500  1
  C  678  1  0.31151500  0.14217000  0.79032200  1
  C  683  1  0.60084200  0.36212700  0.31985000  1
  C  684  1  0.58749700  0.36420600  0.33596200  1
  C  685  1  0.57809800  0.34525100  0.34409800  1
  C  686  1  0.57993600  0.32506800  0.33484300  1
  C  687  1  0.59153800  0.32296500  0.31803700  1
  C  688  1  0.60304500  0.34137600  0.31101600  1
  C  689  1  0.58452200  0.38522300  0.34368000  1
  C  690  1  0.61741300  0.33959700  0.29574500  1
  C  692  1  0.61303300  0.38054400  0.31336000  1
  C  693  1  0.60972300  0.40165900  0.32129600  1
  C  694  1  0.62177200  0.41982200  0.31445900  1
  C  695  1  0.63940100  0.41571800  0.30231700  1
  C  696  1  0.64399500  0.39478100  0.29506700  1
  C  697  1  0.62920100  0.37759400  0.29934900  1
  C  698  1  0.59446200  0.40367900  0.33588800  1
  C  700  1  0.63045900  0.35719000  0.29027200  1
  C  705  1  0.61909700  0.94328700  0.03542900  1
  C  706  1  0.62673000  0.95886900  0.04842400  1
  C  707  1  0.62565300  0.98151700  0.04509500  1
  C  708  1  0.61554400  0.98890000  0.02843200  1
  C  709  1  0.60841700  0.97352100  0.01511500  1
  C  710  1  0.61060800  0.95095200  0.01841600  1
  C  712  1  0.61063000  0.01142100  0.02617700  1
  C  713  1  0.62658800  0.02506500  0.01809700  1
  C  714  1  0.62661900  0.04764900  0.02161400  1
  C  715  1  0.61129600  0.05711400  0.03393000  1
  C  716  1  0.59435900  0.04346700  0.04068000  1
  C  717  1  0.59340000  0.02091400  0.03666200  1
  C  722  1  0.63474300  0.99677000  0.05929300  1
  C  727  1  0.57553600  0.00744600  0.04482000  1
  C  731  1  0.32296100  0.55604200  0.53546700  1
  C  732  1  0.31545000  0.54044400  0.54849900  1
  C  733  1  0.31655000  0.51779800  0.54516200  1
  C  734  1  0.32658200  0.51043700  0.52845700  1
  C  735  1  0.33360300  0.52583400  0.51511400  1
  C  736  1  0.33135600  0.54839700  0.51841300  1
  C  738  1  0.33149000  0.48792100  0.52616000  1
  C  739  1  0.31552900  0.47429900  0.51805500  1
  C  740  1  0.31549300  0.45170700  0.52154400  1
  C  741  1  0.33081600  0.44222500  0.53385300  1
  C  742  1  0.34778000  0.45585000  0.54058900  1
  C  743  1  0.34875300  0.47840400  0.53658900  1
  C  748  1  0.30755300  0.50252500  0.55938700  1
  C  753  1  0.36664600  0.49185000  0.54472600  1
  C  757  1  0.16215800  0.10248700  0.78736500  1
  C  758  1  0.17697200  0.09474400  0.80095600  1
  C  759  1  0.19977900  0.09554200  0.79845300  1
  C  760  1  0.20809100  0.10551900  0.78206000  1
  C  761  1  0.19349100  0.11281700  0.76818700  1
  C  762  1  0.17075900  0.11091200  0.77066100  1
  C  764  1  0.23080600  0.10969400  0.78036300  1
  C  765  1  0.24403400  0.09357700  0.77200200  1
  C  766  1  0.26666500  0.09314000  0.77521700  1
  C  767  1  0.27659900  0.10826300  0.78743200  1
  C  768  1  0.26333400  0.12516500  0.79472900  1
  C  769  1  0.24072600  0.12651800  0.79103600  1
  C  774  1  0.21421400  0.08611000  0.81309800  1
  C  779  1  0.22770400  0.14458000  0.79938800  1
  C  783  1  0.77981500  0.39695200  0.28733800  1
  C  784  1  0.76500000  0.40476300  0.30089800  1
  C  785  1  0.74219400  0.40398800  0.29838500  1
  C  786  1  0.73388200  0.39395500  0.28201800  1
  C  787  1  0.74848100  0.38658900  0.26817100  1
  C  788  1  0.77121300  0.38845600  0.27066000  1
  C  790  1  0.71116700  0.38976900  0.28032900  1
  C  791  1  0.69793400  0.40586800  0.27195000  1
  C  792  1  0.67529500  0.40626600  0.27512200  1
  C  793  1  0.66534300  0.39114300  0.28732300  1
  C  794  1  0.67863600  0.37430200  0.29469100  1
  C  795  1  0.70125100  0.37296500  0.29102800  1
  C  800  1  0.72775800  0.41348100  0.31300200  1
  C  805  1  0.71428200  0.35493900  0.29942800  1
  C  809  1  0.61916300  0.55440500  0.54304300  1
  C  810  1  0.62690000  0.53873400  0.53018000  1
  C  811  1  0.62584400  0.51611300  0.53365800  1
  C  812  1  0.61572400  0.50886500  0.55036300  1
  C  813  1  0.60856300  0.52435300  0.56357400  1
  C  814  1  0.61069900  0.54689200  0.56011600  1
  C  816  1  0.61075000  0.48637100  0.55272600  1
  C  817  1  0.62675300  0.47271200  0.56072400  1
  C  818  1  0.62678200  0.45014100  0.55715200  1
  C  819  1  0.61140600  0.44071600  0.54486200  1
  C  820  1  0.59435000  0.45434100  0.53829800  1
  C  821  1  0.59342400  0.47689000  0.54234500  1
  C  826  1  0.63489800  0.50074100  0.51953900  1
  C  831  1  0.57553700  0.49038500  0.53425700  1
  C  835  1  0.32286600  0.94499200  0.04301100  1
  C  836  1  0.31513700  0.96070400  0.03017800  1
  C  837  1  0.31621900  0.98331400  0.03369600  1
  C  838  1  0.32635000  0.99051000  0.05041100  1
  C  839  1  0.33350000  0.97498100  0.06359100  1
  C  840  1  0.33131500  0.95245200  0.06010400  1
  C  842  1  0.33136200  0.01299100  0.05280800  1
  C  843  1  0.31539000  0.02665800  0.06084500  1
  C  844  1  0.31536700  0.04923100  0.05726900  1
  C  845  1  0.33072100  0.05863500  0.04494600  1
  C  846  1  0.34777700  0.04500600  0.03838300  1
  C  847  1  0.34870200  0.02246000  0.04243900  1
  C  852  1  0.30718600  0.99873300  0.01960100  1
  C  857  1  0.36657100  0.00895300  0.03433500  1
  C  861  1  0.16357900  0.39714200  0.79121000  1
  C  862  1  0.17843900  0.40496900  0.77770100  1
  C  863  1  0.20123300  0.40416300  0.78028300  1
  C  864  1  0.20946800  0.39415800  0.79669600  1
  C  865  1  0.19480800  0.38686100  0.81052000  1
  C  866  1  0.17209000  0.38874900  0.80796000  1
  C  868  1  0.23215800  0.38986600  0.79841900  1
  C  869  1  0.24546300  0.40600300  0.80665800  1
  C  870  1  0.26806300  0.40640100  0.80330100  1
  C  871  1  0.27787500  0.39121300  0.79107100  1
  C  872  1  0.26457300  0.37421300  0.78400000  1
  C  873  1  0.24198600  0.37293200  0.78780500  1
  C  878  1  0.21574100  0.41353100  0.76566300  1
  C  883  1  0.22886400  0.35488000  0.77955700  1
  C  887  1  0.77839500  0.10218100  0.29121300  1
  C  888  1  0.76354400  0.09429500  0.27772100  1
  C  889  1  0.74074800  0.09507200  0.28030600  1
  C  890  1  0.73250300  0.10511200  0.29669700  1
  C  891  1  0.74715200  0.11246800  0.31050800  1
  C  892  1  0.76987300  0.11062600  0.30794000  1
  C  894  1  0.70981000  0.10940000  0.29841200  1
  C  895  1  0.69650800  0.09326800  0.30665700  1
  C  896  1  0.67389800  0.09289900  0.30334900  1
  C  897  1  0.66405700  0.10809500  0.29114600  1
  C  898  1  0.67738100  0.12504300  0.28400600  1
  C  899  1  0.69997800  0.12631600  0.28778100  1
  C  904  1  0.72625000  0.08565000  0.26570400  1
  C  909  1  0.71309700  0.14434700  0.27949600  1
  C  913  1  0.77799700  0.89847900  0.29000100  1
  C  914  1  0.76240300  0.90678600  0.27735500  1
  C  915  1  0.73978100  0.90585800  0.28092800  1
  C  916  1  0.73253300  0.89551100  0.29753700  1
  C  917  1  0.74800600  0.88801700  0.31061500  1
  C  918  1  0.77052600  0.88992500  0.30705300  1
  C  920  1  0.71006200  0.89051500  0.29994400  1
  C  921  1  0.69647000  0.90630500  0.30831600  1
  C  922  1  0.67380800  0.90607600  0.30523300  1
  C  923  1  0.66420600  0.89061700  0.29311900  1
  C  924  1  0.67781800  0.87378800  0.28615000  1
  C  925  1  0.70050200  0.87315800  0.28965300  1
  C  930  1  0.72435800  0.91520400  0.26699600  1
  C  935  1  0.71396700  0.85550100  0.28117500  1
  C  939  1  0.16406600  0.60086600  0.79005000  1
  C  940  1  0.17964600  0.59253700  0.77740000  1
  C  941  1  0.20227300  0.59346900  0.78095800  1
  C  942  1  0.20953800  0.60383600  0.79755000  1
  C  943  1  0.19407700  0.61135800  0.81062700  1
  C  944  1  0.17155300  0.60942500  0.80709500  1
  C  946  1  0.23201100  0.60883200  0.79994500  1
  C  947  1  0.24559600  0.59308500  0.80838600  1
  C  948  1  0.26826600  0.59332200  0.80533000  1
  C  949  1  0.27786700  0.60874200  0.79318200  1
  C  950  1  0.26425900  0.62555100  0.78616700  1
  C  951  1  0.24157100  0.62617900  0.78964500  1
  C  956  1  0.21768300  0.58410500  0.76702500  1
  C  961  1  0.22810900  0.64380900  0.78112500  1
  C  965  1  0.77661300  0.60025400  0.28838600  1
  C  966  1  0.76098000  0.59178300  0.30091200  1
  C  967  1  0.73837400  0.59273600  0.29725700  1
  C  968  1  0.73120900  0.60318000  0.28066300  1
  C  969  1  0.74674300  0.61077100  0.26767900  1
  C  970  1  0.76924100  0.60886800  0.27132500  1
  C  972  1  0.70877700  0.60835600  0.27827400  1
  C  973  1  0.69507000  0.59260400  0.26997900  1
  C  974  1  0.67243100  0.59290500  0.27319100  1
  C  975  1  0.66300800  0.60840200  0.28537200  1
  C  976  1  0.67668100  0.62528200  0.29214700  1
  C  977  1  0.69933600  0.62581600  0.28852000  1
  C  982  1  0.72288000  0.58341500  0.31113900  1
  C  987  1  0.71293700  0.64341600  0.29691500  1
  C  991  1  0.16543000  0.89912800  0.78835700  1
  C  992  1  0.18102400  0.90760700  0.80091400  1
  C  993  1  0.20364000  0.90668400  0.79729600  1
  C  994  1  0.21085500  0.89625300  0.78071500  1
  C  995  1  0.19536800  0.88865900  0.76769500  1
  C  996  1  0.17285700  0.89051400  0.77131100  1
  C  998  1  0.23329800  0.89111400  0.77834700  1
  C  999  1  0.24698600  0.90688100  0.77004700  1
  C  1000  1  0.26963500  0.90656100  0.77319600  1
  C  1001  1  0.27911700  0.89105700  0.78533300  1
  C  1002  1  0.26543400  0.87422400  0.79218800  1
  C  1003  1  0.24276700  0.87367700  0.78860100  1
  C  1008  1  0.21909400  0.91603500  0.81119900  1
  C  1013  1  0.22919100  0.85607200  0.79702000  1
  C  1017  1  0.11903900  0.44387700  0.54242800  1
  C  1018  1  0.12671400  0.45897100  0.55579100  1
  C  1019  1  0.12578500  0.48172100  0.55290700  1
  C  1020  1  0.11585300  0.48960900  0.53633900  1
  C  1021  1  0.10886300  0.47468500  0.52261300  1
  C  1022  1  0.11089200  0.45203900  0.52546600  1
  C  1024  1  0.11138800  0.51221800  0.53425100  1
  C  1025  1  0.12717900  0.52546300  0.52549800  1
  C  1026  1  0.12708800  0.54820500  0.52808800  1
  C  1027  1  0.11177300  0.55825000  0.54006700  1
  C  1028  1  0.09516900  0.54489300  0.54773000  1
  C  1029  1  0.09433700  0.52213000  0.54466500  1
  C  1034  1  0.13505700  0.49656300  0.56732100  1
  C  1039  1  0.07652300  0.50903900  0.55332500  1
  C  1043  1  0.82300800  0.05550000  0.04243600  1
  C  1044  1  0.81531000  0.04038500  0.05577400  1
  C  1045  1  0.81624500  0.01763900  0.05286500  1
  C  1046  1  0.82619800  0.00977700  0.03629700  1
  C  1047  1  0.83320300  0.02472400  0.02259400  1
  C  1048  1  0.83114700  0.04736700  0.02546100  1
  C  1050  1  0.83068100  0.98717500  0.03419200  1
  C  1051  1  0.81491800  0.97392700  0.02540100  1
  C  1052  1  0.81501100  0.95118400  0.02798900  1
  C  1053  1  0.83030100  0.94114900  0.03999700  1
  C  1054  1  0.84690300  0.95450500  0.04766900  1
  C  1055  1  0.84773600  0.97726700  0.04460400  1
  C  1060  1  0.80696700  0.00277100  0.06725800  1
  C  1065  1  0.86553000  0.99036200  0.05328600  1
  C  1069  1  0.11925900  0.05438000  0.03655500  1
  C  1070  1  0.12702300  0.03933900  0.02318800  1
  C  1071  1  0.12602700  0.01657900  0.02599800  1
  C  1072  1  0.11601000  0.00863900  0.04251400  1
  C  1073  1  0.10898200  0.02351700  0.05626200  1
  C  1074  1  0.11105200  0.04617000  0.05348000  1
  C  1076  1  0.11141900  0.98604300  0.04448600  1
  C  1077  1  0.12720400  0.97267100  0.05312100  1
  C  1078  1  0.12710600  0.94996600  0.05031300  1
  C  1079  1  0.11178900  0.94009200  0.03822900  1
  C  1080  1  0.09511900  0.95353300  0.03078200  1
  C  1081  1  0.09431400  0.97625600  0.03405200  1
  C  1086  1  0.13524800  0.00177500  0.01153200  1
  C  1091  1  0.07652800  0.98948600  0.02550900  1
  C  1095  1  0.82280500  0.44497700  0.53649300  1
  C  1096  1  0.81507100  0.46002800  0.52312100  1
  C  1097  1  0.81606400  0.48278600  0.52594300  1
  C  1098  1  0.82605600  0.49071300  0.54247400  1
  C  1099  1  0.83304000  0.47582700  0.55623200  1
  C  1100  1  0.83098300  0.45317500  0.55343200  1
  C  1102  1  0.83063600  0.51330800  0.54447200  1
  C  1103  1  0.81483000  0.52665900  0.55310000  1
  C  1104  1  0.81493300  0.54937200  0.55034300  1
  C  1105  1  0.83025400  0.55927400  0.53828700  1
  C  1106  1  0.84691400  0.54585100  0.53079800  1
  C  1107  1  0.84773600  0.52312200  0.53404700  1
  C  1112  1  0.80685900  0.49760000  0.51147700  1
  C  1117  1  0.86553800  0.50991600  0.52550300  1
  C  1121  1  0.52282100  0.88104600  0.06221000  1
  C  1122  1  0.51665200  0.86360600  0.05052200  1
  C  1123  1  0.49636600  0.86355200  0.04109900  1
  C  1124  1  0.48203400  0.88164500  0.04344000  1
  C  1125  1  0.48818800  0.89900000  0.05527700  1
  C  1126  1  0.50835600  0.89871300  0.06459100  1
  C  1128  1  0.46151300  0.88287800  0.03422100  1
  C  1129  1  0.44333700  0.87282600  0.04273400  1
  C  1130  1  0.42282500  0.87285600  0.03403200  1
  C  1131  1  0.41987400  0.88303600  0.01662700  1
  C  1132  1  0.43806300  0.89309100  0.00810900  1
  C  1133  1  0.45889700  0.89326000  0.01667000  1
  C  1138  1  0.49057200  0.84474600  0.02897300  1
  C  1143  1  0.47753700  0.90408600  0.00715000  1
  C  1147  1  0.41922800  0.61821400  0.56224500  1
  C  1148  1  0.42536400  0.63565500  0.55054700  1
  C  1149  1  0.44564600  0.63573000  0.54111500  1
  C  1150  1  0.46000000  0.61765500  0.54345400  1
  C  1151  1  0.45387300  0.60029600  0.55529800  1
  C  1152  1  0.43371500  0.60056600  0.56462600  1
  C  1154  1  0.48052200  0.61644900  0.53423600  1
  C  1155  1  0.49868300  0.62651900  0.54275300  1
  C  1156  1  0.51919800  0.62651100  0.53405500  1
  C  1157  1  0.52216400  0.61633000  0.51665200  1
  C  1158  1  0.50399100  0.60625400  0.50813200  1
  C  1159  1  0.48315300  0.60606300  0.51668900  1
  C  1164  1  0.45141100  0.65454000  0.52898500  1
  C  1169  1  0.46452700  0.59521500  0.50716700  1
  C  1173  1  0.10009100  0.19880200  0.81345600  1
  C  1174  1  0.08297800  0.20425000  0.80117900  1
  C  1175  1  0.08295500  0.22418100  0.79125000  1
  C  1176  1  0.10079600  0.23879800  0.79365000  1
  C  1177  1  0.11783400  0.23336400  0.80605800  1
  C  1178  1  0.11750000  0.21355100  0.81589000  1
  C  1180  1  0.10197500  0.25901700  0.78403200  1
  C  1181  1  0.09148600  0.27724000  0.79206100  1
  C  1182  1  0.09139900  0.29748700  0.78295900  1
  C  1183  1  0.10188200  0.30006300  0.76564500  1
  C  1184  1  0.11235100  0.28183100  0.75759100  1
  C  1185  1  0.11265300  0.26125500  0.76657400  1
  C  1190  1  0.06447000  0.22929100  0.77855500  1
  C  1195  1  0.12398700  0.24252200  0.75762900  1
  C  1199  1  0.84195200  0.30056600  0.31345600  1
  C  1200  1  0.85906800  0.29511100  0.30118600  1
  C  1201  1  0.85908400  0.27518100  0.29125300  1
  C  1202  1  0.84123300  0.26057400  0.29364700  1
  C  1203  1  0.82419900  0.26601100  0.30605600  1
  C  1204  1  0.82453700  0.28582400  0.31588800  1
  C  1206  1  0.84005100  0.24035700  0.28402600  1
  C  1207  1  0.85052500  0.22212800  0.29205700  1
  C  1208  1  0.85061000  0.20188300  0.28295400  1
  C  1209  1  0.84014900  0.19931700  0.26563000  1
  C  1210  1  0.82969200  0.21755500  0.25757200  1
  C  1211  1  0.82939200  0.23813000  0.26655800  1
  C  1216  1  0.87757300  0.27006500  0.27856400  1
  C  1221  1  0.81807300  0.25686800  0.25761000  1
  C  1225  1  0.41943500  0.12827400  0.01618100  1
  C  1226  1  0.42438600  0.14500900  0.02896500  1
  C  1227  1  0.44461700  0.14551100  0.03845100  1
  C  1228  1  0.46004600  0.12861700  0.03498900  1
  C  1229  1  0.45508100  0.11198600  0.02206200  1
  C  1230  1  0.43495700  0.11179300  0.01273900  1
  C  1232  1  0.48040800  0.12759100  0.04436600  1
  C  1233  1  0.49810200  0.13950200  0.03692400  1
  C  1234  1  0.51859900  0.13916400  0.04563000  1
  C  1235  1  0.52188700  0.12677700  0.06189800  1
  C  1236  1  0.50418000  0.11491700  0.06938100  1
  C  1237  1  0.48337800  0.11507000  0.06082600  1
  C  1242  1  0.44917000  0.16341600  0.05186800  1
  C  1247  1  0.46521100  0.10228300  0.06918900  1
  C  1251  1  0.52263500  0.37110200  0.51616100  1
  C  1252  1  0.51771400  0.35438500  0.52896800  1
  C  1253  1  0.49748500  0.35386400  0.53845600  1
  C  1254  1  0.48202900  0.37072500  0.53497200  1
  C  1255  1  0.48696400  0.38734300  0.52202500  1
  C  1256  1  0.50708200  0.38754400  0.51269100  1
  C  1258  1  0.46166300  0.37173300  0.54434600  1
  C  1259  1  0.44398300  0.35979500  0.53691000  1
  C  1260  1  0.42348400  0.36011600  0.54561000  1
  C  1261  1  0.42017600  0.37252300  0.56186500  1
  C  1262  1  0.43786700  0.38441100  0.56934400  1
  C  1263  1  0.45867300  0.38427100  0.56079500  1
  C  1268  1  0.49296000  0.33597200  0.55189400  1
  C  1273  1  0.47682100  0.39709000  0.56915100  1
  C  1277  1  0.83990900  0.80059700  0.26530400  1
  C  1278  1  0.85724400  0.79420200  0.27701500  1
  C  1279  1  0.85673300  0.77421100  0.28681900  1
  C  1280  1  0.83809700  0.76052300  0.28488900  1
  C  1281  1  0.82086500  0.76683100  0.27298800  1
  C  1282  1  0.82176600  0.78667700  0.26323300  1
  C  1284  1  0.83654800  0.74019800  0.29426200  1
  C  1285  1  0.84559700  0.72173000  0.28542800  1
  C  1286  1  0.84600000  0.70145400  0.29444700  1
  C  1287  1  0.83732200  0.69911100  0.31249200  1
  C  1288  1  0.82814700  0.71755500  0.32129700  1
  C  1289  1  0.82751000  0.73817000  0.31239500  1
  C  1294  1  0.87557300  0.76804400  0.29878800  1
  C  1299  1  0.81759900  0.75716800  0.32212200  1
  C  1303  1  0.10221400  0.69879200  0.76528700  1
  C  1304  1  0.08488400  0.70516400  0.77701100  1
  C  1305  1  0.08538900  0.72515000  0.78682400  1
  C  1306  1  0.10401300  0.73885100  0.78489000  1
  C  1307  1  0.12123900  0.73256800  0.77297200  1
  C  1308  1  0.12034400  0.71272600  0.76320700  1
  C  1310  1  0.10555000  0.75917200  0.79426800  1
  C  1311  1  0.09647100  0.77763300  0.78544500  1
  C  1312  1  0.09606300  0.79790900  0.79446500  1
  C  1313  1  0.10475400  0.80025300  0.81250700  1
  C  1314  1  0.11395300  0.78181600  0.82130300  1
  C  1315  1  0.11460000  0.76120200  0.81239600  1
  C  1320  1  0.06655400  0.73129200  0.79880900  1
  C  1325  1  0.12453900  0.74221300  0.82211300  1
  C  1329  1  0.02290400  0.37665700  0.56198200  1
  C  1330  1  0.01612100  0.35939200  0.55034500  1
  C  1331  1  0.99578100  0.35990000  0.54103400  1
  C  1332  1  0.98200200  0.37840800  0.54343100  1
  C  1333  1  0.98869300  0.39555800  0.55526800  1
  C  1334  1  0.00889300  0.39466800  0.56451100  1
  C  1336  1  0.96135200  0.37998900  0.53448300  1
  C  1337  1  0.94305500  0.37095900  0.54361300  1
  C  1338  1  0.92252500  0.37057300  0.53495600  1
  C  1339  1  0.91975800  0.37916000  0.51692900  1
  C  1340  1  0.93799300  0.38842000  0.50786400  1
  C  1341  1  0.95881800  0.38910600  0.51642100  1
  C  1346  1  0.98929000  0.34112400  0.52912100  1
  C  1351  1  0.97752500  0.39914800  0.50638700  1
  C  1355  1  0.91916900  0.12271500  0.06199200  1
  C  1356  1  0.92595200  0.13998800  0.05036300  1
  C  1357  1  0.94629300  0.13948500  0.04105300  1
  C  1358  1  0.96007200  0.12097700  0.04344200  1
  C  1359  1  0.95338200  0.10381900  0.05527200  1
  C  1360  1  0.93318300  0.10470500  0.06452000  1
  C  1362  1  0.98072600  0.11940300  0.03449900  1
  C  1363  1  0.99902200  0.12841500  0.04364400  1
  C  1364  1  0.01955700  0.12880200  0.03499600  1
  C  1365  1  0.02233000  0.12023800  0.01696100  1
  C  1366  1  0.00409800  0.11098600  0.00788600  1
  C  1367  1  0.98326900  0.11029600  0.01643400  1
  C  1372  1  0.95278500  0.15826800  0.02915000  1
  C  1377  1  0.96456600  0.10026500  0.00638600  1
  C  1381  1  0.59136800  0.69706200  0.31102200  1
  C  1382  1  0.57402500  0.70314700  0.29920900  1
  C  1383  1  0.57369200  0.72372700  0.29023600  1
  C  1384  1  0.59128500  0.73849400  0.29330100  1
  C  1385  1  0.60853500  0.73238700  0.30525800  1
  C  1386  1  0.60859400  0.71189900  0.31402600  1
  C  1388  1  0.59237600  0.75926700  0.28448100  1
  C  1389  1  0.58115300  0.77695100  0.29271100  1
  C  1390  1  0.58133300  0.79772100  0.28443000  1
  C  1391  1  0.59288400  0.80136800  0.26777400  1
  C  1392  1  0.60414800  0.78370100  0.25956000  1
  C  1393  1  0.60413300  0.76263700  0.26767000  1
  C  1398  1  0.55517000  0.72935900  0.27775500  1
  C  1403  1  0.61615100  0.74455200  0.25840000  1
  C  1407  1  0.35073200  0.80232500  0.81097700  1
  C  1408  1  0.36807900  0.79622300  0.79917500  1
  C  1409  1  0.36841200  0.77563900  0.79021300  1
  C  1410  1  0.35081400  0.76087700  0.79328000  1
  C  1411  1  0.33355900  0.76700000  0.80522600  1
  C  1412  1  0.33350000  0.78749600  0.81398100  1
  C  1414  1  0.34972600  0.74009500  0.78447600  1
  C  1415  1  0.36095200  0.72242300  0.79272200  1
  C  1416  1  0.36077900  0.70164500  0.78445400  1
  C  1417  1  0.34923800  0.69797800  0.76779700  1
  C  1418  1  0.33797300  0.71563400  0.75956700  1
  C  1419  1  0.33797800  0.73670600  0.76766200  1
  C  1424  1  0.38693800  0.76999300  0.77774300  1
  C  1429  1  0.32596400  0.75478000  0.75837400  1
  C  1433  1  0.91926500  0.63291300  0.51649800  1
  C  1434  1  0.92499500  0.64982200  0.52886600  1
  C  1435  1  0.94529000  0.64977600  0.53822600  1
  C  1436  1  0.95997800  0.63217300  0.53500800  1
  C  1437  1  0.95425000  0.61535000  0.52250100  1
  C  1438  1  0.93404900  0.61570100  0.51330900  1
  C  1440  1  0.98053000  0.63094100  0.54399300  1
  C  1441  1  0.99828100  0.64202200  0.53576700  1
  C  1442  1  0.01881800  0.64216200  0.54437500  1
  C  1443  1  0.02200000  0.63118500  0.56136000  1
  C  1444  1  0.00431600  0.61996000  0.56954100  1
  C  1445  1  0.98348600  0.61958800  0.56105300  1
  C  1450  1  0.95069500  0.66792500  0.55117600  1
  C  1455  1  0.96527300  0.60755700  0.57012000  1
  C  1459  1  0.02276400  0.86646900  0.01647700  1
  C  1460  1  0.01705000  0.84957200  0.02885800  1
  C  1461  1  0.99675800  0.84961500  0.03822400  1
  C  1462  1  0.98206000  0.86720700  0.03499700  1
  C  1463  1  0.98777400  0.88402100  0.02247900  1
  C  1464  1  0.00796800  0.88366900  0.01327700  1
  C  1466  1  0.96150600  0.86843400  0.04398100  1
  C  1467  1  0.94376100  0.85734300  0.03575700  1
  C  1468  1  0.92322100  0.85720000  0.04435900  1
  C  1469  1  0.92003100  0.86818700  0.06133900  1
  C  1470  1  0.93770700  0.87942500  0.06951700  1
  C  1471  1  0.95854000  0.87979900  0.06103300  1
  C  1476  1  0.99136700  0.83147400  0.05118800  1
  C  1481  1  0.97674500  0.89184600  0.07009700  1
  C  1485  1  0.35150600  0.30265200  0.76837600  1
  C  1486  1  0.36893600  0.29582400  0.77979200  1
  C  1487  1  0.36890600  0.27504900  0.78840200  1
  C  1488  1  0.35085200  0.26085600  0.78534700  1
  C  1489  1  0.33351600  0.26767400  0.77376800  1
  C  1490  1  0.33383000  0.28835800  0.76535000  1
  C  1492  1  0.34955900  0.23985800  0.79368400  1
  C  1493  1  0.36010000  0.22226200  0.78470900  1
  C  1494  1  0.36016500  0.20133700  0.79267200  1
  C  1495  1  0.34960100  0.19750100  0.80975900  1
  C  1496  1  0.33891400  0.21504500  0.81867500  1
  C  1497  1  0.33865900  0.23626300  0.81087100  1
  C  1502  1  0.38757000  0.26861700  0.80045300  1
  C  1507  1  0.32730200  0.25426100  0.82083700  1
  C  1511  1  0.59047400  0.19670500  0.26839700  1
  C  1512  1  0.57304700  0.20353800  0.27981500  1
  C  1513  1  0.57307800  0.22431800  0.28841800  1
  C  1514  1  0.59113500  0.23850600  0.28535700  1
  C  1515  1  0.60846800  0.23168300  0.27378000  1
  C  1516  1  0.60815100  0.21099400  0.26536800  1
  C  1518  1  0.59242400  0.25951100  0.29368300  1
  C  1519  1  0.58187800  0.27709700  0.28470000  1
  C  1520  1  0.58180800  0.29802700  0.29265000  1
  C  1521  1  0.59236500  0.30187800  0.30973800  1
  C  1522  1  0.60305800  0.28434300  0.31866500  1
  C  1523  1  0.60331900  0.26312000  0.31087100  1
  C  1528  1  0.55441600  0.23075600  0.30046600  1
  C  1533  1  0.61467800  0.24513200  0.32084600  1
  C  1537  1  0.57571400  0.84288700  0.21282900  1
  C  1538  1  0.59100700  0.83467600  0.19992000  1
  C  1539  1  0.58750500  0.83630600  0.18056700  1
  C  1540  1  0.56798600  0.84637900  0.17411700  1
  C  1541  1  0.55222300  0.85365800  0.18706200  1
  C  1542  1  0.55600600  0.85188100  0.20625700  1
  C  1544  1  0.56562800  0.85259200  0.15521600  1
  C  1545  1  0.55801100  0.83708000  0.14221000  1
  C  1546  1  0.55766500  0.84192900  0.12312200  1
  C  1547  1  0.56519500  0.86230700  0.11664400  1
  C  1548  1  0.57213800  0.87802200  0.12974300  1
  C  1549  1  0.57273700  0.87346400  0.14896700  1
  C  1554  1  0.60470800  0.82847200  0.16756000  1
  C  1559  1  0.58123300  0.89037300  0.16197400  1
  C  1563  1  0.36643600  0.65644400  0.71288300  1
  C  1564  1  0.35114700  0.66468000  0.69998100  1
  C  1565  1  0.35462000  0.66301100  0.68062600  1
  C  1566  1  0.37411700  0.65290400  0.67416900  1
  C  1567  1  0.38987900  0.64560800  0.68710800  1
  C  1568  1  0.38613900  0.64744200  0.70630300  1
  C  1570  1  0.37645100  0.64667100  0.65526900  1
  C  1571  1  0.38409400  0.66215700  0.64225400  1
  C  1572  1  0.38443500  0.65728700  0.62316800  1
  C  1573  1  0.37687100  0.63691500  0.61670600  1
  C  1574  1  0.36991500  0.62121900  0.62981700  1
  C  1575  1  0.36932300  0.62579800  0.64903700  1
  C  1580  1  0.33740900  0.67084200  0.66762400  1
  C  1585  1  0.36080700  0.60891400  0.66205800  1
  C  1589  1  0.06404000  0.14559700  0.96438100  1
  C  1590  1  0.05717900  0.12972800  0.95137200  1
  C  1591  1  0.05849600  0.13337500  0.93203400  1
  C  1592  1  0.06704800  0.15361300  0.92563100  1
  C  1593  1  0.07305200  0.16986700  0.93860800  1
  C  1594  1  0.07135700  0.16599600  0.95781000  1
  C  1596  1  0.07293300  0.15638400  0.90669500  1
  C  1597  1  0.05689900  0.16326900  0.89384900  1
  C  1598  1  0.06134900  0.16352400  0.87468700  1
  C  1599  1  0.08180100  0.15649200  0.86798900  1
  C  1600  1  0.09801000  0.15024200  0.88089600  1
  C  1601  1  0.09390400  0.14989800  0.90019900  1
  C  1606  1  0.05181700  0.11569400  0.91901100  1
  C  1611  1  0.11140800  0.14235900  0.91306100  1
  C  1615  1  0.87808200  0.35381400  0.46432300  1
  C  1616  1  0.88497900  0.36967200  0.45131900  1
  C  1617  1  0.88368000  0.36602100  0.43198200  1
  C  1618  1  0.87514300  0.34577900  0.42557800  1
  C  1619  1  0.86914400  0.32951400  0.43854900  1
  C  1620  1  0.87078700  0.33340700  0.45775200  1
  C  1622  1  0.86924200  0.34300100  0.40664600  1
  C  1623  1  0.88526900  0.33612000  0.39379200  1
  C  1624  1  0.88080800  0.33586400  0.37463300  1
  C  1625  1  0.86035400  0.34289900  0.36794200  1
  C  1626  1  0.84415500  0.34915900  0.38085700  1
  C  1627  1  0.84827000  0.34949600  0.40015700  1
  C  1632  1  0.89037200  0.38369400  0.41895700  1
  C  1637  1  0.83077600  0.35703800  0.41302700  1
  C  1641  1  0.57492900  0.65604000  0.36630000  1
  C  1642  1  0.59014200  0.66450900  0.37915400  1
  C  1643  1  0.58671700  0.66289200  0.39851900  1
  C  1644  1  0.56736100  0.65257100  0.40503600  1
  C  1645  1  0.55165300  0.64505500  0.39214100  1
  C  1646  1  0.55535800  0.64681500  0.37293600  1
  C  1648  1  0.56518700  0.64627300  0.42393200  1
  C  1649  1  0.55729800  0.66158600  0.43699100  1
  C  1650  1  0.55697300  0.65661400  0.45605900  1
  C  1651  1  0.56479600  0.63631300  0.46246300  1
  C  1652  1  0.57204500  0.62080000  0.44930700  1
  C  1653  1  0.57262600  0.62548200  0.43010500  1
  C  1658  1  0.60384800  0.67099000  0.41147800  1
  C  1663  1  0.58141300  0.60878000  0.41704400  1
  C  1667  1  0.36721600  0.84331700  0.86624700  1
  C  1668  1  0.35199400  0.83483400  0.87908900  1
  C  1669  1  0.35539500  0.83645300  0.89845700  1
  C  1670  1  0.37473600  0.84679000  0.90498900  1
  C  1671  1  0.39044600  0.85432600  0.89210400  1
  C  1672  1  0.38678700  0.85252600  0.87289600  1
  C  1674  1  0.37688700  0.85309000  0.92388700  1
  C  1675  1  0.38479400  0.83778800  0.93694900  1
  C  1676  1  0.38511500  0.84276900  0.95601600  1
  C  1677  1  0.37726600  0.86306100  0.96241600  1
  C  1678  1  0.37001000  0.87856600  0.94925600  1
  C  1679  1  0.36943700  0.87387700  0.93005500  1
  C  1684  1  0.33825400  0.82835000  0.91140300  1
  C  1689  1  0.36063700  0.89057000  0.91698900  1
  C  1693  1  0.06447600  0.35242500  0.61479200  1
  C  1694  1  0.05722300  0.36826700  0.62767200  1
  C  1695  1  0.05851800  0.36481600  0.64703800  1
  C  1696  1  0.06742500  0.34480200  0.65360200  1
  C  1697  1  0.07378000  0.32854300  0.64074900  1
  C  1698  1  0.07211900  0.33221700  0.62151800  1
  C  1700  1  0.07338200  0.34234500  0.67255400  1
  C  1701  1  0.05754500  0.33517000  0.68546000  1
  C  1702  1  0.06209000  0.33503000  0.70460900  1
  C  1703  1  0.08243100  0.34246900  0.71123500  1
  C  1704  1  0.09843800  0.34904900  0.69826500  1
  C  1705  1  0.09423900  0.34928100  0.67897500  1
  C  1710  1  0.05145800  0.38248300  0.65992900  1
  C  1715  1  0.11153800  0.35713500  0.66604800  1
  C  1719  1  0.87761200  0.14694700  0.11481800  1
  C  1720  1  0.88489300  0.13111400  0.12769500  1
  C  1721  1  0.88362300  0.13457100  0.14705900  1
  C  1722  1  0.87472400  0.15458500  0.15362500  1
  C  1723  1  0.86836900  0.17085500  0.14077900  1
  C  1724  1  0.86998400  0.16716000  0.12154500  1
  C  1726  1  0.86875000  0.15704600  0.17257300  1
  C  1727  1  0.88457700  0.16422100  0.18548900  1
  C  1728  1  0.88002200  0.16435500  0.20463500  1
  C  1729  1  0.85968300  0.15690200  0.21125200  1
  C  1730  1  0.84368800  0.15031100  0.19827400  1
  C  1731  1  0.84789400  0.15009000  0.17898600  1
  C  1736  1  0.89070600  0.11691500  0.15995200  1
  C  1741  1  0.83060600  0.14223200  0.16605200  1
  C  1745  1  0.36908600  0.15495500  0.86334700  1
  C  1746  1  0.35286200  0.16215300  0.87587700  1
  C  1747  1  0.35595800  0.16120400  0.89529800  1
  C  1748  1  0.37603200  0.15282800  0.90224100  1
  C  1749  1  0.39258000  0.14636400  0.88969200  1
  C  1750  1  0.38919500  0.14749700  0.87040000  1
  C  1752  1  0.37850900  0.14781500  0.92138100  1
  C  1753  1  0.38409900  0.16471600  0.93387000  1
  C  1754  1  0.38384600  0.16110800  0.95315000  1
  C  1755  1  0.37774000  0.14058100  0.96032900  1
  C  1756  1  0.37296400  0.12349300  0.94778300  1
  C  1757  1  0.37294700  0.12680100  0.92836600  1
  C  1762  1  0.33789400  0.16811400  0.90784400  1
  C  1767  1  0.36655500  0.10846600  0.91590300  1
  C  1771  1  0.57286900  0.34441100  0.36330200  1
  C  1772  1  0.58910100  0.33719500  0.37581800  1
  C  1773  1  0.58602500  0.33813200  0.39524200  1
  C  1774  1  0.56597200  0.34654100  0.40220200  1
  C  1775  1  0.54942500  0.35304200  0.38966700  1
  C  1776  1  0.55277300  0.35188000  0.37037200  1
  C  1778  1  0.56352400  0.35155500  0.42134500  1
  C  1779  1  0.55789700  0.33466900  0.43383500  1
  C  1780  1  0.55815800  0.33827900  0.45311500  1
  C  1781  1  0.56431100  0.35879100  0.46029200  1
  C  1782  1  0.56910900  0.37587100  0.44774400  1
  C  1783  1  0.56911700  0.37256300  0.42832800  1
  C  1788  1  0.60409300  0.33119400  0.40777400  1
  C  1793  1  0.57553700  0.39088500  0.41586200  1
  C  1797  1  0.87858500  0.84929200  0.11563700  1
  C  1798  1  0.88786600  0.86495000  0.12771600  1
  C  1799  1  0.88733100  0.86239400  0.14720700  1
  C  1800  1  0.87709000  0.84351700  0.15471200  1
  C  1801  1  0.86870700  0.82735200  0.14264200  1
  C  1802  1  0.86966200  0.83008200  0.12326800  1
  C  1804  1  0.87169500  0.84244400  0.17386400  1
  C  1805  1  0.88696800  0.83369100  0.18655200  1
  C  1806  1  0.88278800  0.83400800  0.20576200  1
  C  1807  1  0.86348400  0.84356300  0.21268500  1
  C  1808  1  0.84809900  0.85193900  0.19990100  1
  C  1809  1  0.85187200  0.85166100  0.18055900  1
  C  1814  1  0.89662900  0.87981800  0.15927500  1
  C  1819  1  0.83510700  0.86104700  0.16785400  1
  C  1823  1  0.06342800  0.65010100  0.61566600  1
  C  1824  1  0.05413200  0.63445200  0.62774400  1
  C  1825  1  0.05465300  0.63701600  0.64723400  1
  C  1826  1  0.06488600  0.65589600  0.65473600  1
  C  1827  1  0.07326300  0.67207200  0.64266900  1
  C  1828  1  0.07234200  0.66931700  0.62329600  1
  C  1830  1  0.07031200  0.65697400  0.67388300  1
  C  1831  1  0.05506100  0.66574100  0.68658200  1
  C  1832  1  0.05925900  0.66541600  0.70579000  1
  C  1833  1  0.07855500  0.65583100  0.71269600  1
  C  1834  1  0.09392200  0.64744500  0.69990200  1
  C  1835  1  0.09013100  0.64773200  0.68056200  1
  C  1840  1  0.04534200  0.61960500  0.65930700  1
  C  1845  1  0.10687200  0.63833100  0.66784400  1
  C  1849  1  0.37013400  0.34479200  0.71448300  1
  C  1850  1  0.35395100  0.33727000  0.70205400  1
  C  1851  1  0.35691400  0.33817200  0.68261400  1
  C  1852  1  0.37680700  0.34683200  0.67555300  1
  C  1853  1  0.39333600  0.35359400  0.68800500  1
  C  1854  1  0.39008500  0.35251200  0.70731500  1
  C  1856  1  0.37905400  0.35189900  0.65640200  1
  C  1857  1  0.38486900  0.33512600  0.64386300  1
  C  1858  1  0.38454300  0.33880200  0.62459100  1
  C  1859  1  0.37813500  0.35926400  0.61746900  1
  C  1860  1  0.37309900  0.37622600  0.63006800  1
  C  1861  1  0.37314800  0.37284800  0.64947400  1
  C  1866  1  0.33887900  0.33094400  0.67017000  1
  C  1871  1  0.36649800  0.39104700  0.66198800  1
  C  1875  1  0.57181200  0.15460300  0.21452000  1
  C  1876  1  0.58799600  0.16216200  0.20210700  1
  C  1877  1  0.58506700  0.16124200  0.18266300  1
  C  1878  1  0.56519900  0.15254300  0.17558300  1
  C  1879  1  0.54866800  0.14574900  0.18802000  1
  C  1880  1  0.55187500  0.14686800  0.20733300  1
  C  1882  1  0.56298900  0.14746300  0.15643100  1
  C  1883  1  0.55713800  0.16421300  0.14388300  1
  C  1884  1  0.55747400  0.16052300  0.12461300  1
  C  1885  1  0.56393400  0.14007200  0.11750200  1
  C  1886  1  0.56899600  0.12312800  0.13011100  1
  C  1887  1  0.56893300  0.12651900  0.14951700  1
  C  1892  1  0.60311000  0.16848400  0.17023600  1
  C  1897  1  0.57561100  0.10834200  0.16204000  1
  C  1901  1  0.87802400  0.65118100  0.46205900  1
  C  1902  1  0.88761500  0.63565400  0.45003200  1
  C  1903  1  0.88704900  0.63812300  0.43053300  1
  C  1904  1  0.87645700  0.65677400  0.42296600  1
  C  1905  1  0.86779400  0.67284400  0.43498600  1
  C  1906  1  0.86878300  0.67020800  0.45436800  1
  C  1908  1  0.87093600  0.65762000  0.40382900  1
  C  1909  1  0.88590300  0.66666667  0.39104400  1
  C  1910  1  0.88154600  0.66631600  0.37186200  1
  C  1911  1  0.86237700  0.65637500  0.36506300  1
  C  1912  1  0.84730500  0.64764700  0.37794700  1
  C  1913  1  0.85125500  0.64798400  0.39726300  1
  C  1918  1  0.89666300  0.62082300  0.41851400  1
  C  1923  1  0.83480100  0.63825400  0.41007100  1
  C  1927  1  0.06398300  0.84818900  0.96202300  1
  C  1928  1  0.05437100  0.86370400  0.94999800  1
  C  1929  1  0.05491700  0.86122400  0.93050000  1
  C  1930  1  0.06550100  0.84257100  0.92293700  1
  C  1931  1  0.07416400  0.82649300  0.93495300  1
  C  1932  1  0.07321500  0.82915700  0.95433400  1
  C  1934  1  0.07105100  0.84171900  0.90380600  1
  C  1935  1  0.05610400  0.83262900  0.89101000  1
  C  1936  1  0.06047600  0.83302000  0.87183100  1
  C  1937  1  0.07963600  0.84298900  0.86504400  1
  C  1938  1  0.09469100  0.85172500  0.87793700  1
  C  1939  1  0.09072700  0.85137900  0.89725100  1
  C  1944  1  0.04528700  0.87851000  0.91847700  1
  C  1949  1  0.10715900  0.86112400  0.91007200  1
  C  1953  1  0.77993900  0.89081700  0.06939900  1
  C  1954  1  0.76685400  0.88462600  0.05411700  1
  C  1955  1  0.74385900  0.88331600  0.05536500  1
  C  1956  1  0.73364400  0.88756900  0.07279200  1
  C  1957  1  0.74686300  0.89256700  0.08835100  1
  C  1958  1  0.76965100  0.89464900  0.08660400  1
  C  1960  1  0.71052900  0.89027600  0.07414300  1
  C  1961  1  0.69688700  0.87189700  0.07147300  1
  C  1962  1  0.67439800  0.87438300  0.06814500  1
  C  1963  1  0.66471300  0.89527100  0.06821000  1
  C  1964  1  0.67807000  0.91343700  0.07247300  1
  C  1965  1  0.70089600  0.91144700  0.07491700  1
  C  1970  1  0.73114700  0.87901500  0.03808600  1
  C  1975  1  0.71416500  0.93173000  0.07681200  1
  C  1979  1  0.16210200  0.60864600  0.56944200  1
  C  1980  1  0.17520600  0.61478400  0.55415600  1
  C  1981  1  0.19820400  0.61605100  0.55540400  1
  C  1982  1  0.20840400  0.61177900  0.57283300  1
  C  1983  1  0.19517500  0.60679600  0.58838800  1
  C  1984  1  0.17238100  0.60479700  0.58664800  1
  C  1986  1  0.23151600  0.60904100  0.57418900  1
  C  1987  1  0.24517900  0.62741300  0.57156900  1
  C  1988  1  0.26766500  0.62490000  0.56823900  1
  C  1989  1  0.27733000  0.60400100  0.56828300  1
  C  1990  1  0.26394400  0.58584600  0.57252000  1
  C  1991  1  0.24111900  0.58785700  0.57495700  1
  C  1996  1  0.21093000  0.62032100  0.53812700  1
  C  2001  1  0.22782300  0.56759000  0.57682300  1
  C  2005  1  0.10802100  0.94231800  0.81444300  1
  C  2006  1  0.10196600  0.95611500  0.79957900  1
  C  2007  1  0.10015700  0.97899100  0.80176800  1
  C  2008  1  0.10354100  0.98822500  0.81972300  1
  C  2009  1  0.10797100  0.97421800  0.83487800  1
  C  2010  1  0.11075100  0.95166400  0.83219600  1
  C  2012  1  0.10652100  0.01117100  0.82208200  1
  C  2013  1  0.08846800  0.02525300  0.81946800  1
  C  2014  1  0.09146600  0.04784900  0.81714100  1
  C  2015  1  0.11251900  0.05708200  0.81815600  1
  C  2016  1  0.13027700  0.04322200  0.82245400  1
  C  2017  1  0.12781100  0.02034400  0.82392000  1
  C  2022  1  0.09647800  0.99266400  0.78492600  1
  C  2027  1  0.14781100  0.00665000  0.82587400  1
  C  2031  1  0.83406300  0.55704700  0.31446900  1
  C  2032  1  0.84010900  0.54326800  0.29958900  1
  C  2033  1  0.84194200  0.52039400  0.30174500  1
  C  2034  1  0.83859000  0.51113200  0.31969200  1
  C  2035  1  0.83420300  0.52510600  0.33488000  1
  C  2036  1  0.83135200  0.54765400  0.33220800  1
  C  2038  1  0.83558400  0.48818500  0.32203600  1
  C  2039  1  0.85361700  0.47408800  0.31937800  1
  C  2040  1  0.85060200  0.45149300  0.31706100  1
  C  2041  1  0.82954400  0.44228400  0.31808900  1
  C  2042  1  0.81179600  0.45615500  0.32238300  1
  C  2043  1  0.81428600  0.47902900  0.32387400  1
  C  2048  1  0.84563100  0.50674700  0.28489100  1
  C  2053  1  0.79430200  0.49274300  0.32585300  1
  C  2057  1  0.77958800  0.60892700  0.50842500  1
  C  2058  1  0.76663800  0.61507400  0.52380500  1
  C  2059  1  0.74361900  0.61617800  0.52277200  1
  C  2060  1  0.73322500  0.61182300  0.50544200  1
  C  2061  1  0.74630200  0.60695500  0.48976200  1
  C  2062  1  0.76912400  0.60502300  0.49131100  1
  C  2064  1  0.71011600  0.60888000  0.50430300  1
  C  2065  1  0.69631100  0.62708100  0.50724900  1
  C  2066  1  0.67388800  0.62432300  0.51074600  1
  C  2067  1  0.66439800  0.60334800  0.51052800  1
  C  2068  1  0.67790600  0.58537700  0.50600900  1
  C  2069  1  0.70068900  0.58762200  0.50343300  1
  C  2074  1  0.73110200  0.62033700  0.54018100  1
  C  2079  1  0.71413400  0.56748700  0.50128200  1
  C  2083  1  0.16244000  0.89041300  0.00835500  1
  C  2084  1  0.17539700  0.88429800  0.02374500  1
  C  2085  1  0.19841900  0.88324000  0.02271600  1
  C  2086  1  0.20880900  0.88757600  0.00538100  1
  C  2087  1  0.19572800  0.89242300  0.98970000  1
  C  2088  1  0.17290300  0.89430400  0.99123900  1
  C  2090  1  0.23191600  0.89051800  0.00423600  1
  C  2091  1  0.24572300  0.87231200  0.00715600  1
  C  2092  1  0.26814500  0.87507600  0.01064900  1
  C  2093  1  0.27764300  0.89604900  0.01042100  1
  C  2094  1  0.26412700  0.91401500  0.00590200  1
  C  2095  1  0.24134300  0.91177500  0.00334200  1
  C  2100  1  0.21094500  0.87913700  0.04013000  1
  C  2105  1  0.22789800  0.93191000  0.00119700  1
  C  2109  1  0.10741700  0.55685500  0.76385800  1
  C  2110  1  0.10141500  0.54310200  0.77877000  1
  C  2111  1  0.09983700  0.52019600  0.77670700  1
  C  2112  1  0.10338300  0.51085900  0.75881100  1
  C  2113  1  0.10773600  0.52480200  0.74359700  1
  C  2114  1  0.11033000  0.54739500  0.74617100  1
  C  2116  1  0.10657200  0.48791700  0.75657500  1
  C  2117  1  0.08868200  0.47367800  0.75937800  1
  C  2118  1  0.09192000  0.45113000  0.76181200  1
  C  2119  1  0.11304300  0.44207400  0.76066800  1
  C  2120  1  0.13061600  0.45607900  0.75616500  1
  C  2121  1  0.12792800  0.47892500  0.75463800  1
  C  2126  1  0.09624500  0.50662900  0.79362500  1
  C  2131  1  0.14779500  0.49277800  0.75251300  1
  C  2135  1  0.83468000  0.94253400  0.26384600  1
  C  2136  1  0.84069000  0.95627100  0.27876700  1
  C  2137  1  0.84226300  0.97918000  0.27673000  1
  C  2138  1  0.83874400  0.98853800  0.25884300  1
  C  2139  1  0.83443500  0.97462200  0.24359900  1
  C  2140  1  0.83177600  0.95203300  0.24617000  1
  C  2142  1  0.83552500  0.01147700  0.25661600  1
  C  2143  1  0.85339400  0.02573500  0.25945400  1
  C  2144  1  0.85013900  0.04828300  0.26186900  1
  C  2145  1  0.82900900  0.05731400  0.26071700  1
  C  2146  1  0.81144500  0.04329300  0.25622800  1
  C  2147  1  0.81415900  0.02045000  0.25468200  1
  C  2152  1  0.84585400  0.99272800  0.29365900  1
  C  2157  1  0.79430900  0.00657600  0.25253700  1
  C  2161  1  0.16448700  0.11039600  0.01136600  1
  C  2162  1  0.17851900  0.11621900  0.02614000  1
  C  2163  1  0.20149100  0.11652900  0.02411400  1
  C  2164  1  0.21073100  0.11157900  0.00642500  1
  C  2165  1  0.19660900  0.10716700  0.99133000  1
  C  2166  1  0.17385600  0.10609300  0.99384800  1
  C  2168  1  0.23364300  0.10786600  0.00427900  1
  C  2169  1  0.24807300  0.12574700  0.00610200  1
  C  2170  1  0.27063700  0.12247200  0.00828600  1
  C  2171  1  0.27970100  0.10127300  0.00789600  1
  C  2172  1  0.26539000  0.08355400  0.00462300  1
  C  2173  1  0.24249500  0.08636200  0.00324700  1
  C  2178  1  0.21518500  0.12034900  0.04091800  1
  C  2183  1  0.22836500  0.06660100  0.00209400  1
  C  2187  1  0.77760400  0.38896000  0.51126200  1
  C  2188  1  0.76358300  0.38315600  0.52605300  1
  C  2189  1  0.74060800  0.38285100  0.52404300  1
  C  2190  1  0.73135600  0.38777500  0.50635400  1
  C  2191  1  0.74546500  0.39217900  0.49124900  1
  C  2192  1  0.76822300  0.39321500  0.49374100  1
  C  2194  1  0.70844100  0.39147300  0.50421300  1
  C  2195  1  0.69402900  0.37357300  0.50601100  1
  C  2196  1  0.67146200  0.37683800  0.50820900  1
  C  2197  1  0.66237800  0.39802900  0.50783400  1
  C  2198  1  0.67667900  0.41575600  0.50455700  1
  C  2199  1  0.69957600  0.41296900  0.50317700  1
  C  2204  1  0.72692200  0.37906000  0.54085700  1
  C  2209  1  0.71369100  0.43274000  0.50202500  1
  C  2213  1  0.16479500  0.38836100  0.56775000  1
  C  2214  1  0.17867700  0.38254900  0.55286300  1
  C  2215  1  0.20167800  0.38249200  0.55465100  1
  C  2216  1  0.21111100  0.38760200  0.57223200  1
  C  2217  1  0.19715500  0.39194000  0.58745300  1
  C  2218  1  0.17436000  0.39280600  0.58516100  1
  C  2220  1  0.23402500  0.39150500  0.57414500  1
  C  2221  1  0.24857600  0.37374900  0.57209700  1
  C  2222  1  0.27108300  0.37722200  0.56970900  1
  C  2223  1  0.28000600  0.39848000  0.57018100  1
  C  2224  1  0.26558300  0.41605600  0.57365500  1
  C  2225  1  0.24272700  0.41306600  0.57519400  1
  C  2230  1  0.21516000  0.37880600  0.53769700  1
  C  2235  1  0.22846500  0.43271300  0.57657400  1
  C  2239  1  0.77728100  0.11105600  0.06774200  1
  C  2240  1  0.76340900  0.11690000  0.05286400  1
  C  2241  1  0.74040900  0.11699100  0.05465300  1
  C  2242  1  0.73097600  0.11189800  0.07223800  1
  C  2243  1  0.74492500  0.10758100  0.08747100  1
  C  2244  1  0.76771600  0.10664100  0.08516300  1
  C  2246  1  0.70806600  0.10797500  0.07415200  1
  C  2247  1  0.69349700  0.12571300  0.07208800  1
  C  2248  1  0.67099000  0.12222200  0.06971800  1
  C  2249  1  0.66208700  0.10095700  0.07017900  1
  C  2250  1  0.67653200  0.08339300  0.07363700  1
  C  2251  1  0.69938500  0.08640400  0.07519100  1
  C  2256  1  0.72692500  0.12071600  0.03770700  1
  C  2261  1  0.71366500  0.06677000  0.07657400  1
  C  2265  1  0.61754000  0.44225100  0.31875600  1
  C  2266  1  0.61217400  0.45662300  0.30409000  1
  C  2267  1  0.61151200  0.47954100  0.30648600  1
  C  2268  1  0.61570600  0.48845600  0.32443700  1
  C  2269  1  0.62025900  0.47401600  0.33929400  1
  C  2270  1  0.62158000  0.45130500  0.33644000  1
  C  2272  1  0.61796000  0.51151200  0.32716800  1
  C  2273  1  0.59930300  0.52491800  0.32516100  1
  C  2274  1  0.60127900  0.54766200  0.32305600  1
  C  2275  1  0.62189300  0.55795600  0.32370600  1
  C  2276  1  0.64030000  0.54468200  0.32746000  1
  C  2277  1  0.63883100  0.52164300  0.32874000  1
  C  2282  1  0.60775300  0.49354900  0.28985400  1
  C  2287  1  0.65934700  0.50868900  0.33022700  1
  C  2291  1  0.32446900  0.05712700  0.81882200  1
  C  2292  1  0.32980400  0.04275700  0.80414300  1
  C  2293  1  0.33045200  0.01983600  0.80652600  1
  C  2294  1  0.32628800  0.01090900  0.82447700  1
  C  2295  1  0.32174500  0.02534100  0.83934200  1
  C  2296  1  0.32044900  0.04805500  0.83650100  1
  C  2298  1  0.32406600  0.98785200  0.82720600  1
  C  2299  1  0.34274900  0.97447600  0.82522100  1
  C  2300  1  0.34080300  0.95173000  0.82309300  1
  C  2301  1  0.32019300  0.94142800  0.82370200  1
  C  2302  1  0.30176400  0.95465700  0.82749000  1
  C  2303  1  0.30320500  0.97769500  0.82878400  1
  C  2308  1  0.33417300  0.00583400  0.78988400  1
  C  2313  1  0.28267500  0.99062500  0.83028200  1
  C  2317  1  0.61692700  0.05678900  0.25919000  1
  C  2318  1  0.61147100  0.04260000  0.27396600  1
  C  2319  1  0.61100400  0.01964500  0.27182200  1
  C  2320  1  0.61542200  0.01049200  0.25399600  1
  C  2321  1  0.61999500  0.02474600  0.23901200  1
  C  2322  1  0.62115500  0.04750700  0.24162900  1
  C  2324  1  0.61787000  0.98741200  0.25153600  1
  C  2325  1  0.59931600  0.97389400  0.25370400  1
  C  2326  1  0.60147000  0.95120100  0.25607200  1
  C  2327  1  0.62215400  0.94103500  0.25548000  1
  C  2328  1  0.64045200  0.95439900  0.25158400  1
  C  2329  1  0.63881500  0.97740400  0.25007500  1
  C  2334  1  0.60726800  0.00587700  0.28860300  1
  C  2339  1  0.65923500  0.99048100  0.24842600  1
  C  2343  1  0.32504100  0.44256500  0.75917500  1
  C  2344  1  0.33049200  0.45674000  0.77396000  1
  C  2345  1  0.33097900  0.47969800  0.77183700  1
  C  2346  1  0.32657900  0.48887200  0.75401600  1
  C  2347  1  0.32202400  0.47463900  0.73901200  1
  C  2348  1  0.32082300  0.45187800  0.74162100  1
  C  2350  1  0.32413900  0.51195500  0.75157000  1
  C  2351  1  0.34269500  0.52546600  0.75376300  1
  C  2352  1  0.34055900  0.54816300  0.75611800  1
  C  2353  1  0.31987600  0.55832700  0.75554500  1
  C  2354  1  0.30156500  0.54497800  0.75165600  1
  C  2355  1  0.30319700  0.52197300  0.75011900  1
  C  2360  1  0.33473700  0.49344700  0.78862500  1
  C  2365  1  0.28277400  0.50890600  0.74845200  1
  C  2369  1  0.58342300  0.88647100  0.72412500  1
  C  2370  1  0.58487300  0.87463200  0.74110200  1
  C  2371  1  0.56549100  0.86778200  0.75033100  1
  C  2372  1  0.54524300  0.87004600  0.74121600  1
  C  2373  1  0.54358500  0.88068800  0.72392500  1
  C  2374  1  0.56255000  0.89025400  0.71595800  1
  C  2375  1  0.60580800  0.87032800  0.74850900  1
  C  2376  1  0.56134200  0.90394100  0.70021500  1
  C  2378  1  0.60274500  0.89516000  0.71572900  1
  C  2379  1  0.62377300  0.89018600  0.72320200  1
  C  2380  1  0.64290000  0.89855100  0.71449800  1
  C  2381  1  0.64038000  0.91300000  0.69935300  1
  C  2382  1  0.61978600  0.92077100  0.69362900  1
  C  2383  1  0.60086600  0.91021400  0.70069400  1
  C  2384  1  0.62479100  0.87755400  0.73959400  1
  C  2386  1  0.57990600  0.91455200  0.69338700  1
  C  2391  1  0.35863100  0.61275000  0.22418700  1
  C  2392  1  0.35718900  0.62457800  0.24117000  1
  C  2393  1  0.37657800  0.63141700  0.25039600  1
  C  2394  1  0.39682300  0.62914700  0.24128000  1
  C  2395  1  0.39846900  0.61854900  0.22397200  1
  C  2396  1  0.37950100  0.60898600  0.21600400  1
  C  2397  1  0.33625700  0.62888400  0.24858300  1
  C  2398  1  0.38070600  0.59533100  0.20024100  1
  C  2400  1  0.33930700  0.60407400  0.21578700  1
  C  2401  1  0.31827700  0.60905300  0.22326600  1
  C  2402  1  0.29913700  0.60069700  0.21456700  1
  C  2403  1  0.30164300  0.58623400  0.19943300  1
  C  2404  1  0.32224400  0.57857800  0.19364900  1
  C  2405  1  0.34119000  0.58905300  0.20073100  1
  C  2406  1  0.31727000  0.62166300  0.23967000  1
  C  2408  1  0.36214300  0.58471800  0.19341200  1
  C  2413  1  0.10542100  0.13835100  0.47532000  1
  C  2414  1  0.09360100  0.13685200  0.49230400  1
  C  2415  1  0.08697200  0.15624100  0.50163700  1
  C  2416  1  0.08933300  0.17653000  0.49261900  1
  C  2417  1  0.09993100  0.17817200  0.47531900  1
  C  2418  1  0.10940200  0.15923100  0.46726400  1
  C  2419  1  0.08908200  0.11588900  0.49956000  1
  C  2420  1  0.12314800  0.16047800  0.45155300  1
  C  2422  1  0.11387700  0.11905000  0.46676200  1
  C  2423  1  0.10847800  0.09800300  0.47394600  1
  C  2424  1  0.11649400  0.07892700  0.46494100  1
  C  2425  1  0.13120200  0.08143200  0.44997300  1
  C  2426  1  0.13936500  0.10199100  0.44463900  1
  C  2427  1  0.12904500  0.12094600  0.45182300  1
  C  2428  1  0.09584600  0.09691800  0.49033900  1
  C  2430  1  0.13367600  0.14190200  0.44466800  1
  C  2435  1  0.83664300  0.36101900  0.97529710  1
  C  2436  1  0.84850600  0.36252800  0.99225713  1
  C  2437  1  0.85517500  0.34315600  0.00159500  1
  C  2438  1  0.85278200  0.32286000  0.99258613  1
  C  2439  1  0.84211700  0.32119800  0.97531710  1
  C  2440  1  0.83263300  0.34013300  0.96726410  1
  C  2441  1  0.85304500  0.38349600  0.99949513  1
  C  2442  1  0.81884000  0.33887300  0.95158410  1
  C  2444  1  0.82817000  0.38031300  0.96674410  1
  C  2445  1  0.83356700  0.40136400  0.97391310  1
  C  2446  1  0.82554900  0.42042800  0.96489710  1
  C  2447  1  0.81078700  0.41789800  0.94996610  1
  C  2448  1  0.80259600  0.39732900  0.94463910  1
  C  2449  1  0.81297600  0.37841500  0.95182610  1
  C  2450  1  0.84621800  0.40246000  0.99029513  1
  C  2452  1  0.80832600  0.35745400  0.94469010  1
  C  2457  1  0.58303000  0.61172000  0.16060000  1
  C  2458  1  0.58443500  0.62395900  0.14383400  1
  C  2459  1  0.56503100  0.63065800  0.13457300  1
  C  2460  1  0.54475300  0.62788300  0.14353000  1
  C  2461  1  0.54303500  0.61703200  0.16075100  1
  C  2462  1  0.56213400  0.60747700  0.16856200  1
  C  2463  1  0.60534600  0.62867700  0.13657500  1
  C  2464  1  0.56094400  0.59282500  0.18366600  1
  C  2466  1  0.60240000  0.60293700  0.16885900  1
  C  2467  1  0.62341100  0.60828900  0.16152300  1
  C  2468  1  0.64259800  0.59976500  0.17002200  1
  C  2469  1  0.64016200  0.58486200  0.18485400  1
  C  2470  1  0.61961900  0.57685200  0.19046000  1
  C  2471  1  0.60060200  0.58735800  0.18351300  1
  C  2472  1  0.62436200  0.62138900  0.14539500  1
  C  2474  1  0.57960100  0.58229200  0.19038800  1
  C  2479  1  0.35901300  0.88767600  0.66053500  1
  C  2480  1  0.35761600  0.87542300  0.64377500  1
  C  2481  1  0.37702900  0.86872700  0.63452600  1
  C  2482  1  0.39730300  0.87150300  0.64348600  1
  C  2483  1  0.39900900  0.88234300  0.66071400  1
  C  2484  1  0.37990600  0.89190700  0.66851100  1
  C  2485  1  0.33671000  0.87069700  0.63651000  1
  C  2486  1  0.38108600  0.90656600  0.68360900  1
  C  2488  1  0.33963800  0.89646900  0.66878100  1
  C  2489  1  0.31863300  0.89110800  0.66143800  1
  C  2490  1  0.29944000  0.89964400  0.66991900  1
  C  2491  1  0.30187800  0.91458700  0.68471600  1
  C  2492  1  0.32241200  0.92256300  0.69037600  1
  C  2493  1  0.34143300  0.91205400  0.68343300  1
  C  2494  1  0.31769100  0.87800100  0.64531400  1
  C  2496  1  0.36243200  0.91712500  0.69030700  1
  C  2501  1  0.10643300  0.36072900  0.40950900  1
  C  2502  1  0.09422700  0.36214200  0.39272800  1
  C  2503  1  0.08776300  0.34270800  0.38339200  1
  C  2504  1  0.09060000  0.32241600  0.39230300  1
  C  2505  1  0.10138100  0.32076800  0.40954900  1
  C  2506  1  0.11087400  0.33985100  0.41739500  1
  C  2507  1  0.08929400  0.38306400  0.38559100  1
  C  2508  1  0.12554700  0.33866000  0.43248700  1
  C  2510  1  0.11494600  0.38009400  0.41792800  1
  C  2511  1  0.10916400  0.40110500  0.41086500  1
  C  2512  1  0.11729600  0.42025600  0.41967800  1
  C  2513  1  0.13240300  0.41786900  0.43436700  1
  C  2514  1  0.14083900  0.39738100  0.43958600  1
  C  2515  1  0.13060500  0.37831500  0.43251400  1
  C  2516  1  0.09610600  0.40208500  0.39470800  1
  C  2518  1  0.13596600  0.35734200  0.43926200  1
  C  2523  1  0.83561000  0.13865400  0.90951110  1
  C  2524  1  0.84784500  0.13723500  0.89274500  1
  C  2525  1  0.85434300  0.15665400  0.88340500  1
  C  2526  1  0.85147300  0.17695100  0.89230800  1
  C  2527  1  0.84064800  0.17861300  0.90953310  1
  C  2528  1  0.83114500  0.15953600  0.91737610  1
  C  2529  1  0.85279200  0.11630800  0.88562600  1
  C  2530  1  0.81643900  0.16073600  0.93244610  1
  C  2532  1  0.82708400  0.11929400  0.91792810  1
  C  2533  1  0.83286500  0.09828200  0.91087610  1
  C  2534  1  0.82473800  0.07914100  0.91970410  1
  C  2535  1  0.80958600  0.08155200  0.93436510  1
  C  2536  1  0.80112700  0.10204800  0.93958110  1
  C  2537  1  0.81140900  0.12107600  0.93249810  1
  C  2538  1  0.84594100  0.09729200  0.89473100  1
  C  2540  1  0.80603700  0.14205100  0.93923210  1
  C  2545  1  0.35972300  0.11778800  0.65926800  1
  C  2546  1  0.35794100  0.12818900  0.64164000  1
  C  2547  1  0.37697800  0.13637900  0.63269000  1
  C  2548  1  0.39694400  0.13651300  0.64242100  1
  C  2549  1  0.39868100  0.12764300  0.66040500  1
  C  2550  1  0.38028300  0.11722800  0.66854300  1
  C  2551  1  0.33708600  0.12966200  0.63332300  1
  C  2552  1  0.38180300  0.10583400  0.68556300  1
  C  2554  1  0.34119300  0.10695100  0.66708400  1
  C  2555  1  0.32025800  0.10867800  0.65851800  1
  C  2556  1  0.30194100  0.09782300  0.66645100  1
  C  2557  1  0.30589200  0.08273300  0.68093000  1
  C  2558  1  0.32679600  0.07919800  0.68868500  1
  C  2559  1  0.34394500  0.09333000  0.68294900  1
  C  2560  1  0.31860300  0.12060600  0.64178500  1
  C  2562  1  0.36417000  0.09371900  0.69235700  1
  C  2567  1  0.58235100  0.38156100  0.15922900  1
  C  2568  1  0.58412000  0.37116200  0.14160000  1
  C  2569  1  0.56507000  0.36300100  0.13265300  1
  C  2570  1  0.54510200  0.36289300  0.14237900  1
  C  2571  1  0.54338200  0.37174200  0.16037200  1
  C  2572  1  0.56179300  0.38213400  0.16851100  1
  C  2573  1  0.60497400  0.36966500  0.13328300  1
  C  2574  1  0.56028500  0.39353000  0.18553000  1
  C  2576  1  0.60089100  0.39237700  0.16704900  1
  C  2577  1  0.62182300  0.39063500  0.15848000  1
  C  2578  1  0.64014800  0.40147200  0.16641400  1
  C  2579  1  0.63620700  0.41656700  0.18089000  1
  C  2580  1  0.61531300  0.42011000  0.18867100  1
  C  2581  1  0.59815500  0.40599600  0.18291600  1
  C  2582  1  0.62346100  0.37871700  0.14173900  1
  C  2584  1  0.57793000  0.40562500  0.19232500  1
  C  2589  1  0.83710500  0.86118600  0.90980710  1
  C  2590  1  0.85144100  0.86261400  0.89430900  1
  C  2591  1  0.85789700  0.84331200  0.88480400  1
  C  2592  1  0.85358600  0.82288400  0.89302600  1
  C  2593  1  0.84097800  0.82121900  0.90932510  1
  C  2594  1  0.83112700  0.84028200  0.91682210  1
  C  2595  1  0.85885400  0.88342300  0.88870800  1
  C  2596  1  0.81524100  0.83922600  0.93098410  1
  C  2598  1  0.82828700  0.88062100  0.91785510  1
  C  2599  1  0.83609800  0.90153300  0.91210210  1
  C  2600  1  0.82765900  0.92074200  0.92059510  1
  C  2601  1  0.80955000  0.91869200  0.93260610  1
  C  2602  1  0.80037200  0.89833800  0.93729910  1
  C  2603  1  0.81095400  0.87903800  0.93103410  1
  C  2604  1  0.85222100  0.90234300  0.89806800  1
  C  2606  1  0.80447000  0.85805300  0.93706210  1
  C  2611  1  0.10498200  0.63820700  0.40982000  1
  C  2612  1  0.09063400  0.63678000  0.39432900  1
  C  2613  1  0.08416000  0.65606600  0.38480900  1
  C  2614  1  0.08850700  0.67649500  0.39302500  1
  C  2615  1  0.10115500  0.67817300  0.40930200  1
  C  2616  1  0.11098600  0.65911100  0.41681300  1
  C  2617  1  0.08319800  0.61597100  0.38875000  1
  C  2618  1  0.12688100  0.66016900  0.43097000  1
  C  2620  1  0.11378500  0.61877100  0.41788100  1
  C  2621  1  0.10597000  0.59786100  0.41213400  1
  C  2622  1  0.11438800  0.57865600  0.42064700  1
  C  2623  1  0.13250800  0.58071100  0.43264800  1
  C  2624  1  0.14168800  0.60106700  0.43736400  1
  C  2625  1  0.13111200  0.62034900  0.43106400  1
  C  2626  1  0.08985500  0.59704900  0.39809400  1
  C  2628  1  0.13760800  0.64133300  0.43708500  1
  C  2633  1  0.36015400  0.38241400  0.22450800  1
  C  2634  1  0.35836400  0.37169200  0.24199100  1
  C  2635  1  0.37741700  0.36359200  0.25095400  1
  C  2636  1  0.39743500  0.36383200  0.24131600  1
  C  2637  1  0.39928600  0.37297300  0.22341500  1
  C  2638  1  0.38079100  0.38336400  0.21535400  1
  C  2639  1  0.33749000  0.36988000  0.25022100  1
  C  2640  1  0.38233900  0.39543100  0.19867300  1
  C  2642  1  0.34156600  0.39328600  0.21681100  1
  C  2643  1  0.32060200  0.39122900  0.22528400  1
  C  2644  1  0.30223100  0.40213400  0.21748400  1
  C  2645  1  0.30613000  0.41756800  0.20325800  1
  C  2646  1  0.32703900  0.42144500  0.19563000  1
  C  2647  1  0.34427800  0.40732600  0.20121100  1
  C  2648  1  0.31897400  0.37894700  0.24183300  1
  C  2650  1  0.36460000  0.40743900  0.19195500  1
  C  2655  1  0.58191400  0.11690600  0.72455000  1
  C  2656  1  0.58370400  0.12764300  0.74202600  1
  C  2657  1  0.56463900  0.13572100  0.75098800  1
  C  2658  1  0.54461600  0.13545500  0.74136000  1
  C  2659  1  0.54277200  0.12632000  0.72345600  1
  C  2660  1  0.56127500  0.11593800  0.71539900  1
  C  2661  1  0.60457900  0.12948400  0.75024800  1
  C  2662  1  0.55972700  0.10385100  0.69872700  1
  C  2664  1  0.60051000  0.10605200  0.71684800  1
  C  2665  1  0.62147800  0.10813800  0.72530900  1
  C  2666  1  0.63986400  0.09726100  0.71750000  1
  C  2667  1  0.63597700  0.08181100  0.70328600  1
  C  2668  1  0.61506300  0.07791300  0.69568200  1
  C  2669  1  0.59780000  0.09200400  0.70125400  1
  C  2670  1  0.62309400  0.12040700  0.74186700  1
  C  2672  1  0.57747300  0.09185700  0.69200700  1
  C  2677  1  0.83573200  0.63841100  0.97403210  1
  C  2678  1  0.85037800  0.63720700  0.98932410  1
  C  2679  1  0.85654900  0.65660300  0.99882513  1
  C  2680  1  0.85164600  0.67698000  0.99073613  1
  C  2681  1  0.83895600  0.67850500  0.97444610  1
  C  2682  1  0.82925300  0.65922700  0.96718410  1
  C  2683  1  0.85820800  0.61650800  0.99480813  1
  C  2684  1  0.81250400  0.66011800  0.95375310  1
  C  2686  1  0.82696900  0.61886300  0.96614110  1
  C  2687  1  0.83519200  0.59807100  0.97178810  1
  C  2688  1  0.82677600  0.57873400  0.96349910  1
  C  2689  1  0.80844200  0.58051600  0.95170710  1
  C  2690  1  0.79891000  0.60073700  0.94711410  1
  C  2691  1  0.80924200  0.62020400  0.95331910  1
  C  2692  1  0.85164200  0.59748900  0.98555610  1
  C  2694  1  0.80198400  0.64112200  0.94775510  1
  C  2699  1  0.10632500  0.86095100  0.47401000  1
  C  2700  1  0.09167200  0.86215700  0.48929500  1
  C  2701  1  0.08547800  0.84277800  0.49881400  1
  C  2702  1  0.09041700  0.82239900  0.49072900  1
  C  2703  1  0.10313500  0.82086100  0.47445800  1
  C  2704  1  0.11282200  0.84013500  0.46717900  1
  C  2705  1  0.08382500  0.88285700  0.49475800  1
  C  2706  1  0.12956200  0.83923800  0.45374000  1
  C  2708  1  0.11507500  0.88049500  0.46610200  1
  C  2709  1  0.10685400  0.90129000  0.47174200  1
  C  2710  1  0.11524800  0.92062000  0.46342600  1
  C  2711  1  0.13358500  0.91882800  0.45163700  1
  C  2712  1  0.14311600  0.89860200  0.44702400  1
  C  2713  1  0.13278700  0.87915400  0.45326600  1
  C  2714  1  0.09043000  0.90187700  0.48553000  1
  C  2716  1  0.14004400  0.85823700  0.44770300  1
  C  2721  1  0.08333900  0.38139800  0.22515600  1
  C  2722  1  0.08480400  0.36661400  0.24039400  1
  C  2723  1  0.06534900  0.35834100  0.24860500  1
  C  2724  1  0.04518400  0.36201300  0.23969300  1
  C  2725  1  0.04357000  0.37536600  0.22383300  1
  C  2726  1  0.06249600  0.38650300  0.21744400  1
  C  2727  1  0.10578200  0.36101600  0.24706700  1
  C  2728  1  0.06128900  0.40291800  0.20372800  1
  C  2730  1  0.10262600  0.39169000  0.21812000  1
  C  2731  1  0.12368000  0.38501900  0.22451300  1
  C  2732  1  0.14277300  0.39449100  0.21664300  1
  C  2733  1  0.14028300  0.41272700  0.20485600  1
  C  2734  1  0.11969200  0.42121500  0.19998000  1
  C  2735  1  0.10073700  0.40938600  0.20532400  1
  C  2736  1  0.12476500  0.36904300  0.23861300  1
  C  2738  1  0.07976300  0.41493900  0.19866400  1
  C  2743  1  0.85874000  0.11795600  0.72520000  1
  C  2744  1  0.85727900  0.13275800  0.74042700  1
  C  2745  1  0.87673600  0.14103900  0.74862800  1
  C  2746  1  0.89690000  0.13734300  0.73972000  1
  C  2747  1  0.89850500  0.12400400  0.72385200  1
  C  2748  1  0.87958000  0.11285400  0.71748100  1
  C  2749  1  0.83630500  0.13835900  0.74710400  1
  C  2750  1  0.88078100  0.09643100  0.70377100  1
  C  2752  1  0.83945100  0.10766400  0.71817100  1
  C  2753  1  0.81839900  0.11435500  0.72455400  1
  C  2754  1  0.79930300  0.10489700  0.71667700  1
  C  2755  1  0.80178800  0.08664500  0.70491100  1
  C  2756  1  0.82237500  0.07815200  0.70002100  1
  C  2757  1  0.84133500  0.08996500  0.70537600  1
  C  2758  1  0.81732000  0.13033100  0.73865400  1
  C  2760  1  0.86230900  0.08438800  0.69873300  1
  C  2765  1  0.60203500  0.63747700  0.97510110  1
  C  2766  1  0.59067400  0.63591900  0.99233913  1
  C  2767  1  0.58091000  0.65490700  0.00017500  1
  C  2768  1  0.58117100  0.67465400  0.99014313  1
  C  2769  1  0.59141400  0.67626200  0.97269110  1
  C  2770  1  0.60261900  0.65781500  0.96541110  1
  C  2771  1  0.59030100  0.61548800  0.00150300  1
  C  2772  1  0.61482100  0.65912600  0.94879710  1
  C  2774  1  0.61383900  0.61902600  0.96813910  1
  C  2775  1  0.61260200  0.59837400  0.97729610  1
  C  2776  1  0.62433800  0.58008600  0.97023310  1
  C  2777  1  0.63939000  0.58387100  0.95571110  1
  C  2778  1  0.64241900  0.60451600  0.94736410  1
  C  2779  1  0.62792100  0.62160100  0.95253810  1
  C  2780  1  0.60042200  0.59704300  0.99389813  1
  C  2782  1  0.62756200  0.64156700  0.94273910  1
  C  2787  1  0.34007700  0.86191000  0.47506200  1
  C  2788  1  0.35144700  0.86346300  0.49229500  1
  C  2789  1  0.36124100  0.84448700  0.50012300  1
  C  2790  1  0.36095400  0.82473800  0.49008900  1
  C  2791  1  0.35069800  0.82312800  0.47264300  1
  C  2792  1  0.33948500  0.84157400  0.46537100  1
  C  2793  1  0.35182300  0.88388900  0.50146800  1
  C  2794  1  0.32727200  0.84026700  0.44876100  1
  C  2796  1  0.32827800  0.88036500  0.46810400  1
  C  2797  1  0.32950500  0.90101000  0.47727200  1
  C  2798  1  0.31777100  0.91930000  0.47021200  1
  C  2799  1  0.30274700  0.91552700  0.45566500  1
  C  2800  1  0.29973600  0.89489300  0.44728000  1
  C  2801  1  0.31420500  0.87780500  0.45249500  1
  C  2802  1  0.34167500  0.90233100  0.49388100  1
  C  2804  1  0.31454400  0.85783500  0.44270300  1
  C  2809  1  0.08298300  0.11681000  0.65991600  1
  C  2810  1  0.08432800  0.13170900  0.64475500  1
  C  2811  1  0.06479800  0.13957100  0.63638000  1
  C  2812  1  0.04458800  0.13534400  0.64504900  1
  C  2813  1  0.04304100  0.12206600  0.66097400  1
  C  2814  1  0.06215500  0.11130400  0.66743200  1
  C  2815  1  0.10527000  0.13768200  0.63824500  1
  C  2816  1  0.06097100  0.09427700  0.68059800  1
  C  2818  1  0.10234500  0.10663800  0.66693100  1
  C  2819  1  0.12334600  0.11360700  0.66064500  1
  C  2820  1  0.14252000  0.10416800  0.66840400  1
  C  2821  1  0.14018800  0.08578800  0.68005200  1
  C  2822  1  0.11966900  0.07703900  0.68481600  1
  C  2823  1  0.10058700  0.08867800  0.67947800  1
  C  2824  1  0.12430500  0.12978800  0.64670400  1
  C  2826  1  0.07959500  0.08252500  0.68571400  1
  C  2831  1  0.85911200  0.38259100  0.15985300  1
  C  2832  1  0.85778000  0.36769100  0.14469200  1
  C  2833  1  0.87731600  0.35983200  0.13632500  1
  C  2834  1  0.89751900  0.36407500  0.14499600  1
  C  2835  1  0.89905300  0.37733500  0.16093300  1
  C  2836  1  0.87993300  0.38809300  0.16738600  1
  C  2837  1  0.83684500  0.36172100  0.13816600  1
  C  2838  1  0.88110700  0.40511300  0.18055700  1
  C  2840  1  0.83974300  0.39275700  0.16686100  1
  C  2841  1  0.81874700  0.38577600  0.16057100  1
  C  2842  1  0.79955900  0.39520600  0.16832200  1
  C  2843  1  0.80187300  0.41360000  0.17995500  1
  C  2844  1  0.82239400  0.42231200  0.18474800  1
  C  2845  1  0.84149500  0.41071000  0.17941600  1
  C  2846  1  0.81780300  0.36960300  0.14662200  1
  C  2848  1  0.86248100  0.41687400  0.18565500  1
  C  2853  1  0.60275300  0.86136500  0.90990110  1
  C  2854  1  0.59123900  0.86296000  0.89274000  1
  C  2855  1  0.58171300  0.84393400  0.88479000  1
  C  2856  1  0.58237600  0.82408600  0.89464600  1
  C  2857  1  0.59270100  0.82234100  0.91207710  1
  C  2858  1  0.60367200  0.84092100  0.91943510  1
  C  2859  1  0.59055200  0.88345100  0.88369300  1
  C  2860  1  0.61643700  0.83953000  0.93573910  1
  C  2862  1  0.61451600  0.87987200  0.91682610  1
  C  2863  1  0.61301000  0.90057900  0.90777810  1
  C  2864  1  0.62474600  0.91890700  0.91477310  1
  C  2865  1  0.64006700  0.91512500  0.92909310  1
  C  2866  1  0.64341600  0.89443100  0.93726510  1
  C  2867  1  0.62892800  0.87728700  0.93220510  1
  C  2868  1  0.60060700  0.90192300  0.89129900  1
  C  2870  1  0.62901500  0.85719300  0.94180810  1
  C  2875  1  0.33933500  0.63798300  0.40993900  1
  C  2876  1  0.35086300  0.63637300  0.39278800  1
  C  2877  1  0.36044100  0.65537400  0.38484200  1
  C  2878  1  0.35976400  0.67523100  0.39469100  1
  C  2879  1  0.34943200  0.67699400  0.41211800  1
  C  2880  1  0.33842600  0.65843100  0.41946700  1
  C  2881  1  0.35153500  0.61588200  0.38374300  1
  C  2882  1  0.32565300  0.65983800  0.43576800  1
  C  2884  1  0.32755300  0.61948900  0.41686400  1
  C  2885  1  0.32903500  0.59878200  0.40781600  1
  C  2886  1  0.31728500  0.58046700  0.41481500  1
  C  2887  1  0.30198000  0.58426400  0.42914700  1
  C  2888  1  0.29867300  0.60495300  0.43735300  1
  C  2889  1  0.31315100  0.62208300  0.43224800  1
  C  2890  1  0.34143500  0.59742600  0.39133400  1
  C  2892  1  0.31306600  0.64218400  0.44183900  1
  C  2897  1  0.85971000  0.62343500  0.15843400  1
  C  2898  1  0.85773000  0.63668900  0.14223800  1
  C  2899  1  0.87675900  0.64616800  0.13424400  1
  C  2900  1  0.89673700  0.64484500  0.14388700  1
  C  2901  1  0.89857400  0.63319700  0.16065700  1
  C  2902  1  0.88032600  0.62133800  0.16745000  1
  C  2903  1  0.83672500  0.63954600  0.13445900  1
  C  2904  1  0.88200900  0.60726900  0.18293900  1
  C  2906  1  0.84128400  0.61140200  0.16504700  1
  C  2907  1  0.82016300  0.61503000  0.15729600  1
  C  2908  1  0.80193700  0.60350400  0.16456300  1
  C  2909  1  0.80587000  0.58573500  0.17658400  1
  C  2910  1  0.82683200  0.58069400  0.18353400  1
  C  2911  1  0.84414100  0.59529100  0.17912800  1
  C  2912  1  0.81819200  0.63005100  0.14252500  1
  C  2914  1  0.86448400  0.59405900  0.18828600  1
  C  2919  1  0.08231200  0.87594800  0.65838500  1
  C  2920  1  0.08428500  0.86268400  0.64219400  1
  C  2921  1  0.06525500  0.85320000  0.63420900  1
  C  2922  1  0.04527600  0.85455100  0.64385000  1
  C  2923  1  0.04344900  0.86618700  0.66062400  1
  C  2924  1  0.06170200  0.87804500  0.66741000  1
  C  2925  1  0.10528600  0.85982700  0.63440500  1
  C  2926  1  0.06002700  0.89211500  0.68290100  1
  C  2928  1  0.10074400  0.88798000  0.66499200  1
  C  2929  1  0.12186200  0.88434300  0.65724100  1
  C  2930  1  0.14009800  0.89585200  0.66451300  1
  C  2931  1  0.13617600  0.91363800  0.67651600  1
  C  2932  1  0.11521300  0.91867700  0.68346400  1
  C  2933  1  0.09789300  0.90408900  0.67907600  1
  C  2934  1  0.12381700  0.86934000  0.64245600  1
  C  2936  1  0.07755500  0.90532800  0.68823900  1
  C  2941  1  0.34204400  0.36254000  0.41076900  1
  C  2942  1  0.35525800  0.36463800  0.39458000  1
  C  2943  1  0.36496000  0.34572300  0.38661200  1
  C  2944  1  0.36363000  0.32564600  0.39609500  1
  C  2945  1  0.35202200  0.32361500  0.41288300  1
  C  2946  1  0.34019600  0.34186800  0.41977800  1
  C  2947  1  0.35787100  0.38562400  0.38670100  1
  C  2948  1  0.32636800  0.34015100  0.43541100  1
  C  2950  1  0.32977400  0.38088000  0.41729500  1
  C  2951  1  0.33283300  0.40198300  0.40926600  1
  C  2952  1  0.32080500  0.42009600  0.41622400  1
  C  2953  1  0.30334600  0.41591000  0.42852100  1
  C  2954  1  0.29901900  0.39498000  0.43589300  1
  C  2955  1  0.31388700  0.37788800  0.43153100  1
  C  2956  1  0.34788100  0.40404700  0.39451800  1
  C  2958  1  0.31310500  0.35760700  0.44084500  1
  C  2963  1  0.59992300  0.13681500  0.91080510  1
  C  2964  1  0.58670000  0.13472000  0.89462100  1
  C  2965  1  0.57697500  0.15361800  0.88664600  1
  C  2966  1  0.57833300  0.17370000  0.89612900  1
  C  2967  1  0.58995000  0.17573700  0.91291210  1
  C  2968  1  0.60178000  0.15748900  0.91980810  1
  C  2969  1  0.58407800  0.11373600  0.88674500  1
  C  2970  1  0.61561300  0.15920800  0.93543710  1
  C  2972  1  0.61218400  0.11847000  0.91733410  1
  C  2973  1  0.60912900  0.09737200  0.90930110  1
  C  2974  1  0.62114700  0.07925600  0.91626510  1
  C  2975  1  0.63857700  0.08343600  0.92859410  1
  C  2976  1  0.64290300  0.10435800  0.93599110  1
  C  2977  1  0.62805900  0.12145600  0.93158310  1
  C  2978  1  0.59411300  0.09532000  0.89452900  1
  C  2980  1  0.62885700  0.14174300  0.94088510  1
  C  2985  1  0.86017300  0.87674800  0.72500000  1
  C  2986  1  0.85827300  0.86342300  0.74115700  1
  C  2987  1  0.87739000  0.85429400  0.74927800  1
  C  2988  1  0.89743400  0.85604000  0.73978800  1
  C  2989  1  0.89925500  0.86762200  0.72297000  1
  C  2990  1  0.88083000  0.87917200  0.71609900  1
  C  2991  1  0.83726400  0.86023700  0.74883500  1
  C  2992  1  0.88250900  0.89369300  0.70091200  1
  C  2994  1  0.84164800  0.88866900  0.71842600  1
  C  2995  1  0.82054300  0.88479300  0.72612000  1
  C  2996  1  0.80224200  0.89629300  0.71895500  1
  C  2997  1  0.80604600  0.91422800  0.70708500  1
  C  2998  1  0.82699600  0.91955000  0.70025800  1
  C  2999  1  0.84441200  0.90501900  0.70453400  1
  C  3000  1  0.81866300  0.86959100  0.74076600  1
  C  3002  1  0.86482900  0.90667900  0.69554800  1
  C  3007  1  0.08185700  0.62264300  0.22503700  1
  C  3008  1  0.08374800  0.63597700  0.24118800  1
  C  3009  1  0.06462600  0.64510200  0.24930500  1
  C  3010  1  0.04458200  0.64332600  0.23982100  1
  C  3011  1  0.04277200  0.63175200  0.22299700  1
  C  3012  1  0.06120400  0.62020900  0.21613200  1
  C  3013  1  0.10475200  0.63917300  0.24887200  1
  C  3014  1  0.05953400  0.60568300  0.20094800  1
  C  3016  1  0.10039000  0.61073600  0.21846300  1
  C  3017  1  0.12149300  0.61463200  0.22615100  1
  C  3018  1  0.13980800  0.60316400  0.21897100  1
  C  3019  1  0.13601300  0.58521000  0.20711700  1
  C  3020  1  0.11506800  0.57986900  0.20029100  1
  C  3021  1  0.09763800  0.59438500  0.20456800  1
  C  3022  1  0.12335400  0.62980900  0.24081500  1
  C  3024  1  0.07722200  0.59270700  0.19558600  1
  C  3029  1  0.34113500  0.13725300  0.47281700  1
  C  3030  1  0.35447500  0.13518200  0.48893300  1
  C  3031  1  0.36384600  0.15416200  0.49705700  1
  C  3032  1  0.36203100  0.17433500  0.48779600  1
  C  3033  1  0.35042400  0.17642300  0.47099300  1
  C  3034  1  0.33893500  0.15800000  0.46397200  1
  C  3035  1  0.35745100  0.11416700  0.49665700  1
  C  3036  1  0.32456800  0.15976600  0.44869600  1
  C  3038  1  0.32894200  0.11883500  0.46633800  1
  C  3039  1  0.33226100  0.09772000  0.47427300  1
  C  3040  1  0.32021200  0.07955100  0.46744500  1
  C  3041  1  0.30255100  0.08365500  0.45533800  1
  C  3042  1  0.29793700  0.10459400  0.44811000  1
  C  3043  1  0.31275700  0.12178000  0.45233800  1
  C  3044  1  0.34754400  0.09570300  0.48885100  1
  C  3046  1  0.31151500  0.14217000  0.44323800  1
  C  3051  1  0.60084200  0.36212700  0.97276610  1
  C  3052  1  0.58749700  0.36420600  0.98887810  1
  C  3053  1  0.57809800  0.34525100  0.99701413  1
  C  3054  1  0.57993600  0.32506800  0.98775910  1
  C  3055  1  0.59153800  0.32296500  0.97095310  1
  C  3056  1  0.60304500  0.34137600  0.96393210  1
  C  3057  1  0.58452200  0.38522300  0.99659613  1
  C  3058  1  0.61741300  0.33959700  0.94866110  1
  C  3060  1  0.61303300  0.38054400  0.96627610  1
  C  3061  1  0.60972300  0.40165900  0.97421210  1
  C  3062  1  0.62177200  0.41982200  0.96737510  1
  C  3063  1  0.63940100  0.41571800  0.95523310  1
  C  3064  1  0.64399500  0.39478100  0.94798310  1
  C  3065  1  0.62920100  0.37759400  0.95226510  1
  C  3066  1  0.59446200  0.40367900  0.98880410  1
  C  3068  1  0.63045900  0.35719000  0.94318810  1
  C  3073  1  0.61909700  0.94328700  0.68834500  1
  C  3074  1  0.62673000  0.95886900  0.70134000  1
  C  3075  1  0.62565300  0.98151700  0.69801100  1
  C  3076  1  0.61554400  0.98890000  0.68134800  1
  C  3077  1  0.60841700  0.97352100  0.66803100  1
  C  3078  1  0.61060800  0.95095200  0.67133200  1
  C  3080  1  0.61063000  0.01142100  0.67909300  1
  C  3081  1  0.62658800  0.02506500  0.67101300  1
  C  3082  1  0.62661900  0.04764900  0.67453000  1
  C  3083  1  0.61129600  0.05711400  0.68684600  1
  C  3084  1  0.59435900  0.04346700  0.69359600  1
  C  3085  1  0.59340000  0.02091400  0.68957800  1
  C  3090  1  0.63474300  0.99677000  0.71220900  1
  C  3095  1  0.57553600  0.00744600  0.69773600  1
  C  3099  1  0.32296100  0.55604200  0.18838300  1
  C  3100  1  0.31545000  0.54044400  0.20141500  1
  C  3101  1  0.31655000  0.51779800  0.19807800  1
  C  3102  1  0.32658200  0.51043700  0.18137300  1
  C  3103  1  0.33360300  0.52583400  0.16803000  1
  C  3104  1  0.33135600  0.54839700  0.17132900  1
  C  3106  1  0.33149000  0.48792100  0.17907600  1
  C  3107  1  0.31552900  0.47429900  0.17097100  1
  C  3108  1  0.31549300  0.45170700  0.17446000  1
  C  3109  1  0.33081600  0.44222500  0.18676900  1
  C  3110  1  0.34778000  0.45585000  0.19350500  1
  C  3111  1  0.34875300  0.47840400  0.18950500  1
  C  3116  1  0.30755300  0.50252500  0.21230300  1
  C  3121  1  0.36664600  0.49185000  0.19764200  1
  C  3125  1  0.16215800  0.10248700  0.44028100  1
  C  3126  1  0.17697200  0.09474400  0.45387200  1
  C  3127  1  0.19977900  0.09554200  0.45136900  1
  C  3128  1  0.20809100  0.10551900  0.43497600  1
  C  3129  1  0.19349100  0.11281700  0.42110300  1
  C  3130  1  0.17075900  0.11091200  0.42357700  1
  C  3132  1  0.23080600  0.10969400  0.43327900  1
  C  3133  1  0.24403400  0.09357700  0.42491800  1
  C  3134  1  0.26666500  0.09314000  0.42813300  1
  C  3135  1  0.27659900  0.10826300  0.44034800  1
  C  3136  1  0.26333400  0.12516500  0.44764500  1
  C  3137  1  0.24072600  0.12651800  0.44395200  1
  C  3142  1  0.21421400  0.08611000  0.46601400  1
  C  3147  1  0.22770400  0.14458000  0.45230400  1
  C  3151  1  0.77981500  0.39695200  0.94025410  1
  C  3152  1  0.76500000  0.40476300  0.95381410  1
  C  3153  1  0.74219400  0.40398800  0.95130110  1
  C  3154  1  0.73388200  0.39395500  0.93493410  1
  C  3155  1  0.74848100  0.38658900  0.92108710  1
  C  3156  1  0.77121300  0.38845600  0.92357610  1
  C  3158  1  0.71116700  0.38976900  0.93324510  1
  C  3159  1  0.69793400  0.40586800  0.92486610  1
  C  3160  1  0.67529500  0.40626600  0.92803810  1
  C  3161  1  0.66534300  0.39114300  0.94023910  1
  C  3162  1  0.67863600  0.37430200  0.94760710  1
  C  3163  1  0.70125100  0.37296500  0.94394410  1
  C  3168  1  0.72775800  0.41348100  0.96591810  1
  C  3173  1  0.71428200  0.35493900  0.95234410  1
  C  3177  1  0.61916300  0.55440500  0.19595900  1
  C  3178  1  0.62690000  0.53873400  0.18309600  1
  C  3179  1  0.62584400  0.51611300  0.18657400  1
  C  3180  1  0.61572400  0.50886500  0.20327900  1
  C  3181  1  0.60856300  0.52435300  0.21649000  1
  C  3182  1  0.61069900  0.54689200  0.21303200  1
  C  3184  1  0.61075000  0.48637100  0.20564200  1
  C  3185  1  0.62675300  0.47271200  0.21364000  1
  C  3186  1  0.62678200  0.45014100  0.21006800  1
  C  3187  1  0.61140600  0.44071600  0.19777800  1
  C  3188  1  0.59435000  0.45434100  0.19121400  1
  C  3189  1  0.59342400  0.47689000  0.19526100  1
  C  3194  1  0.63489800  0.50074100  0.17245500  1
  C  3199  1  0.57553700  0.49038500  0.18717300  1
  C  3203  1  0.32286600  0.94499200  0.69592700  1
  C  3204  1  0.31513700  0.96070400  0.68309400  1
  C  3205  1  0.31621900  0.98331400  0.68661200  1
  C  3206  1  0.32635000  0.99051000  0.70332700  1
  C  3207  1  0.33350000  0.97498100  0.71650700  1
  C  3208  1  0.33131500  0.95245200  0.71302000  1
  C  3210  1  0.33136200  0.01299100  0.70572400  1
  C  3211  1  0.31539000  0.02665800  0.71376100  1
  C  3212  1  0.31536700  0.04923100  0.71018500  1
  C  3213  1  0.33072100  0.05863500  0.69786200  1
  C  3214  1  0.34777700  0.04500600  0.69129900  1
  C  3215  1  0.34870200  0.02246000  0.69535500  1
  C  3220  1  0.30718600  0.99873300  0.67251700  1
  C  3225  1  0.36657100  0.00895300  0.68725100  1
  C  3229  1  0.16357900  0.39714200  0.44412600  1
  C  3230  1  0.17843900  0.40496900  0.43061700  1
  C  3231  1  0.20123300  0.40416300  0.43319900  1
  C  3232  1  0.20946800  0.39415800  0.44961200  1
  C  3233  1  0.19480800  0.38686100  0.46343600  1
  C  3234  1  0.17209000  0.38874900  0.46087600  1
  C  3236  1  0.23215800  0.38986600  0.45133500  1
  C  3237  1  0.24546300  0.40600300  0.45957400  1
  C  3238  1  0.26806300  0.40640100  0.45621700  1
  C  3239  1  0.27787500  0.39121300  0.44398700  1
  C  3240  1  0.26457300  0.37421300  0.43691600  1
  C  3241  1  0.24198600  0.37293200  0.44072100  1
  C  3246  1  0.21574100  0.41353100  0.41857900  1
  C  3251  1  0.22886400  0.35488000  0.43247300  1
  C  3255  1  0.77839500  0.10218100  0.94412910  1
  C  3256  1  0.76354400  0.09429500  0.93063710  1
  C  3257  1  0.74074800  0.09507200  0.93322210  1
  C  3258  1  0.73250300  0.10511200  0.94961310  1
  C  3259  1  0.74715200  0.11246800  0.96342410  1
  C  3260  1  0.76987300  0.11062600  0.96085610  1
  C  3262  1  0.70981000  0.10940000  0.95132810  1
  C  3263  1  0.69650800  0.09326800  0.95957310  1
  C  3264  1  0.67389800  0.09289900  0.95626510  1
  C  3265  1  0.66405700  0.10809500  0.94406210  1
  C  3266  1  0.67738100  0.12504300  0.93692210  1
  C  3267  1  0.69997800  0.12631600  0.94069710  1
  C  3272  1  0.72625000  0.08565000  0.91862010  1
  C  3277  1  0.71309700  0.14434700  0.93241210  1
  C  3281  1  0.77799700  0.89847900  0.94291710  1
  C  3282  1  0.76240300  0.90678600  0.93027110  1
  C  3283  1  0.73978100  0.90585800  0.93384410  1
  C  3284  1  0.73253300  0.89551100  0.95045310  1
  C  3285  1  0.74800600  0.88801700  0.96353110  1
  C  3286  1  0.77052600  0.88992500  0.95996910  1
  C  3288  1  0.71006200  0.89051500  0.95286010  1
  C  3289  1  0.69647000  0.90630500  0.96123210  1
  C  3290  1  0.67380800  0.90607600  0.95814910  1
  C  3291  1  0.66420600  0.89061700  0.94603510  1
  C  3292  1  0.67781800  0.87378800  0.93906610  1
  C  3293  1  0.70050200  0.87315800  0.94256910  1
  C  3298  1  0.72435800  0.91520400  0.91991210  1
  C  3303  1  0.71396700  0.85550100  0.93409110  1
  C  3307  1  0.16406600  0.60086600  0.44296600  1
  C  3308  1  0.17964600  0.59253700  0.43031600  1
  C  3309  1  0.20227300  0.59346900  0.43387400  1
  C  3310  1  0.20953800  0.60383600  0.45046600  1
  C  3311  1  0.19407700  0.61135800  0.46354300  1
  C  3312  1  0.17155300  0.60942500  0.46001100  1
  C  3314  1  0.23201100  0.60883200  0.45286100  1
  C  3315  1  0.24559600  0.59308500  0.46130200  1
  C  3316  1  0.26826600  0.59332200  0.45824600  1
  C  3317  1  0.27786700  0.60874200  0.44609800  1
  C  3318  1  0.26425900  0.62555100  0.43908300  1
  C  3319  1  0.24157100  0.62617900  0.44256100  1
  C  3324  1  0.21768300  0.58410500  0.41994100  1
  C  3329  1  0.22810900  0.64380900  0.43404100  1
  C  3333  1  0.77661300  0.60025400  0.94130210  1
  C  3334  1  0.76098000  0.59178300  0.95382810  1
  C  3335  1  0.73837400  0.59273600  0.95017310  1
  C  3336  1  0.73120900  0.60318000  0.93357910  1
  C  3337  1  0.74674300  0.61077100  0.92059510  1
  C  3338  1  0.76924100  0.60886800  0.92424110  1
  C  3340  1  0.70877700  0.60835600  0.93119010  1
  C  3341  1  0.69507000  0.59260400  0.92289510  1
  C  3342  1  0.67243100  0.59290500  0.92610710  1
  C  3343  1  0.66300800  0.60840200  0.93828810  1
  C  3344  1  0.67668100  0.62528200  0.94506310  1
  C  3345  1  0.69933600  0.62581600  0.94143610  1
  C  3350  1  0.72288000  0.58341500  0.96405510  1
  C  3355  1  0.71293700  0.64341600  0.94983110  1
  C  3359  1  0.16543000  0.89912800  0.44127300  1
  C  3360  1  0.18102400  0.90760700  0.45383000  1
  C  3361  1  0.20364000  0.90668400  0.45021200  1
  C  3362  1  0.21085500  0.89625300  0.43363100  1
  C  3363  1  0.19536800  0.88865900  0.42061100  1
  C  3364  1  0.17285700  0.89051400  0.42422700  1
  C  3366  1  0.23329800  0.89111400  0.43126300  1
  C  3367  1  0.24698600  0.90688100  0.42296300  1
  C  3368  1  0.26963500  0.90656100  0.42611200  1
  C  3369  1  0.27911700  0.89105700  0.43824900  1
  C  3370  1  0.26543400  0.87422400  0.44510400  1
  C  3371  1  0.24276700  0.87367700  0.44151700  1
  C  3376  1  0.21909400  0.91603500  0.46411500  1
  C  3381  1  0.22919100  0.85607200  0.44993600  1
  C  3385  1  0.11903900  0.44387700  0.19534400  1
  C  3386  1  0.12671400  0.45897100  0.20870700  1
  C  3387  1  0.12578500  0.48172100  0.20582300  1
  C  3388  1  0.11585300  0.48960900  0.18925500  1
  C  3389  1  0.10886300  0.47468500  0.17552900  1
  C  3390  1  0.11089200  0.45203900  0.17838200  1
  C  3392  1  0.11138800  0.51221800  0.18716700  1
  C  3393  1  0.12717900  0.52546300  0.17841400  1
  C  3394  1  0.12708800  0.54820500  0.18100400  1
  C  3395  1  0.11177300  0.55825000  0.19298300  1
  C  3396  1  0.09516900  0.54489300  0.20064600  1
  C  3397  1  0.09433700  0.52213000  0.19758100  1
  C  3402  1  0.13505700  0.49656300  0.22023700  1
  C  3407  1  0.07652300  0.50903900  0.20624100  1
  C  3411  1  0.82300800  0.05550000  0.69535200  1
  C  3412  1  0.81531000  0.04038500  0.70869000  1
  C  3413  1  0.81624500  0.01763900  0.70578100  1
  C  3414  1  0.82619800  0.00977700  0.68921300  1
  C  3415  1  0.83320300  0.02472400  0.67551000  1
  C  3416  1  0.83114700  0.04736700  0.67837700  1
  C  3418  1  0.83068100  0.98717500  0.68710800  1
  C  3419  1  0.81491800  0.97392700  0.67831700  1
  C  3420  1  0.81501100  0.95118400  0.68090500  1
  C  3421  1  0.83030100  0.94114900  0.69291300  1
  C  3422  1  0.84690300  0.95450500  0.70058500  1
  C  3423  1  0.84773600  0.97726700  0.69752000  1
  C  3428  1  0.80696700  0.00277100  0.72017400  1
  C  3433  1  0.86553000  0.99036200  0.70620200  1
  C  3437  1  0.11925900  0.05438000  0.68947100  1
  C  3438  1  0.12702300  0.03933900  0.67610400  1
  C  3439  1  0.12602700  0.01657900  0.67891400  1
  C  3440  1  0.11601000  0.00863900  0.69543000  1
  C  3441  1  0.10898200  0.02351700  0.70917800  1
  C  3442  1  0.11105200  0.04617000  0.70639600  1
  C  3444  1  0.11141900  0.98604300  0.69740200  1
  C  3445  1  0.12720400  0.97267100  0.70603700  1
  C  3446  1  0.12710600  0.94996600  0.70322900  1
  C  3447  1  0.11178900  0.94009200  0.69114500  1
  C  3448  1  0.09511900  0.95353300  0.68369800  1
  C  3449  1  0.09431400  0.97625600  0.68696800  1
  C  3454  1  0.13524800  0.00177500  0.66444800  1
  C  3459  1  0.07652800  0.98948600  0.67842500  1
  C  3463  1  0.82280500  0.44497700  0.18940900  1
  C  3464  1  0.81507100  0.46002800  0.17603700  1
  C  3465  1  0.81606400  0.48278600  0.17885900  1
  C  3466  1  0.82605600  0.49071300  0.19539000  1
  C  3467  1  0.83304000  0.47582700  0.20914800  1
  C  3468  1  0.83098300  0.45317500  0.20634800  1
  C  3470  1  0.83063600  0.51330800  0.19738800  1
  C  3471  1  0.81483000  0.52665900  0.20601600  1
  C  3472  1  0.81493300  0.54937200  0.20325900  1
  C  3473  1  0.83025400  0.55927400  0.19120300  1
  C  3474  1  0.84691400  0.54585100  0.18371400  1
  C  3475  1  0.84773600  0.52312200  0.18696300  1
  C  3480  1  0.80685900  0.49760000  0.16439300  1
  C  3485  1  0.86553800  0.50991600  0.17841900  1
  C  3489  1  0.52282100  0.88104600  0.71512600  1
  C  3490  1  0.51665200  0.86360600  0.70343800  1
  C  3491  1  0.49636600  0.86355200  0.69401500  1
  C  3492  1  0.48203400  0.88164500  0.69635600  1
  C  3493  1  0.48818800  0.89900000  0.70819300  1
  C  3494  1  0.50835600  0.89871300  0.71750700  1
  C  3496  1  0.46151300  0.88287800  0.68713700  1
  C  3497  1  0.44333700  0.87282600  0.69565000  1
  C  3498  1  0.42282500  0.87285600  0.68694800  1
  C  3499  1  0.41987400  0.88303600  0.66954300  1
  C  3500  1  0.43806300  0.89309100  0.66102500  1
  C  3501  1  0.45889700  0.89326000  0.66958600  1
  C  3506  1  0.49057200  0.84474600  0.68188900  1
  C  3511  1  0.47753700  0.90408600  0.66006600  1
  C  3515  1  0.41922800  0.61821400  0.21516100  1
  C  3516  1  0.42536400  0.63565500  0.20346300  1
  C  3517  1  0.44564600  0.63573000  0.19403100  1
  C  3518  1  0.46000000  0.61765500  0.19637000  1
  C  3519  1  0.45387300  0.60029600  0.20821400  1
  C  3520  1  0.43371500  0.60056600  0.21754200  1
  C  3522  1  0.48052200  0.61644900  0.18715200  1
  C  3523  1  0.49868300  0.62651900  0.19566900  1
  C  3524  1  0.51919800  0.62651100  0.18697100  1
  C  3525  1  0.52216400  0.61633000  0.16956800  1
  C  3526  1  0.50399100  0.60625400  0.16104800  1
  C  3527  1  0.48315300  0.60606300  0.16960500  1
  C  3532  1  0.45141100  0.65454000  0.18190100  1
  C  3537  1  0.46452700  0.59521500  0.16008300  1
  C  3541  1  0.10009100  0.19880200  0.46637200  1
  C  3542  1  0.08297800  0.20425000  0.45409500  1
  C  3543  1  0.08295500  0.22418100  0.44416600  1
  C  3544  1  0.10079600  0.23879800  0.44656600  1
  C  3545  1  0.11783400  0.23336400  0.45897400  1
  C  3546  1  0.11750000  0.21355100  0.46880600  1
  C  3548  1  0.10197500  0.25901700  0.43694800  1
  C  3549  1  0.09148600  0.27724000  0.44497700  1
  C  3550  1  0.09139900  0.29748700  0.43587500  1
  C  3551  1  0.10188200  0.30006300  0.41856100  1
  C  3552  1  0.11235100  0.28183100  0.41050700  1
  C  3553  1  0.11265300  0.26125500  0.41949000  1
  C  3558  1  0.06447000  0.22929100  0.43147100  1
  C  3563  1  0.12398700  0.24252200  0.41054500  1
  C  3567  1  0.84195200  0.30056600  0.96637210  1
  C  3568  1  0.85906800  0.29511100  0.95410210  1
  C  3569  1  0.85908400  0.27518100  0.94416910  1
  C  3570  1  0.84123300  0.26057400  0.94656310  1
  C  3571  1  0.82419900  0.26601100  0.95897210  1
  C  3572  1  0.82453700  0.28582400  0.96880410  1
  C  3574  1  0.84005100  0.24035700  0.93694210  1
  C  3575  1  0.85052500  0.22212800  0.94497310  1
  C  3576  1  0.85061000  0.20188300  0.93587010  1
  C  3577  1  0.84014900  0.19931700  0.91854610  1
  C  3578  1  0.82969200  0.21755500  0.91048810  1
  C  3579  1  0.82939200  0.23813000  0.91947410  1
  C  3584  1  0.87757300  0.27006500  0.93148010  1
  C  3589  1  0.81807300  0.25686800  0.91052610  1
  C  3593  1  0.41943500  0.12827400  0.66909700  1
  C  3594  1  0.42438600  0.14500900  0.68188100  1
  C  3595  1  0.44461700  0.14551100  0.69136700  1
  C  3596  1  0.46004600  0.12861700  0.68790500  1
  C  3597  1  0.45508100  0.11198600  0.67497800  1
  C  3598  1  0.43495700  0.11179300  0.66565500  1
  C  3600  1  0.48040800  0.12759100  0.69728200  1
  C  3601  1  0.49810200  0.13950200  0.68984000  1
  C  3602  1  0.51859900  0.13916400  0.69854600  1
  C  3603  1  0.52188700  0.12677700  0.71481400  1
  C  3604  1  0.50418000  0.11491700  0.72229700  1
  C  3605  1  0.48337800  0.11507000  0.71374200  1
  C  3610  1  0.44917000  0.16341600  0.70478400  1
  C  3615  1  0.46521100  0.10228300  0.72210500  1
  C  3619  1  0.52263500  0.37110200  0.16907700  1
  C  3620  1  0.51771400  0.35438500  0.18188400  1
  C  3621  1  0.49748500  0.35386400  0.19137200  1
  C  3622  1  0.48202900  0.37072500  0.18788800  1
  C  3623  1  0.48696400  0.38734300  0.17494100  1
  C  3624  1  0.50708200  0.38754400  0.16560700  1
  C  3626  1  0.46166300  0.37173300  0.19726200  1
  C  3627  1  0.44398300  0.35979500  0.18982600  1
  C  3628  1  0.42348400  0.36011600  0.19852600  1
  C  3629  1  0.42017600  0.37252300  0.21478100  1
  C  3630  1  0.43786700  0.38441100  0.22226000  1
  C  3631  1  0.45867300  0.38427100  0.21371100  1
  C  3636  1  0.49296000  0.33597200  0.20481000  1
  C  3641  1  0.47682100  0.39709000  0.22206700  1
  C  3645  1  0.83990900  0.80059700  0.91822010  1
  C  3646  1  0.85724400  0.79420200  0.92993110  1
  C  3647  1  0.85673300  0.77421100  0.93973510  1
  C  3648  1  0.83809700  0.76052300  0.93780510  1
  C  3649  1  0.82086500  0.76683100  0.92590410  1
  C  3650  1  0.82176600  0.78667700  0.91614910  1
  C  3652  1  0.83654800  0.74019800  0.94717810  1
  C  3653  1  0.84559700  0.72173000  0.93834410  1
  C  3654  1  0.84600000  0.70145400  0.94736310  1
  C  3655  1  0.83732200  0.69911100  0.96540810  1
  C  3656  1  0.82814700  0.71755500  0.97421310  1
  C  3657  1  0.82751000  0.73817000  0.96531110  1
  C  3662  1  0.87557300  0.76804400  0.95170410  1
  C  3667  1  0.81759900  0.75716800  0.97503810  1
  C  3671  1  0.10221400  0.69879200  0.41820300  1
  C  3672  1  0.08488400  0.70516400  0.42992700  1
  C  3673  1  0.08538900  0.72515000  0.43974000  1
  C  3674  1  0.10401300  0.73885100  0.43780600  1
  C  3675  1  0.12123900  0.73256800  0.42588800  1
  C  3676  1  0.12034400  0.71272600  0.41612300  1
  C  3678  1  0.10555000  0.75917200  0.44718400  1
  C  3679  1  0.09647100  0.77763300  0.43836100  1
  C  3680  1  0.09606300  0.79790900  0.44738100  1
  C  3681  1  0.10475400  0.80025300  0.46542300  1
  C  3682  1  0.11395300  0.78181600  0.47421900  1
  C  3683  1  0.11460000  0.76120200  0.46531200  1
  C  3688  1  0.06655400  0.73129200  0.45172500  1
  C  3693  1  0.12453900  0.74221300  0.47502900  1
  C  3697  1  0.02290400  0.37665700  0.21489800  1
  C  3698  1  0.01612100  0.35939200  0.20326100  1
  C  3699  1  0.99578100  0.35990000  0.19395000  1
  C  3700  1  0.98200200  0.37840800  0.19634700  1
  C  3701  1  0.98869300  0.39555800  0.20818400  1
  C  3702  1  0.00889300  0.39466800  0.21742700  1
  C  3704  1  0.96135200  0.37998900  0.18739900  1
  C  3705  1  0.94305500  0.37095900  0.19652900  1
  C  3706  1  0.92252500  0.37057300  0.18787200  1
  C  3707  1  0.91975800  0.37916000  0.16984500  1
  C  3708  1  0.93799300  0.38842000  0.16078000  1
  C  3709  1  0.95881800  0.38910600  0.16933700  1
  C  3714  1  0.98929000  0.34112400  0.18203700  1
  C  3719  1  0.97752500  0.39914800  0.15930300  1
  C  3723  1  0.91916900  0.12271500  0.71490800  1
  C  3724  1  0.92595200  0.13998800  0.70327900  1
  C  3725  1  0.94629300  0.13948500  0.69396900  1
  C  3726  1  0.96007200  0.12097700  0.69635800  1
  C  3727  1  0.95338200  0.10381900  0.70818800  1
  C  3728  1  0.93318300  0.10470500  0.71743600  1
  C  3730  1  0.98072600  0.11940300  0.68741500  1
  C  3731  1  0.99902200  0.12841500  0.69656000  1
  C  3732  1  0.01955700  0.12880200  0.68791200  1
  C  3733  1  0.02233000  0.12023800  0.66987700  1
  C  3734  1  0.00409800  0.11098600  0.66080200  1
  C  3735  1  0.98326900  0.11029600  0.66935000  1
  C  3740  1  0.95278500  0.15826800  0.68206600  1
  C  3745  1  0.96456600  0.10026500  0.65930200  1
  C  3749  1  0.59136800  0.69706200  0.96393810  1
  C  3750  1  0.57402500  0.70314700  0.95212510  1
  C  3751  1  0.57369200  0.72372700  0.94315210  1
  C  3752  1  0.59128500  0.73849400  0.94621710  1
  C  3753  1  0.60853500  0.73238700  0.95817410  1
  C  3754  1  0.60859400  0.71189900  0.96694210  1
  C  3756  1  0.59237600  0.75926700  0.93739710  1
  C  3757  1  0.58115300  0.77695100  0.94562710  1
  C  3758  1  0.58133300  0.79772100  0.93734610  1
  C  3759  1  0.59288400  0.80136800  0.92069010  1
  C  3760  1  0.60414800  0.78370100  0.91247610  1
  C  3761  1  0.60413300  0.76263700  0.92058610  1
  C  3766  1  0.55517000  0.72935900  0.93067110  1
  C  3771  1  0.61615100  0.74455200  0.91131610  1
  C  3775  1  0.35073200  0.80232500  0.46389300  1
  C  3776  1  0.36807900  0.79622300  0.45209100  1
  C  3777  1  0.36841200  0.77563900  0.44312900  1
  C  3778  1  0.35081400  0.76087700  0.44619600  1
  C  3779  1  0.33355900  0.76700000  0.45814200  1
  C  3780  1  0.33350000  0.78749600  0.46689700  1
  C  3782  1  0.34972600  0.74009500  0.43739200  1
  C  3783  1  0.36095200  0.72242300  0.44563800  1
  C  3784  1  0.36077900  0.70164500  0.43737000  1
  C  3785  1  0.34923800  0.69797800  0.42071300  1
  C  3786  1  0.33797300  0.71563400  0.41248300  1
  C  3787  1  0.33797800  0.73670600  0.42057800  1
  C  3792  1  0.38693800  0.76999300  0.43065900  1
  C  3797  1  0.32596400  0.75478000  0.41129000  1
  C  3801  1  0.91926500  0.63291300  0.16941400  1
  C  3802  1  0.92499500  0.64982200  0.18178200  1
  C  3803  1  0.94529000  0.64977600  0.19114200  1
  C  3804  1  0.95997800  0.63217300  0.18792400  1
  C  3805  1  0.95425000  0.61535000  0.17541700  1
  C  3806  1  0.93404900  0.61570100  0.16622500  1
  C  3808  1  0.98053000  0.63094100  0.19690900  1
  C  3809  1  0.99828100  0.64202200  0.18868300  1
  C  3810  1  0.01881800  0.64216200  0.19729100  1
  C  3811  1  0.02200000  0.63118500  0.21427600  1
  C  3812  1  0.00431600  0.61996000  0.22245700  1
  C  3813  1  0.98348600  0.61958800  0.21396900  1
  C  3818  1  0.95069500  0.66792500  0.20409200  1
  C  3823  1  0.96527300  0.60755700  0.22303600  1
  C  3827  1  0.02276400  0.86646900  0.66939300  1
  C  3828  1  0.01705000  0.84957200  0.68177400  1
  C  3829  1  0.99675800  0.84961500  0.69114000  1
  C  3830  1  0.98206000  0.86720700  0.68791300  1
  C  3831  1  0.98777400  0.88402100  0.67539500  1
  C  3832  1  0.00796800  0.88366900  0.66619300  1
  C  3834  1  0.96150600  0.86843400  0.69689700  1
  C  3835  1  0.94376100  0.85734300  0.68867300  1
  C  3836  1  0.92322100  0.85720000  0.69727500  1
  C  3837  1  0.92003100  0.86818700  0.71425500  1
  C  3838  1  0.93770700  0.87942500  0.72243300  1
  C  3839  1  0.95854000  0.87979900  0.71394900  1
  C  3844  1  0.99136700  0.83147400  0.70410400  1
  C  3849  1  0.97674500  0.89184600  0.72301300  1
  C  3853  1  0.35150600  0.30265200  0.42129200  1
  C  3854  1  0.36893600  0.29582400  0.43270800  1
  C  3855  1  0.36890600  0.27504900  0.44131800  1
  C  3856  1  0.35085200  0.26085600  0.43826300  1
  C  3857  1  0.33351600  0.26767400  0.42668400  1
  C  3858  1  0.33383000  0.28835800  0.41826600  1
  C  3860  1  0.34955900  0.23985800  0.44660000  1
  C  3861  1  0.36010000  0.22226200  0.43762500  1
  C  3862  1  0.36016500  0.20133700  0.44558800  1
  C  3863  1  0.34960100  0.19750100  0.46267500  1
  C  3864  1  0.33891400  0.21504500  0.47159100  1
  C  3865  1  0.33865900  0.23626300  0.46378700  1
  C  3870  1  0.38757000  0.26861700  0.45336900  1
  C  3875  1  0.32730200  0.25426100  0.47375300  1
  C  3879  1  0.59047400  0.19670500  0.92131310  1
  C  3880  1  0.57304700  0.20353800  0.93273110  1
  C  3881  1  0.57307800  0.22431800  0.94133410  1
  C  3882  1  0.59113500  0.23850600  0.93827310  1
  C  3883  1  0.60846800  0.23168300  0.92669610  1
  C  3884  1  0.60815100  0.21099400  0.91828410  1
  C  3886  1  0.59242400  0.25951100  0.94659910  1
  C  3887  1  0.58187800  0.27709700  0.93761610  1
  C  3888  1  0.58180800  0.29802700  0.94556610  1
  C  3889  1  0.59236500  0.30187800  0.96265410  1
  C  3890  1  0.60305800  0.28434300  0.97158110  1
  C  3891  1  0.60331900  0.26312000  0.96378710  1
  C  3896  1  0.55441600  0.23075600  0.95338210  1
  C  3901  1  0.61467800  0.24513200  0.97376210  1
  C  3905  1  0.57571400  0.84288700  0.86574500  1
  C  3906  1  0.59100700  0.83467600  0.85283600  1
  C  3907  1  0.58750500  0.83630600  0.83348300  1
  C  3908  1  0.56798600  0.84637900  0.82703300  1
  C  3909  1  0.55222300  0.85365800  0.83997800  1
  C  3910  1  0.55600600  0.85188100  0.85917300  1
  C  3912  1  0.56562800  0.85259200  0.80813200  1
  C  3913  1  0.55801100  0.83708000  0.79512600  1
  C  3914  1  0.55766500  0.84192900  0.77603800  1
  C  3915  1  0.56519500  0.86230700  0.76956000  1
  C  3916  1  0.57213800  0.87802200  0.78265900  1
  C  3917  1  0.57273700  0.87346400  0.80188300  1
  C  3922  1  0.60470800  0.82847200  0.82047600  1
  C  3927  1  0.58123300  0.89037300  0.81489000  1
  C  3931  1  0.36643600  0.65644400  0.36579900  1
  C  3932  1  0.35114700  0.66468000  0.35289700  1
  C  3933  1  0.35462000  0.66301100  0.33354200  1
  C  3934  1  0.37411700  0.65290400  0.32708500  1
  C  3935  1  0.38987900  0.64560800  0.34002400  1
  C  3936  1  0.38613900  0.64744200  0.35921900  1
  C  3938  1  0.37645100  0.64667100  0.30818500  1
  C  3939  1  0.38409400  0.66215700  0.29517000  1
  C  3940  1  0.38443500  0.65728700  0.27608400  1
  C  3941  1  0.37687100  0.63691500  0.26962200  1
  C  3942  1  0.36991500  0.62121900  0.28273300  1
  C  3943  1  0.36932300  0.62579800  0.30195300  1
  C  3948  1  0.33740900  0.67084200  0.32054000  1
  C  3953  1  0.36080700  0.60891400  0.31497400  1
  C  3957  1  0.06404000  0.14559700  0.61729700  1
  C  3958  1  0.05717900  0.12972800  0.60428800  1
  C  3959  1  0.05849600  0.13337500  0.58495000  1
  C  3960  1  0.06704800  0.15361300  0.57854700  1
  C  3961  1  0.07305200  0.16986700  0.59152400  1
  C  3962  1  0.07135700  0.16599600  0.61072600  1
  C  3964  1  0.07293300  0.15638400  0.55961100  1
  C  3965  1  0.05689900  0.16326900  0.54676500  1
  C  3966  1  0.06134900  0.16352400  0.52760300  1
  C  3967  1  0.08180100  0.15649200  0.52090500  1
  C  3968  1  0.09801000  0.15024200  0.53381200  1
  C  3969  1  0.09390400  0.14989800  0.55311500  1
  C  3974  1  0.05181700  0.11569400  0.57192700  1
  C  3979  1  0.11140800  0.14235900  0.56597700  1
  C  3983  1  0.87808200  0.35381400  0.11723900  1
  C  3984  1  0.88497900  0.36967200  0.10423500  1
  C  3985  1  0.88368000  0.36602100  0.08489800  1
  C  3986  1  0.87514300  0.34577900  0.07849400  1
  C  3987  1  0.86914400  0.32951400  0.09146500  1
  C  3988  1  0.87078700  0.33340700  0.11066800  1
  C  3990  1  0.86924200  0.34300100  0.05956200  1
  C  3991  1  0.88526900  0.33612000  0.04670800  1
  C  3992  1  0.88080800  0.33586400  0.02754900  1
  C  3993  1  0.86035400  0.34289900  0.02085800  1
  C  3994  1  0.84415500  0.34915900  0.03377300  1
  C  3995  1  0.84827000  0.34949600  0.05307300  1
  C  4000  1  0.89037200  0.38369400  0.07187300  1
  C  4005  1  0.83077600  0.35703800  0.06594300  1
  C  4009  1  0.57492900  0.65604000  0.01921600  1
  C  4010  1  0.59014200  0.66450900  0.03207000  1
  C  4011  1  0.58671700  0.66289200  0.05143500  1
  C  4012  1  0.56736100  0.65257100  0.05795200  1
  C  4013  1  0.55165300  0.64505500  0.04505700  1
  C  4014  1  0.55535800  0.64681500  0.02585200  1
  C  4016  1  0.56518700  0.64627300  0.07684800  1
  C  4017  1  0.55729800  0.66158600  0.08990700  1
  C  4018  1  0.55697300  0.65661400  0.10897500  1
  C  4019  1  0.56479600  0.63631300  0.11537900  1
  C  4020  1  0.57204500  0.62080000  0.10222300  1
  C  4021  1  0.57262600  0.62548200  0.08302100  1
  C  4026  1  0.60384800  0.67099000  0.06439400  1
  C  4031  1  0.58141300  0.60878000  0.06996000  1
  C  4035  1  0.36721600  0.84331700  0.51916300  1
  C  4036  1  0.35199400  0.83483400  0.53200500  1
  C  4037  1  0.35539500  0.83645300  0.55137300  1
  C  4038  1  0.37473600  0.84679000  0.55790500  1
  C  4039  1  0.39044600  0.85432600  0.54502000  1
  C  4040  1  0.38678700  0.85252600  0.52581200  1
  C  4042  1  0.37688700  0.85309000  0.57680300  1
  C  4043  1  0.38479400  0.83778800  0.58986500  1
  C  4044  1  0.38511500  0.84276900  0.60893200  1
  C  4045  1  0.37726600  0.86306100  0.61533200  1
  C  4046  1  0.37001000  0.87856600  0.60217200  1
  C  4047  1  0.36943700  0.87387700  0.58297100  1
  C  4052  1  0.33825400  0.82835000  0.56431900  1
  C  4057  1  0.36063700  0.89057000  0.56990500  1
  C  4061  1  0.06447600  0.35242500  0.26770800  1
  C  4062  1  0.05722300  0.36826700  0.28058800  1
  C  4063  1  0.05851800  0.36481600  0.29995400  1
  C  4064  1  0.06742500  0.34480200  0.30651800  1
  C  4065  1  0.07378000  0.32854300  0.29366500  1
  C  4066  1  0.07211900  0.33221700  0.27443400  1
  C  4068  1  0.07338200  0.34234500  0.32547000  1
  C  4069  1  0.05754500  0.33517000  0.33837600  1
  C  4070  1  0.06209000  0.33503000  0.35752500  1
  C  4071  1  0.08243100  0.34246900  0.36415100  1
  C  4072  1  0.09843800  0.34904900  0.35118100  1
  C  4073  1  0.09423900  0.34928100  0.33189100  1
  C  4078  1  0.05145800  0.38248300  0.31284500  1
  C  4083  1  0.11153800  0.35713500  0.31896400  1
  C  4087  1  0.87761200  0.14694700  0.76773400  1
  C  4088  1  0.88489300  0.13111400  0.78061100  1
  C  4089  1  0.88362300  0.13457100  0.79997500  1
  C  4090  1  0.87472400  0.15458500  0.80654100  1
  C  4091  1  0.86836900  0.17085500  0.79369500  1
  C  4092  1  0.86998400  0.16716000  0.77446100  1
  C  4094  1  0.86875000  0.15704600  0.82548900  1
  C  4095  1  0.88457700  0.16422100  0.83840500  1
  C  4096  1  0.88002200  0.16435500  0.85755100  1
  C  4097  1  0.85968300  0.15690200  0.86416800  1
  C  4098  1  0.84368800  0.15031100  0.85119000  1
  C  4099  1  0.84789400  0.15009000  0.83190200  1
  C  4104  1  0.89070600  0.11691500  0.81286800  1
  C  4109  1  0.83060600  0.14223200  0.81896800  1
  C  4113  1  0.36908600  0.15495500  0.51626300  1
  C  4114  1  0.35286200  0.16215300  0.52879300  1
  C  4115  1  0.35595800  0.16120400  0.54821400  1
  C  4116  1  0.37603200  0.15282800  0.55515700  1
  C  4117  1  0.39258000  0.14636400  0.54260800  1
  C  4118  1  0.38919500  0.14749700  0.52331600  1
  C  4120  1  0.37850900  0.14781500  0.57429700  1
  C  4121  1  0.38409900  0.16471600  0.58678600  1
  C  4122  1  0.38384600  0.16110800  0.60606600  1
  C  4123  1  0.37774000  0.14058100  0.61324500  1
  C  4124  1  0.37296400  0.12349300  0.60069900  1
  C  4125  1  0.37294700  0.12680100  0.58128200  1
  C  4130  1  0.33789400  0.16811400  0.56076000  1
  C  4135  1  0.36655500  0.10846600  0.56881900  1
  C  4139  1  0.57286900  0.34441100  0.01621800  1
  C  4140  1  0.58910100  0.33719500  0.02873400  1
  C  4141  1  0.58602500  0.33813200  0.04815800  1
  C  4142  1  0.56597200  0.34654100  0.05511800  1
  C  4143  1  0.54942500  0.35304200  0.04258300  1
  C  4144  1  0.55277300  0.35188000  0.02328800  1
  C  4146  1  0.56352400  0.35155500  0.07426100  1
  C  4147  1  0.55789700  0.33466900  0.08675100  1
  C  4148  1  0.55815800  0.33827900  0.10603100  1
  C  4149  1  0.56431100  0.35879100  0.11320800  1
  C  4150  1  0.56910900  0.37587100  0.10066000  1
  C  4151  1  0.56911700  0.37256300  0.08124400  1
  C  4156  1  0.60409300  0.33119400  0.06069000  1
  C  4161  1  0.57553700  0.39088500  0.06877800  1
  C  4165  1  0.87858500  0.84929200  0.76855300  1
  C  4166  1  0.88786600  0.86495000  0.78063200  1
  C  4167  1  0.88733100  0.86239400  0.80012300  1
  C  4168  1  0.87709000  0.84351700  0.80762800  1
  C  4169  1  0.86870700  0.82735200  0.79555800  1
  C  4170  1  0.86966200  0.83008200  0.77618400  1
  C  4172  1  0.87169500  0.84244400  0.82678000  1
  C  4173  1  0.88696800  0.83369100  0.83946800  1
  C  4174  1  0.88278800  0.83400800  0.85867800  1
  C  4175  1  0.86348400  0.84356300  0.86560100  1
  C  4176  1  0.84809900  0.85193900  0.85281700  1
  C  4177  1  0.85187200  0.85166100  0.83347500  1
  C  4182  1  0.89662900  0.87981800  0.81219100  1
  C  4187  1  0.83510700  0.86104700  0.82077000  1
  C  4191  1  0.06342800  0.65010100  0.26858200  1
  C  4192  1  0.05413200  0.63445200  0.28066000  1
  C  4193  1  0.05465300  0.63701600  0.30015000  1
  C  4194  1  0.06488600  0.65589600  0.30765200  1
  C  4195  1  0.07326300  0.67207200  0.29558500  1
  C  4196  1  0.07234200  0.66931700  0.27621200  1
  C  4198  1  0.07031200  0.65697400  0.32679900  1
  C  4199  1  0.05506100  0.66574100  0.33949800  1
  C  4200  1  0.05925900  0.66541600  0.35870600  1
  C  4201  1  0.07855500  0.65583100  0.36561200  1
  C  4202  1  0.09392200  0.64744500  0.35281800  1
  C  4203  1  0.09013100  0.64773200  0.33347800  1
  C  4208  1  0.04534200  0.61960500  0.31222300  1
  C  4213  1  0.10687200  0.63833100  0.32076000  1
  C  4217  1  0.37013400  0.34479200  0.36739900  1
  C  4218  1  0.35395100  0.33727000  0.35497000  1
  C  4219  1  0.35691400  0.33817200  0.33553000  1
  C  4220  1  0.37680700  0.34683200  0.32846900  1
  C  4221  1  0.39333600  0.35359400  0.34092100  1
  C  4222  1  0.39008500  0.35251200  0.36023100  1
  C  4224  1  0.37905400  0.35189900  0.30931800  1
  C  4225  1  0.38486900  0.33512600  0.29677900  1
  C  4226  1  0.38454300  0.33880200  0.27750700  1
  C  4227  1  0.37813500  0.35926400  0.27038500  1
  C  4228  1  0.37309900  0.37622600  0.28298400  1
  C  4229  1  0.37314800  0.37284800  0.30239000  1
  C  4234  1  0.33887900  0.33094400  0.32308600  1
  C  4239  1  0.36649800  0.39104700  0.31490400  1
  C  4243  1  0.57181200  0.15460300  0.86743600  1
  C  4244  1  0.58799600  0.16216200  0.85502300  1
  C  4245  1  0.58506700  0.16124200  0.83557900  1
  C  4246  1  0.56519900  0.15254300  0.82849900  1
  C  4247  1  0.54866800  0.14574900  0.84093600  1
  C  4248  1  0.55187500  0.14686800  0.86024900  1
  C  4250  1  0.56298900  0.14746300  0.80934700  1
  C  4251  1  0.55713800  0.16421300  0.79679900  1
  C  4252  1  0.55747400  0.16052300  0.77752900  1
  C  4253  1  0.56393400  0.14007200  0.77041800  1
  C  4254  1  0.56899600  0.12312800  0.78302700  1
  C  4255  1  0.56893300  0.12651900  0.80243300  1
  C  4260  1  0.60311000  0.16848400  0.82315200  1
  C  4265  1  0.57561100  0.10834200  0.81495600  1
  C  4269  1  0.87802400  0.65118100  0.11497500  1
  C  4270  1  0.88761500  0.63565400  0.10294800  1
  C  4271  1  0.88704900  0.63812300  0.08344900  1
  C  4272  1  0.87645700  0.65677400  0.07588200  1
  C  4273  1  0.86779400  0.67284400  0.08790200  1
  C  4274  1  0.86878300  0.67020800  0.10728400  1
  C  4276  1  0.87093600  0.65762000  0.05674500  1
  C  4277  1  0.88590300  0.66666667  0.04396000  1
  C  4278  1  0.88154600  0.66631600  0.02477800  1
  C  4279  1  0.86237700  0.65637500  0.01797900  1
  C  4280  1  0.84730500  0.64764700  0.03086300  1
  C  4281  1  0.85125500  0.64798400  0.05017900  1
  C  4286  1  0.89666300  0.62082300  0.07143000  1
  C  4291  1  0.83480100  0.63825400  0.06298700  1
  C  4295  1  0.06398300  0.84818900  0.61493900  1
  C  4296  1  0.05437100  0.86370400  0.60291400  1
  C  4297  1  0.05491700  0.86122400  0.58341600  1
  C  4298  1  0.06550100  0.84257100  0.57585300  1
  C  4299  1  0.07416400  0.82649300  0.58786900  1
  C  4300  1  0.07321500  0.82915700  0.60725000  1
  C  4302  1  0.07105100  0.84171900  0.55672200  1
  C  4303  1  0.05610400  0.83262900  0.54392600  1
  C  4304  1  0.06047600  0.83302000  0.52474700  1
  C  4305  1  0.07963600  0.84298900  0.51796000  1
  C  4306  1  0.09469100  0.85172500  0.53085300  1
  C  4307  1  0.09072700  0.85137900  0.55016700  1
  C  4312  1  0.04528700  0.87851000  0.57139300  1
  C  4317  1  0.10715900  0.86112400  0.56298800  1
  C  4321  1  0.77993900  0.89081700  0.72231500  1
  C  4322  1  0.76685400  0.88462600  0.70703300  1
  C  4323  1  0.74385900  0.88331600  0.70828100  1
  C  4324  1  0.73364400  0.88756900  0.72570800  1
  C  4325  1  0.74686300  0.89256700  0.74126700  1
  C  4326  1  0.76965100  0.89464900  0.73952000  1
  C  4328  1  0.71052900  0.89027600  0.72705900  1
  C  4329  1  0.69688700  0.87189700  0.72438900  1
  C  4330  1  0.67439800  0.87438300  0.72106100  1
  C  4331  1  0.66471300  0.89527100  0.72112600  1
  C  4332  1  0.67807000  0.91343700  0.72538900  1
  C  4333  1  0.70089600  0.91144700  0.72783300  1
  C  4338  1  0.73114700  0.87901500  0.69100200  1
  C  4343  1  0.71416500  0.93173000  0.72972800  1
  C  4347  1  0.16210200  0.60864600  0.22235800  1
  C  4348  1  0.17520600  0.61478400  0.20707200  1
  C  4349  1  0.19820400  0.61605100  0.20832000  1
  C  4350  1  0.20840400  0.61177900  0.22574900  1
  C  4351  1  0.19517500  0.60679600  0.24130400  1
  C  4352  1  0.17238100  0.60479700  0.23956400  1
  C  4354  1  0.23151600  0.60904100  0.22710500  1
  C  4355  1  0.24517900  0.62741300  0.22448500  1
  C  4356  1  0.26766500  0.62490000  0.22115500  1
  C  4357  1  0.27733000  0.60400100  0.22119900  1
  C  4358  1  0.26394400  0.58584600  0.22543600  1
  C  4359  1  0.24111900  0.58785700  0.22787300  1
  C  4364  1  0.21093000  0.62032100  0.19104300  1
  C  4369  1  0.22782300  0.56759000  0.22973900  1
  C  4373  1  0.10802100  0.94231800  0.46735900  1
  C  4374  1  0.10196600  0.95611500  0.45249500  1
  C  4375  1  0.10015700  0.97899100  0.45468400  1
  C  4376  1  0.10354100  0.98822500  0.47263900  1
  C  4377  1  0.10797100  0.97421800  0.48779400  1
  C  4378  1  0.11075100  0.95166400  0.48511200  1
  C  4380  1  0.10652100  0.01117100  0.47499800  1
  C  4381  1  0.08846800  0.02525300  0.47238400  1
  C  4382  1  0.09146600  0.04784900  0.47005700  1
  C  4383  1  0.11251900  0.05708200  0.47107200  1
  C  4384  1  0.13027700  0.04322200  0.47537000  1
  C  4385  1  0.12781100  0.02034400  0.47683600  1
  C  4390  1  0.09647800  0.99266400  0.43784200  1
  C  4395  1  0.14781100  0.00665000  0.47879000  1
  C  4399  1  0.83406300  0.55704700  0.96738510  1
  C  4400  1  0.84010900  0.54326800  0.95250510  1
  C  4401  1  0.84194200  0.52039400  0.95466110  1
  C  4402  1  0.83859000  0.51113200  0.97260810  1
  C  4403  1  0.83420300  0.52510600  0.98779610  1
  C  4404  1  0.83135200  0.54765400  0.98512410  1
  C  4406  1  0.83558400  0.48818500  0.97495210  1
  C  4407  1  0.85361700  0.47408800  0.97229410  1
  C  4408  1  0.85060200  0.45149300  0.96997710  1
  C  4409  1  0.82954400  0.44228400  0.97100510  1
  C  4410  1  0.81179600  0.45615500  0.97529910  1
  C  4411  1  0.81428600  0.47902900  0.97679010  1
  C  4416  1  0.84563100  0.50674700  0.93780710  1
  C  4421  1  0.79430200  0.49274300  0.97876910  1
  C  4425  1  0.77958800  0.60892700  0.16134100  1
  C  4426  1  0.76663800  0.61507400  0.17672100  1
  C  4427  1  0.74361900  0.61617800  0.17568800  1
  C  4428  1  0.73322500  0.61182300  0.15835800  1
  C  4429  1  0.74630200  0.60695500  0.14267800  1
  C  4430  1  0.76912400  0.60502300  0.14422700  1
  C  4432  1  0.71011600  0.60888000  0.15721900  1
  C  4433  1  0.69631100  0.62708100  0.16016500  1
  C  4434  1  0.67388800  0.62432300  0.16366200  1
  C  4435  1  0.66439800  0.60334800  0.16344400  1
  C  4436  1  0.67790600  0.58537700  0.15892500  1
  C  4437  1  0.70068900  0.58762200  0.15634900  1
  C  4442  1  0.73110200  0.62033700  0.19309700  1
  C  4447  1  0.71413400  0.56748700  0.15419800  1
  C  4451  1  0.16244000  0.89041300  0.66127100  1
  C  4452  1  0.17539700  0.88429800  0.67666100  1
  C  4453  1  0.19841900  0.88324000  0.67563200  1
  C  4454  1  0.20880900  0.88757600  0.65829700  1
  C  4455  1  0.19572800  0.89242300  0.64261600  1
  C  4456  1  0.17290300  0.89430400  0.64415500  1
  C  4458  1  0.23191600  0.89051800  0.65715200  1
  C  4459  1  0.24572300  0.87231200  0.66007200  1
  C  4460  1  0.26814500  0.87507600  0.66356500  1
  C  4461  1  0.27764300  0.89604900  0.66333700  1
  C  4462  1  0.26412700  0.91401500  0.65881800  1
  C  4463  1  0.24134300  0.91177500  0.65625800  1
  C  4468  1  0.21094500  0.87913700  0.69304600  1
  C  4473  1  0.22789800  0.93191000  0.65411300  1
  C  4477  1  0.10741700  0.55685500  0.41677400  1
  C  4478  1  0.10141500  0.54310200  0.43168600  1
  C  4479  1  0.09983700  0.52019600  0.42962300  1
  C  4480  1  0.10338300  0.51085900  0.41172700  1
  C  4481  1  0.10773600  0.52480200  0.39651300  1
  C  4482  1  0.11033000  0.54739500  0.39908700  1
  C  4484  1  0.10657200  0.48791700  0.40949100  1
  C  4485  1  0.08868200  0.47367800  0.41229400  1
  C  4486  1  0.09192000  0.45113000  0.41472800  1
  C  4487  1  0.11304300  0.44207400  0.41358400  1
  C  4488  1  0.13061600  0.45607900  0.40908100  1
  C  4489  1  0.12792800  0.47892500  0.40755400  1
  C  4494  1  0.09624500  0.50662900  0.44654100  1
  C  4499  1  0.14779500  0.49277800  0.40542900  1
  C  4503  1  0.83468000  0.94253400  0.91676210  1
  C  4504  1  0.84069000  0.95627100  0.93168310  1
  C  4505  1  0.84226300  0.97918000  0.92964610  1
  C  4506  1  0.83874400  0.98853800  0.91175910  1
  C  4507  1  0.83443500  0.97462200  0.89651500  1
  C  4508  1  0.83177600  0.95203300  0.89908600  1
  C  4510  1  0.83552500  0.01147700  0.90953210  1
  C  4511  1  0.85339400  0.02573500  0.91237010  1
  C  4512  1  0.85013900  0.04828300  0.91478510  1
  C  4513  1  0.82900900  0.05731400  0.91363310  1
  C  4514  1  0.81144500  0.04329300  0.90914410  1
  C  4515  1  0.81415900  0.02045000  0.90759810  1
  C  4520  1  0.84585400  0.99272800  0.94657510  1
  C  4525  1  0.79430900  0.00657600  0.90545310  1
  C  4529  1  0.16448700  0.11039600  0.66428200  1
  C  4530  1  0.17851900  0.11621900  0.67905600  1
  C  4531  1  0.20149100  0.11652900  0.67703000  1
  C  4532  1  0.21073100  0.11157900  0.65934100  1
  C  4533  1  0.19660900  0.10716700  0.64424600  1
  C  4534  1  0.17385600  0.10609300  0.64676400  1
  C  4536  1  0.23364300  0.10786600  0.65719500  1
  C  4537  1  0.24807300  0.12574700  0.65901800  1
  C  4538  1  0.27063700  0.12247200  0.66120200  1
  C  4539  1  0.27970100  0.10127300  0.66081200  1
  C  4540  1  0.26539000  0.08355400  0.65753900  1
  C  4541  1  0.24249500  0.08636200  0.65616300  1
  C  4546  1  0.21518500  0.12034900  0.69383400  1
  C  4551  1  0.22836500  0.06660100  0.65501000  1
  C  4555  1  0.77760400  0.38896000  0.16417800  1
  C  4556  1  0.76358300  0.38315600  0.17896900  1
  C  4557  1  0.74060800  0.38285100  0.17695900  1
  C  4558  1  0.73135600  0.38777500  0.15927000  1
  C  4559  1  0.74546500  0.39217900  0.14416500  1
  C  4560  1  0.76822300  0.39321500  0.14665700  1
  C  4562  1  0.70844100  0.39147300  0.15712900  1
  C  4563  1  0.69402900  0.37357300  0.15892700  1
  C  4564  1  0.67146200  0.37683800  0.16112500  1
  C  4565  1  0.66237800  0.39802900  0.16075000  1
  C  4566  1  0.67667900  0.41575600  0.15747300  1
  C  4567  1  0.69957600  0.41296900  0.15609300  1
  C  4572  1  0.72692200  0.37906000  0.19377300  1
  C  4577  1  0.71369100  0.43274000  0.15494100  1
  C  4581  1  0.16479500  0.38836100  0.22066600  1
  C  4582  1  0.17867700  0.38254900  0.20577900  1
  C  4583  1  0.20167800  0.38249200  0.20756700  1
  C  4584  1  0.21111100  0.38760200  0.22514800  1
  C  4585  1  0.19715500  0.39194000  0.24036900  1
  C  4586  1  0.17436000  0.39280600  0.23807700  1
  C  4588  1  0.23402500  0.39150500  0.22706100  1
  C  4589  1  0.24857600  0.37374900  0.22501300  1
  C  4590  1  0.27108300  0.37722200  0.22262500  1
  C  4591  1  0.28000600  0.39848000  0.22309700  1
  C  4592  1  0.26558300  0.41605600  0.22657100  1
  C  4593  1  0.24272700  0.41306600  0.22811000  1
  C  4598  1  0.21516000  0.37880600  0.19061300  1
  C  4603  1  0.22846500  0.43271300  0.22949000  1
  C  4607  1  0.77728100  0.11105600  0.72065800  1
  C  4608  1  0.76340900  0.11690000  0.70578000  1
  C  4609  1  0.74040900  0.11699100  0.70756900  1
  C  4610  1  0.73097600  0.11189800  0.72515400  1
  C  4611  1  0.74492500  0.10758100  0.74038700  1
  C  4612  1  0.76771600  0.10664100  0.73807900  1
  C  4614  1  0.70806600  0.10797500  0.72706800  1
  C  4615  1  0.69349700  0.12571300  0.72500400  1
  C  4616  1  0.67099000  0.12222200  0.72263400  1
  C  4617  1  0.66208700  0.10095700  0.72309500  1
  C  4618  1  0.67653200  0.08339300  0.72655300  1
  C  4619  1  0.69938500  0.08640400  0.72810700  1
  C  4624  1  0.72692500  0.12071600  0.69062300  1
  C  4629  1  0.71366500  0.06677000  0.72949000  1
  C  4633  1  0.61754000  0.44225100  0.97167210  1
  C  4634  1  0.61217400  0.45662300  0.95700610  1
  C  4635  1  0.61151200  0.47954100  0.95940210  1
  C  4636  1  0.61570600  0.48845600  0.97735310  1
  C  4637  1  0.62025900  0.47401600  0.99221013  1
  C  4638  1  0.62158000  0.45130500  0.98935610  1
  C  4640  1  0.61796000  0.51151200  0.98008410  1
  C  4641  1  0.59930300  0.52491800  0.97807710  1
  C  4642  1  0.60127900  0.54766200  0.97597210  1
  C  4643  1  0.62189300  0.55795600  0.97662210  1
  C  4644  1  0.64030000  0.54468200  0.98037610  1
  C  4645  1  0.63883100  0.52164300  0.98165610  1
  C  4650  1  0.60775300  0.49354900  0.94277010  1
  C  4655  1  0.65934700  0.50868900  0.98314310  1
  C  4659  1  0.32446900  0.05712700  0.47173800  1
  C  4660  1  0.32980400  0.04275700  0.45705900  1
  C  4661  1  0.33045200  0.01983600  0.45944200  1
  C  4662  1  0.32628800  0.01090900  0.47739300  1
  C  4663  1  0.32174500  0.02534100  0.49225800  1
  C  4664  1  0.32044900  0.04805500  0.48941700  1
  C  4666  1  0.32406600  0.98785200  0.48012200  1
  C  4667  1  0.34274900  0.97447600  0.47813700  1
  C  4668  1  0.34080300  0.95173000  0.47600900  1
  C  4669  1  0.32019300  0.94142800  0.47661800  1
  C  4670  1  0.30176400  0.95465700  0.48040600  1
  C  4671  1  0.30320500  0.97769500  0.48170000  1
  C  4676  1  0.33417300  0.00583400  0.44280000  1
  C  4681  1  0.28267500  0.99062500  0.48319800  1
  C  4685  1  0.61692700  0.05678900  0.91210610  1
  C  4686  1  0.61147100  0.04260000  0.92688210  1
  C  4687  1  0.61100400  0.01964500  0.92473810  1
  C  4688  1  0.61542200  0.01049200  0.90691210  1
  C  4689  1  0.61999500  0.02474600  0.89192800  1
  C  4690  1  0.62115500  0.04750700  0.89454500  1
  C  4692  1  0.61787000  0.98741200  0.90445210  1
  C  4693  1  0.59931600  0.97389400  0.90662010  1
  C  4694  1  0.60147000  0.95120100  0.90898810  1
  C  4695  1  0.62215400  0.94103500  0.90839610  1
  C  4696  1  0.64045200  0.95439900  0.90450010  1
  C  4697  1  0.63881500  0.97740400  0.90299110  1
  C  4702  1  0.60726800  0.00587700  0.94151910  1
  C  4707  1  0.65923500  0.99048100  0.90134210  1
  C  4711  1  0.32504100  0.44256500  0.41209100  1
  C  4712  1  0.33049200  0.45674000  0.42687600  1
  C  4713  1  0.33097900  0.47969800  0.42475300  1
  C  4714  1  0.32657900  0.48887200  0.40693200  1
  C  4715  1  0.32202400  0.47463900  0.39192800  1
  C  4716  1  0.32082300  0.45187800  0.39453700  1
  C  4718  1  0.32413900  0.51195500  0.40448600  1
  C  4719  1  0.34269500  0.52546600  0.40667900  1
  C  4720  1  0.34055900  0.54816300  0.40903400  1
  C  4721  1  0.31987600  0.55832700  0.40846100  1
  C  4722  1  0.30156500  0.54497800  0.40457200  1
  C  4723  1  0.30319700  0.52197300  0.40303500  1
  C  4728  1  0.33473700  0.49344700  0.44154100  1
  C  4733  1  0.28277400  0.50890600  0.40136800  1
