# generated using pymatgen
data_H11C15N4
_symmetry_space_group_name_H-M   'P 1'
_cell_length_a   44.92506782
_cell_length_b   44.92506782
_cell_length_c   44.92506782
_cell_angle_alpha   109.47122063
_cell_angle_beta   109.47122063
_cell_angle_gamma   109.47122063
_symmetry_Int_Tables_number   1
_chemical_formula_structural   H11C15N4
_chemical_formula_sum   'H528 C720 N192'
_cell_volume   69798.21777344
_cell_formula_units_Z   48
loop_
 _symmetry_equiv_pos_site_id
 _symmetry_equiv_pos_as_xyz
  1  'x, y, z'
loop_
 _atom_site_type_symbol
 _atom_site_label
 _atom_site_symmetry_multiplicity
 _atom_site_fract_x
 _atom_site_fract_y
 _atom_site_fract_z
 _atom_site_occupancy
  C  1  1  0.15354650  0.09295300  0.20231550  1
  C  2  1  0.13614300  0.08526450  0.22236250  1
  C  3  1  0.15252500  0.10720450  0.26068050  1
  C  4  1  0.18511050  0.14043050  0.27708600  1
  C  5  1  0.20715750  0.14545150  0.26085400  1
  C  6  1  0.19101950  0.12142850  0.22268500  1
  C  9  1  0.13251650  0.07250700  0.16261650  1
  C  10  1  0.11092300  0.03333300  0.14111600  1
  C  11  1  0.08403450  0.01617650  0.10356600  1
  C  12  1  0.08145000  0.03851700  0.08798300  1
  C  13  1  0.10448250  0.07659400  0.10721650  1
  C  14  1  0.12999350  0.09304400  0.14449350  1
  C  23  1  0.36301200  0.05711700  0.44774100  1
  C  24  1  0.38040750  0.09457050  0.45744300  1
  C  25  1  0.36397000  0.11647000  0.46287000  1
  C  26  1  0.33132550  0.10024300  0.46338050  1
  C  27  1  0.30937150  0.06198800  0.44653950  1
  C  28  1  0.32553200  0.03997000  0.43872300  1
  C  31  1  0.38408200  0.03849100  0.44837300  1
  C  32  1  0.40566800  0.03859700  0.43078700  1
  C  33  1  0.43259050  0.02798500  0.44055050  1
  C  34  1  0.43521100  0.01501700  0.46550000  1
  C  35  1  0.41218650  0.01120650  0.48055600  1
  C  36  1  0.38663100  0.02291400  0.47145300  1
  C  45  1  0.61757750  0.40703050  0.05232900  1
  C  46  1  0.64533000  0.41473900  0.04263100  1
  C  47  1  0.66179150  0.39286500  0.03719950  1
  C  48  1  0.64496800  0.35963400  0.03654700  1
  C  49  1  0.62366500  0.35458000  0.05349900  1
  C  50  1  0.60945750  0.37855400  0.06132750  1
  C  53  1  0.59829700  0.42744650  0.05168150  1
  C  54  1  0.61596100  0.46662400  0.06932800  1
  C  55  1  0.59554250  0.48377800  0.05965250  1
  C  56  1  0.55762900  0.46143800  0.03468900  1
  C  57  1  0.53880300  0.42335300  0.01959700  1
  C  58  1  0.55964100  0.40690300  0.02861300  1
  C  67  1  0.89891700  0.44295750  0.29773250  1
  C  68  1  0.87118050  0.40550500  0.27764750  1
  C  69  1  0.85480350  0.38360800  0.23932550  1
  C  70  1  0.87165300  0.39980350  0.22294550  1
  C  71  1  0.89307500  0.43808100  0.23926700  1
  C  72  1  0.90709700  0.46008400  0.27740700  1
  C  75  1  0.91816200  0.46156550  0.33743250  1
  C  76  1  0.90045850  0.46142800  0.35890250  1
  C  77  1  0.92082950  0.47201950  0.39643300  1
  C  78  1  0.95873400  0.48491950  0.41201450  1
  C  79  1  0.97761900  0.48886250  0.39283550  1
  C  80  1  0.95682950  0.47724050  0.35559300  1
  C  89  1  0.95126250  0.79768950  0.89062800  1
  C  90  1  0.91381400  0.77763950  0.86288350  1
  C  91  1  0.89191150  0.73931450  0.84647300  1
  C  92  1  0.90806250  0.72290900  0.86331950  1
  C  93  1  0.94634050  0.73914650  0.88458000  1
  C  94  1  0.96836800  0.77732100  0.89873300  1
  C  97  1  0.96991650  0.83739100  0.90987550  1
  C  98  1  0.96976100  0.85887300  0.89218800  1
  C  99  1  0.98036400  0.89640400  0.91256600  1
  C  100  1  0.99330250  0.91197950  0.95047600  1
  C  101  1  0.99715700  0.89277100  0.96934300  1
  C  102  1  0.98554500  0.85553250  0.94854050  1
  C  111  1  0.91525150  0.55223450  0.60934100  1
  C  112  1  0.92296600  0.54254400  0.63710000  1
  C  113  1  0.90109900  0.53707250  0.65356550  1
  C  114  1  0.86795600  0.53659750  0.63686050  1
  C  115  1  0.86281550  0.55342150  0.61543400  1
  C  116  1  0.88677700  0.56123650  0.60121550  1
  C  119  1  0.93567350  0.55160400  0.59006550  1
  C  120  1  0.97484450  0.56921650  0.60773200  1
  C  121  1  0.99199050  0.55947300  0.58733150  1
  C  122  1  0.96964750  0.53447900  0.54942450  1
  C  123  1  0.93156850  0.51943150  0.53058200  1
  C  124  1  0.91512100  0.52848200  0.55141300  1
  C  133  1  0.56524400  0.94764200  0.35471000  1
  C  134  1  0.60269450  0.95734400  0.37210750  1
  C  135  1  0.62459100  0.96279450  0.35567050  1
  C  136  1  0.60840250  0.96342450  0.32308300  1
  C  137  1  0.57014400  0.94647200  0.30108300  1
  C  138  1  0.54811800  0.93864550  0.31723750  1
  C  141  1  0.54662550  0.94829900  0.37578550  1
  C  142  1  0.54666600  0.93067150  0.39733450  1
  C  143  1  0.53596350  0.94038100  0.42419350  1
  C  144  1  0.52304100  0.96536700  0.42683600  1
  C  145  1  0.51926150  0.98041950  0.40381000  1
  C  146  1  0.53104800  0.97137600  0.37831800  1
  C  155  1  0.60118450  0.70226600  0.14522250  1
  C  156  1  0.59351250  0.72233850  0.12784800  1
  C  157  1  0.61544350  0.76066000  0.14427050  1
  C  158  1  0.64868950  0.77705800  0.17683550  1
  C  159  1  0.65381300  0.76074450  0.19879650  1
  C  160  1  0.62969950  0.72260450  0.18267300  1
  C  163  1  0.58073050  0.66256750  0.12414900  1
  C  164  1  0.54155600  0.64108900  0.10256900  1
  C  165  1  0.52438800  0.60354500  0.07565600  1
  C  166  1  0.54671150  0.58794650  0.07304200  1
  C  167  1  0.58478150  0.60714550  0.09612100  1
  C  168  1  0.60124350  0.64441250  0.12166800  1
  C  177  1  0.06061250  0.10934200  0.90704350  1
  C  178  1  0.05089800  0.13707950  0.91472850  1
  C  179  1  0.04536050  0.15347500  0.89279950  1
  C  180  1  0.04475100  0.13667500  0.85958800  1
  C  181  1  0.06182250  0.11546650  0.85462300  1
  C  182  1  0.06964200  0.10125050  0.87859150  1
  C  185  1  0.06000900  0.09008000  0.92748100  1
  C  186  1  0.07758250  0.10774800  0.96665250  1
  C  187  1  0.06784750  0.08734450  0.98379900  1
  C  188  1  0.04287450  0.04943500  0.96145850  1
  C  189  1  0.02784350  0.03059450  0.92338300  1
  C  190  1  0.03693750  0.05142050  0.90694100  1
  C  199  1  0.30588850  0.39061350  0.94289000  1
  C  200  1  0.28583250  0.36286650  0.90543400  1
  C  201  1  0.24749650  0.34639300  0.88353050  1
  C  202  1  0.23107350  0.36312650  0.89975700  1
  C  203  1  0.24737300  0.38454450  0.93800950  1
  C  204  1  0.28555150  0.39874150  0.96003100  1
  C  207  1  0.34558750  0.40987350  0.96151300  1
  C  208  1  0.36706750  0.39218200  0.96138250  1
  C  209  1  0.40459200  0.41255550  0.97196250  1
  C  210  1  0.42016000  0.45046050  0.98486750  1
  C  211  1  0.40095850  0.46933600  0.98872750  1
  C  212  1  0.36371400  0.44853050  0.97708950  1
  C  221  1  0.21055050  0.64529700  0.59293950  1
  C  222  1  0.23061300  0.62790300  0.58526600  1
  C  223  1  0.26895100  0.64436150  0.60716050  1
  C  224  1  0.28534750  0.67695150  0.64037600  1
  C  225  1  0.26905450  0.69891750  0.64541700  1
  C  226  1  0.23088450  0.68277150  0.62141100  1
  C  229  1  0.17085350  0.62422000  0.57250750  1
  C  230  1  0.14935450  0.60267150  0.53333100  1
  C  231  1  0.11177800  0.57584450  0.51616950  1
  C  232  1  0.09618400  0.57325850  0.53849950  1
  C  233  1  0.11543400  0.59625900  0.57658300  1
  C  234  1  0.15272750  0.62171150  0.59304200  1
  C  243  1  0.45598250  0.85477550  0.55705800  1
  C  244  1  0.46569850  0.87215900  0.59451150  1
  C  245  1  0.47122800  0.85574900  0.61642500  1
  C  246  1  0.47190450  0.82318250  0.60025300  1
  C  247  1  0.45500300  0.80121750  0.56197850  1
  C  248  1  0.44703550  0.81732200  0.53994150  1
  C  251  1  0.45660750  0.87584850  0.53843400  1
  C  252  1  0.43900200  0.89741800  0.53852200  1
  C  253  1  0.44874100  0.92432400  0.52788300  1
  C  254  1  0.47369150  0.92694750  0.51491300  1
  C  255  1  0.48869750  0.90388050  0.51105400  1
  C  256  1  0.47961400  0.87833750  0.52277550  1
  C  265  1  0.65356750  0.20229400  0.09293050  1
  C  266  1  0.63617500  0.22235300  0.08524500  1
  C  267  1  0.65260750  0.26068000  0.10715250  1
  C  268  1  0.68518100  0.27709150  0.14038950  1
  C  269  1  0.70720900  0.26083850  0.14535150  1
  C  270  1  0.69105200  0.22265100  0.12138000  1
  C  273  1  0.63250800  0.16259550  0.07248650  1
  C  274  1  0.61087700  0.14110600  0.03331700  1
  C  275  1  0.58395250  0.10357400  0.01616850  1
  C  276  1  0.58130250  0.08800850  0.03850900  1
  C  277  1  0.60436100  0.10722700  0.07658700  1
  C  278  1  0.62998800  0.14446350  0.09301750  1
  C  287  1  0.86300000  0.44774100  0.05709500  1
  C  288  1  0.88040250  0.45744150  0.09454800  1
  C  289  1  0.86400050  0.46291450  0.11647900  1
  C  290  1  0.83132450  0.46337450  0.10023600  1
  C  291  1  0.80936900  0.44654900  0.06198300  1
  C  292  1  0.82552550  0.43873650  0.03995900  1
  C  295  1  0.88406000  0.44837100  0.03845600  1
  C  296  1  0.90563100  0.43076800  0.03852800  1
  C  297  1  0.93252400  0.44051300  0.02787500  1
  C  298  1  0.93516350  0.46549150  0.01494400  1
  C  299  1  0.91212150  0.48052600  0.01113150  1
  C  300  1  0.88662250  0.47147700  0.02291050  1
  C  309  1  0.11762200  0.05238300  0.40707300  1
  C  310  1  0.14535900  0.04266350  0.41473850  1
  C  311  1  0.16179000  0.03720900  0.39283500  1
  C  312  1  0.14497200  0.03659900  0.35962700  1
  C  313  1  0.12363350  0.05351850  0.35458700  1
  C  314  1  0.10947300  0.06137900  0.37859600  1
  C  317  1  0.09836000  0.05172900  0.42750700  1
  C  318  1  0.11604300  0.06933700  0.46668400  1
  C  319  1  0.09563550  0.05963300  0.48383950  1
  C  320  1  0.05771700  0.03469000  0.46150400  1
  C  321  1  0.03887500  0.01965150  0.42342850  1
  C  322  1  0.05970000  0.02867800  0.40697200  1
  C  331  1  0.39892050  0.29772400  0.44294950  1
  C  332  1  0.37117150  0.27766300  0.40550150  1
  C  333  1  0.35477100  0.23933800  0.38359300  1
  C  334  1  0.37160900  0.22292700  0.39974400  1
  C  335  1  0.39299750  0.23923350  0.43801600  1
  C  336  1  0.40708600  0.27737950  0.46005850  1
  C  339  1  0.41817350  0.33742350  0.46157800  1
  C  340  1  0.40048100  0.35890550  0.46148550  1
  C  341  1  0.42085250  0.39644250  0.47209600  1
  C  342  1  0.45877050  0.41203000  0.48504850  1
  C  343  1  0.47764100  0.39283000  0.48892500  1
  C  344  1  0.45683900  0.35557100  0.47723400  1
  C  353  1  0.45124950  0.89064100  0.79769250  1
  C  354  1  0.41379750  0.86290000  0.77763750  1
  C  355  1  0.39186950  0.84650600  0.73931350  1
  C  356  1  0.40806050  0.86330800  0.72290250  1
  C  357  1  0.44634200  0.88452100  0.73915100  1
  C  358  1  0.46837450  0.89873650  0.77733600  1
  C  361  1  0.46990250  0.90990250  0.83739000  1
  C  362  1  0.46982350  0.89223750  0.85889800  1
  C  363  1  0.48048000  0.91263600  0.89644600  1
  C  364  1  0.49345400  0.95055400  0.91201800  1
  C  365  1  0.49723800  0.96939100  0.89277500  1
  C  366  1  0.48548200  0.94856100  0.85550300  1
  C  375  1  0.41524900  0.60937050  0.55225350  1
  C  376  1  0.42295700  0.63712400  0.54255500  1
  C  377  1  0.40109600  0.65359800  0.53711600  1
  C  378  1  0.36792950  0.63686050  0.53658800  1
  C  379  1  0.36279450  0.61543800  0.55341650  1
  C  380  1  0.38677450  0.60124250  0.56125500  1
  C  383  1  0.43568700  0.59011200  0.55163300  1
  C  384  1  0.47486150  0.60780400  0.56923150  1
  C  385  1  0.49202400  0.58742800  0.55947700  1
  C  386  1  0.46969600  0.54951100  0.53452500  1
  C  387  1  0.43161300  0.53064550  0.51945450  1
  C  388  1  0.41515800  0.55145550  0.52854750  1
  C  397  1  0.06524700  0.35468750  0.94764950  1
  C  398  1  0.10270350  0.37207800  0.95736750  1
  C  399  1  0.12458200  0.35561650  0.96279550  1
  C  400  1  0.10838550  0.32302400  0.96341750  1
  C  401  1  0.07012500  0.30106150  0.94649450  1
  C  402  1  0.04810500  0.31721200  0.93864100  1
  C  405  1  0.04663250  0.37577100  0.94830150  1
  C  406  1  0.04669650  0.39733350  0.93068600  1
  C  407  1  0.03596850  0.42417450  0.94036900  1
  C  408  1  0.02300100  0.42678950  0.96531850  1
  C  409  1  0.01922200  0.40377000  0.98038000  1
  C  410  1  0.03102000  0.37828400  0.97134800  1
  C  419  1  0.10120550  0.14522150  0.70226700  1
  C  420  1  0.09353600  0.12784050  0.72233850  1
  C  421  1  0.11547100  0.14425300  0.76066400  1
  C  422  1  0.14870900  0.17682400  0.77705900  1
  C  423  1  0.15377250  0.19878700  0.76074750  1
  C  424  1  0.12970600  0.18267700  0.72260300  1
  C  427  1  0.08075800  0.12414050  0.66256850  1
  C  428  1  0.04158400  0.10255250  0.64108950  1
  C  429  1  0.02442450  0.07562400  0.60355550  1
  C  430  1  0.04674900  0.07293250  0.58797950  1
  C  431  1  0.08481850  0.09603600  0.60717050  1
  C  432  1  0.10127200  0.12164350  0.64441750  1
  C  441  1  0.56062200  0.90706500  0.10938200  1
  C  442  1  0.55091650  0.91475500  0.13712550  1
  C  443  1  0.54542400  0.89283850  0.15353250  1
  C  444  1  0.54473100  0.85958850  0.13668450  1
  C  445  1  0.56174850  0.85456750  0.11542500  1
  C  446  1  0.56962400  0.87859200  0.10127400  1
  C  449  1  0.56002550  0.92751450  0.09013300  1
  C  450  1  0.57756850  0.96668700  0.10782050  1
  C  451  1  0.56779300  0.98384400  0.08744700  1
  C  452  1  0.54285000  0.96150500  0.04952700  1
  C  453  1  0.52781650  0.92342550  0.03066400  1
  C  454  1  0.53698250  0.90698900  0.05147050  1
  C  463  1  0.80589800  0.94289000  0.39065600  1
  C  464  1  0.78585850  0.90544100  0.36289750  1
  C  465  1  0.74752800  0.88350200  0.34643600  1
  C  466  1  0.73108900  0.89972850  0.36314450  1
  C  467  1  0.74737100  0.93797800  0.38456800  1
  C  468  1  0.78554950  0.96001400  0.39878150  1
  C  471  1  0.84559450  0.96154200  0.40992650  1
  C  472  1  0.86709950  0.96151450  0.39225800  1
  C  473  1  0.90465750  0.97220850  0.41266000  1
  C  474  1  0.92024700  0.98519400  0.45058100  1
  C  475  1  0.90099850  0.98893600  0.46941650  1
  C  476  1  0.86369900  0.97707750  0.44857850  1
  C  485  1  0.71054200  0.59294450  0.64529550  1
  C  486  1  0.73059450  0.58524650  0.62789700  1
  C  487  1  0.76893000  0.60713300  0.64433500  1
  C  488  1  0.78533150  0.64035150  0.67692400  1
  C  489  1  0.76907300  0.64539900  0.69892400  1
  C  490  1  0.73089100  0.62142100  0.68277000  1
  C  493  1  0.67084750  0.57252600  0.62422450  1
  C  494  1  0.64933750  0.53335100  0.60268450  1
  C  495  1  0.61177300  0.51619550  0.57583450  1
  C  496  1  0.59619900  0.53853800  0.57321500  1
  C  497  1  0.61544900  0.57661850  0.59622650  1
  C  498  1  0.65273550  0.59307050  0.62169500  1
  C  507  1  0.95597600  0.55703300  0.85477700  1
  C  508  1  0.96567300  0.59447900  0.87215200  1
  C  509  1  0.97117350  0.61637800  0.85572750  1
  C  510  1  0.97185450  0.60021200  0.82316250  1
  C  511  1  0.95501800  0.56193700  0.80120100  1
  C  512  1  0.94704050  0.53992200  0.81732650  1
  C  515  1  0.95660200  0.53840950  0.87585450  1
  C  516  1  0.93901200  0.53851650  0.89743850  1
  C  517  1  0.94876450  0.52788800  0.92435250  1
  C  518  1  0.97375700  0.51497500  0.92702400  1
  C  519  1  0.98872450  0.51106800  0.90392450  1
  C  520  1  0.97960150  0.52274150  0.87834300  1
  C  1057  1  0.08159550  0.10094200  0.02197850  1
  C  1058  1  0.05676600  0.09355300  0.03500300  1
  C  1059  1  0.06595850  0.09040250  0.06685500  1
  C  1060  1  0.10076250  0.09543650  0.08748600  1
  C  1061  1  0.12670600  0.10638700  0.07644900  1
  C  1062  1  0.11725400  0.10882750  0.04428050  1
  C  1064  1  0.00562900  0.07448900  0.05679800  1
  C  1065  1  0.99643200  0.07804400  0.02549800  1
  C  1071  1  0.95550050  0.10225850  0.02033400  1
  C  1076  1  0.43489150  0.94867200  0.52764150  1
  C  1077  1  0.45980950  0.98651850  0.54503900  1
  C  1078  1  0.45065700  0.00918800  0.53268100  1
  C  1079  1  0.41579300  0.99502350  0.50296950  1
  C  1080  1  0.38972600  0.95816700  0.48820700  1
  C  1081  1  0.39921600  0.93542700  0.50001500  1
  C  1083  1  0.51104750  0.05940500  0.57703050  1
  C  1084  1  0.52019700  0.03730200  0.58981200  1
  C  1090  1  0.56120600  0.07312850  0.65494450  1
  C  1095  1  0.42918850  0.39896500  0.97217150  1
  C  1096  1  0.44971100  0.40641850  0.95484450  1
  C  1097  1  0.48471550  0.40957250  0.96728500  1
  C  1098  1  0.50023300  0.40449800  0.99706500  1
  C  1099  1  0.47808350  0.39342350  0.01186200  1
  C  1100  1  0.44345200  0.39092850  0.99986350  1
  C  1102  1  0.49074250  0.42554550  0.92294500  1
  C  1103  1  0.45588150  0.42197450  0.91009800  1
  C  1109  1  0.42667100  0.39781850  0.84496050  1
  C  1114  1  0.08719800  0.55143000  0.47797700  1
  C  1115  1  0.06686350  0.51359250  0.46511100  1
  C  1116  1  0.03182850  0.49086750  0.43330500  1
  C  1117  1  0.01621300  0.50499350  0.41262350  1
  C  1118  1  0.03816300  0.54189300  0.42342300  1
  C  1119  1  0.07278400  0.56468350  0.45557250  1
  C  1121  1  0.02608700  0.44071000  0.44353800  1
  C  1122  1  0.06098550  0.46286850  0.47478000  1
  C  1128  1  0.09028050  0.42701700  0.47989950  1
  C  1133  1  0.05967500  0.97798150  0.07896450  1
  C  1134  1  0.02183500  0.96507250  0.05851350  1
  C  1135  1  0.99916150  0.93324650  0.02349100  1
  C  1136  1  0.01333100  0.91255700  0.00793800  1
  C  1137  1  0.05018950  0.92336900  0.03003950  1
  C  1138  1  0.07292300  0.95550400  0.06467100  1
  C  1140  1  0.94895300  0.94343700  0.01761100  1
  C  1141  1  0.97105950  0.97469300  0.05249650  1
  C  1147  1  0.93514800  0.97984200  0.08171000  1
  C  1152  1  0.90721150  0.47215150  0.42100100  1
  C  1153  1  0.91461600  0.45472800  0.44143000  1
  C  1154  1  0.91776800  0.46708150  0.47643350  1
  C  1155  1  0.91271600  0.49684200  0.49201400  1
  C  1156  1  0.90173700  0.51180700  0.47000600  1
  C  1157  1  0.89929550  0.49990400  0.43539550  1
  C  1159  1  0.93375100  0.42271850  0.48234150  1
  C  1160  1  0.93018900  0.40995200  0.44748300  1
  C  1166  1  0.90602150  0.34481850  0.41805600  1
  C  1171  1  0.45690150  0.02769450  0.42666300  1
  C  1172  1  0.49475550  0.04509650  0.45154100  1
  C  1173  1  0.51739700  0.03272100  0.44234400  1
  C  1174  1  0.50325700  0.00298150  0.40751750  1
  C  1175  1  0.46629300  0.98808050  0.38159350  1
  C  1176  1  0.44359350  0.00004000  0.39098450  1
  C  1178  1  0.56767300  0.07708750  0.50269350  1
  C  1179  1  0.54559950  0.08989250  0.51188700  1
  C  1185  1  0.58148900  0.15503100  0.55287400  1
  C  1190  1  0.60914500  0.52197000  0.07344100  1
  C  1191  1  0.60173100  0.53490050  0.04852450  1
  C  1192  1  0.59856250  0.56674000  0.05765950  1
  C  1193  1  0.60359650  0.58737000  0.09246450  1
  C  1194  1  0.61464050  0.57647000  0.11849950  1
  C  1195  1  0.61712900  0.54432900  0.10911900  1
  C  1197  1  0.58265750  0.55660250  0.99730900  1
  C  1198  1  0.58626750  0.52533450  0.98817800  1
  C  1204  1  0.61044550  0.52022750  0.94720800  1
  C  1209  1  0.98051800  0.92098700  0.89896700  1
  C  1210  1  0.96310600  0.94142450  0.90638350  1
  C  1211  1  0.97548450  0.97644250  0.90956800  1
  C  1212  1  0.00525600  0.99202400  0.90453100  1
  C  1213  1  0.02020650  0.97000800  0.89353350  1
  C  1214  1  0.00828250  0.93538700  0.89106650  1
  C  1216  1  0.93110900  0.98234450  0.92552950  1
  C  1217  1  0.91831250  0.94747000  0.92192950  1
  C  1223  1  0.85316750  0.91816850  0.89773300  1
  C  1228  1  0.48619150  0.57896200  0.05129150  1
  C  1229  1  0.47328250  0.55852200  0.01345050  1
  C  1230  1  0.44146600  0.52349000  0.99076700  1
  C  1231  1  0.42075100  0.50793250  0.00491550  1
  C  1232  1  0.43150900  0.53002700  0.04176200  1
  C  1233  1  0.46373900  0.56457550  0.06451550  1
  C  1235  1  0.45167550  0.51763750  0.94057300  1
  C  1236  1  0.48292700  0.55252500  0.96269000  1
  C  1242  1  0.48814950  0.58185550  0.92689100  1
  C  1247  1  0.03017350  0.57326350  0.60092000  1
  C  1248  1  0.04323450  0.54847400  0.59348450  1
  C  1249  1  0.07509850  0.55775000  0.59035550  1
  C  1250  1  0.09570450  0.59259800  0.59542650  1
  C  1251  1  0.08462850  0.61847500  0.60646950  1
  C  1252  1  0.05248000  0.60898200  0.60894400  1
  C  1254  1  0.06513600  0.49743550  0.57440950  1
  C  1255  1  0.03383200  0.48817000  0.57795600  1
  C  1261  1  0.02874150  0.44718600  0.60210950  1
  C  1266  1  0.53580750  0.92662250  0.44862200  1
  C  1267  1  0.55329200  0.95151650  0.48646750  1
  C  1268  1  0.54095800  0.94236600  0.50915000  1
  C  1269  1  0.51119050  0.90755350  0.49495600  1
  C  1270  1  0.49621050  0.88153300  0.45801950  1
  C  1271  1  0.50807900  0.89095550  0.43527850  1
  C  1273  1  0.58538250  0.00271050  0.55938500  1
  C  1274  1  0.59812950  0.01186900  0.53726150  1
  C  1280  1  0.66327650  0.05280550  0.57304900  1
  C  1285  1  0.58164200  0.02204100  0.10103500  1
  C  1286  1  0.55672250  0.03496450  0.09349200  1
  C  1287  1  0.56588300  0.06678100  0.09027800  1
  C  1288  1  0.60074100  0.08745250  0.09540550  1
  C  1289  1  0.62677950  0.07663350  0.10670200  1
  C  1290  1  0.61736950  0.04450550  0.10921400  1
  C  1292  1  0.50549400  0.05661950  0.07421750  1
  C  1293  1  0.49633700  0.02537700  0.07786800  1
  C  1299  1  0.45529600  0.02028500  0.10195800  1
  C  1304  1  0.93501650  0.52776100  0.94878850  1
  C  1305  1  0.95985000  0.54520150  0.98664250  1
  C  1306  1  0.95065700  0.53286250  0.00930550  1
  C  1307  1  0.91585000  0.50310150  0.99513550  1
  C  1308  1  0.88990200  0.48811450  0.95815750  1
  C  1309  1  0.89935500  0.50000250  0.93543950  1
  C  1311  1  0.01100000  0.57724850  0.05956650  1
  C  1312  1  0.02019600  0.59000100  0.03746500  1
  C  1318  1  0.06116100  0.65513750  0.07317850  1
  C  1323  1  0.92925450  0.97248450  0.39906100  1
  C  1324  1  0.94967550  0.95505200  0.40651850  1
  C  1325  1  0.98468300  0.96738800  0.40967300  1
  C  1326  1  0.00030500  0.99712350  0.40458850  1
  C  1327  1  0.97827450  0.01206350  0.39359600  1
  C  1328  1  0.94362450  0.00014050  0.39104900  1
  C  1330  1  0.99054100  0.92299350  0.42563550  1
  C  1331  1  0.95567250  0.91022750  0.42204700  1
  C  1337  1  0.92639450  0.84509000  0.39790850  1
  C  1342  1  0.58718000  0.47800100  0.55144100  1
  C  1343  1  0.56683400  0.46510100  0.51359700  1
  C  1344  1  0.53182400  0.43326250  0.49088150  1
  C  1345  1  0.51623150  0.41260650  0.50503700  1
  C  1346  1  0.53818750  0.42345950  0.54195200  1
  C  1347  1  0.57281750  0.45559700  0.56472350  1
  C  1349  1  0.52604800  0.44345100  0.44069500  1
  C  1350  1  0.56092700  0.47471650  0.46283950  1
  C  1356  1  0.59025850  0.47989800  0.42703250  1
  C  1361  1  0.55953200  0.07898600  0.97798600  1
  C  1362  1  0.52167650  0.05855700  0.96494950  1
  C  1363  1  0.49903550  0.02354700  0.93310650  1
  C  1364  1  0.51322900  0.00796300  0.91249600  1
  C  1365  1  0.55020800  0.02996550  0.92353950  1
  C  1366  1  0.57290450  0.06458100  0.95569950  1
  C  1368  1  0.44874300  0.01766650  0.94313450  1
  C  1369  1  0.47082550  0.05253000  0.97442150  1
  C  1375  1  0.43502500  0.08188050  0.97953350  1
  C  1380  1  0.40724750  0.42103550  0.47234800  1
  C  1381  1  0.41476500  0.44149050  0.45495650  1
  C  1382  1  0.41796500  0.47651650  0.46732050  1
  C  1383  1  0.41280500  0.49205200  0.49703100  1
  C  1384  1  0.40150100  0.46994800  0.51178500  1
  C  1385  1  0.39918800  0.43540200  0.49997000  1
  C  1387  1  0.43401350  0.48240700  0.42298250  1
  C  1388  1  0.43038800  0.44752500  0.41019500  1
  C  1394  1  0.40626600  0.41821000  0.34506200  1
  C  1399  1  0.95693100  0.42673700  0.02769400  1
  C  1400  1  0.99477850  0.45154200  0.04504850  1
  C  1401  1  0.01737500  0.44227850  0.03264850  1
  C  1402  1  0.00314750  0.40742950  0.00288000  1
  C  1403  1  0.96620350  0.38153650  0.98805700  1
  C  1404  1  0.94353800  0.39101800  0.00001600  1
  C  1406  1  0.06770500  0.50260800  0.07700500  1
  C  1407  1  0.04565800  0.51186100  0.08980900  1
  C  1413  1  0.08154400  0.55286450  0.15494450  1
  C  1418  1  0.10924700  0.07338400  0.52202800  1
  C  1419  1  0.10178000  0.04843900  0.53491900  1
  C  1420  1  0.09855950  0.05754700  0.56673050  1
  C  1421  1  0.10363250  0.09236250  0.58739400  1
  C  1422  1  0.11477150  0.11843950  0.57656600  1
  C  1423  1  0.11724000  0.10905550  0.54441250  1
  C  1425  1  0.08255600  0.99716000  0.55652200  1
  C  1426  1  0.08618750  0.98804550  0.52526600  1
  C  1432  1  0.11034950  0.94706600  0.52008950  1
  C  1437  1  0.48073850  0.89904750  0.92105300  1
  C  1438  1  0.46333500  0.90656400  0.94149500  1
  C  1439  1  0.47567500  0.90974200  0.97651100  1
  C  1440  1  0.50540500  0.90461700  0.99206800  1
  C  1441  1  0.52018700  0.89336700  0.96998000  1
  C  1442  1  0.50829350  0.89088100  0.93535250  1
  C  1444  1  0.43131000  0.92576000  0.98237000  1
  C  1445  1  0.41854500  0.92215100  0.94749400  1
  C  1451  1  0.35343983  0.89807533  0.91823850  1
  C  1456  1  0.98623950  0.05121100  0.57898350  1
  C  1457  1  0.97319000  0.01335150  0.55854950  1
  C  1458  1  0.94132850  0.99071250  0.52355200  1
  C  1459  1  0.92071300  0.00491150  0.50798350  1
  C  1460  1  0.93178200  0.04189700  0.52998800  1
  C  1461  1  0.96395300  0.06459000  0.56459400  1
  C  1463  1  0.95136100  0.94041750  0.51763250  1
  C  1464  1  0.98266400  0.96249600  0.55248500  1
  C  1470  1  0.98788300  0.92676450  0.58189150  1
  C  1475  1  0.53022400  0.60102600  0.57337300  1
  C  1476  1  0.54320800  0.59356150  0.54850050  1
  C  1477  1  0.57504900  0.59038750  0.55769950  1
  C  1478  1  0.59573550  0.59546950  0.59252400  1
  C  1479  1  0.58467900  0.60647050  0.61844050  1
  C  1480  1  0.55258650  0.60903500  0.60904750  1
  C  1482  1  0.56498700  0.57442700  0.49735600  1
  C  1483  1  0.53371850  0.57803150  0.48815900  1
  C  1489  1  0.52863250  0.60219150  0.44717900  1
  C  1494  1  0.03583050  0.44861550  0.92662300  1
  C  1495  1  0.05330750  0.48645650  0.95153700  1
  C  1496  1  0.04098400  0.50914900  0.94240300  1
  C  1497  1  0.01121200  0.49496450  0.90759450  1
  C  1498  1  0.99624800  0.45803850  0.88155650  1
  C  1499  1  0.00813400  0.43528800  0.89094000  1
  C  1501  1  0.08538900  0.55935550  0.00276850  1
  C  1502  1  0.09814700  0.53722750  0.01189950  1
  C  1508  1  0.16328700  0.57310050  0.05289750  1
  C  1969  1  0.14141500  0.09559700  0.28390800  1
  C  1970  1  0.10525600  0.07171400  0.27428000  1
  C  1971  1  0.09801400  0.05838500  0.29749500  1
  C  1972  1  0.12649800  0.06954900  0.33185700  1
  C  1973  1  0.16193950  0.09500950  0.34227400  1
  C  1974  1  0.16912550  0.10627000  0.31867550  1
  C  1976  1  0.03445950  0.02346800  0.25366350  1
  C  1977  1  0.04100500  0.03734600  0.23120900  1
  C  1983  1  0.98879900  0.04260850  0.20025650  1
  C  1988  1  0.37511200  0.15083000  0.46241200  1
  C  1989  1  0.41127950  0.17733150  0.47467000  1
  C  1990  1  0.41854700  0.20775550  0.46852950  1
  C  1991  1  0.39005700  0.21358600  0.45112100  1
  C  1992  1  0.35462550  0.18869050  0.44127800  1
  C  1993  1  0.34742250  0.15790750  0.44535700  1
  C  1995  1  0.48209200  0.22744900  0.49718300  1
  C  1996  1  0.47552850  0.19848300  0.50456750  1
  C  2002  1  0.52774350  0.21976250  0.56204100  1
  C  2007  1  0.69662100  0.40448350  0.03768450  1
  C  2008  1  0.71085950  0.42834600  0.02538250  1
  C  2009  1  0.74740550  0.44167850  0.03147300  1
  C  2010  1  0.77060400  0.43052200  0.04880600  1
  C  2011  1  0.75556250  0.40505150  0.05877800  1
  C  2012  1  0.72071200  0.39380500  0.05471700  1
  C  2014  1  0.73848750  0.47657950  0.00281900  1
  C  2015  1  0.70215100  0.46269500  0.99547800  1
  C  2021  1  0.66593900  0.45738900  0.93798300  1
  C  2026  1  0.81995900  0.34928400  0.21607900  1
  C  2027  1  0.80570650  0.32271800  0.22567050  1
  C  2028  1  0.76916200  0.29226300  0.20244100  1
  C  2029  1  0.74596550  0.28643000  0.16810350  1
  C  2030  1  0.76099300  0.31150600  0.15773000  1
  C  2031  1  0.79586050  0.34227950  0.18134100  1
  C  2033  1  0.77807550  0.27246400  0.24621250  1
  C  2034  1  0.81440600  0.30146450  0.26868450  1
  C  2040  1  0.85061700  0.28017800  0.29958400  1
  C  2045  1  0.85757050  0.71609250  0.81164300  1
  C  2046  1  0.83101050  0.72570400  0.79742450  1
  C  2047  1  0.80054000  0.70248950  0.76088650  1
  C  2048  1  0.79469000  0.66814850  0.73766850  1
  C  2049  1  0.81968800  0.65770800  0.75271200  1
  C  2050  1  0.85048550  0.68130800  0.78756050  1
  C  2052  1  0.78079950  0.74630500  0.76983250  1
  C  2053  1  0.80981050  0.76876050  0.80615900  1
  C  2059  1  0.78858250  0.79971900  0.84239950  1
  C  2064  1  0.91274250  0.53759550  0.68841600  1
  C  2065  1  0.93664200  0.52532350  0.70264650  1
  C  2066  1  0.95004250  0.53144800  0.73920450  1
  C  2067  1  0.93894700  0.54882500  0.76244400  1
  C  2068  1  0.91339800  0.55871800  0.74741300  1
  C  2069  1  0.90207350  0.55460700  0.71253450  1
  C  2071  1  0.98492750  0.50278900  0.73022850  1
  C  2072  1  0.97098650  0.49542200  0.69388250  1
  C  2078  1  0.96569450  0.43793650  0.65766500  1
  C  2083  1  0.65891300  0.96226950  0.36679150  1
  C  2084  1  0.68546300  0.97458600  0.40295600  1
  C  2085  1  0.71591550  0.96849050  0.41019800  1
  C  2086  1  0.72177450  0.95114050  0.38170700  1
  C  2087  1  0.69673500  0.94113850  0.34626250  1
  C  2088  1  0.66598150  0.94526250  0.33908100  1
  C  2090  1  0.73567000  0.99717500  0.47375700  1
  C  2091  1  0.70667500  0.00451450  0.46721450  1
  C  2097  1  0.72794400  0.06199750  0.51940650  1
  C  2102  1  0.60380700  0.78389250  0.13320650  1
  C  2103  1  0.58000300  0.77430650  0.09703650  1
  C  2104  1  0.56666600  0.79751550  0.08979650  1
  C  2105  1  0.57774600  0.83182000  0.11830600  1
  C  2106  1  0.60319050  0.84223950  0.15375300  1
  C  2107  1  0.61446200  0.81864100  0.16093000  1
  C  2109  1  0.53187450  0.75375950  0.02622300  1
  C  2110  1  0.54576700  0.73131400  0.03276700  1
  C  2116  1  0.55113950  0.70046050  0.98060900  1
  C  2121  1  0.04584950  0.18830600  0.90440750  1
  C  2122  1  0.03356150  0.20255100  0.92828350  1
  C  2123  1  0.03964000  0.23909250  0.94161350  1
  C  2124  1  0.05696350  0.26230100  0.93045850  1
  C  2125  1  0.06695350  0.24726700  0.90500250  1
  C  2126  1  0.06288900  0.21240950  0.89374350  1
  C  2128  1  0.01099500  0.23016450  0.97652050  1
  C  2129  1  0.00366850  0.19383350  0.96264100  1
  C  2135  1  0.94619350  0.15761050  0.95736100  1
  C  2140  1  0.22427900  0.31158000  0.84916300  1
  C  2141  1  0.23395300  0.29734400  0.82266500  1
  C  2142  1  0.21079650  0.26078350  0.79223400  1
  C  2143  1  0.17647400  0.23754250  0.78639450  1
  C  2144  1  0.16593100  0.25258600  0.81128500  1
  C  2145  1  0.18951000  0.28744450  0.84207650  1
  C  2147  1  0.25465750  0.26975300  0.77255250  1
  C  2148  1  0.27705950  0.30610250  0.80152600  1
  C  2154  1  0.30801750  0.34231100  0.78027050  1
  C  2159  1  0.29216350  0.63322300  0.59554850  1
  C  2160  1  0.28254000  0.59705450  0.57169550  1
  C  2161  1  0.30573200  0.58980500  0.55833400  1
  C  2162  1  0.34004650  0.61830950  0.56942500  1
  C  2163  1  0.35052000  0.65374450  0.59494850  1
  C  2164  1  0.32693250  0.66093250  0.60622400  1
  C  2166  1  0.26193050  0.52624800  0.52348350  1
  C  2167  1  0.23949750  0.53279750  0.53739400  1
  C  2173  1  0.20863250  0.48062250  0.54273700  1
  C  2178  1  0.47068100  0.86682050  0.65073150  1
  C  2179  1  0.48298800  0.90297700  0.67729500  1
  C  2180  1  0.47688300  0.91019750  0.70774050  1
  C  2181  1  0.45950550  0.88168700  0.71356050  1
  C  2182  1  0.44945950  0.84624050  0.68848700  1
  C  2183  1  0.45356900  0.83908300  0.65772200  1
  C  2185  1  0.50560300  0.97376800  0.72754700  1
  C  2186  1  0.51294700  0.96724350  0.69855450  1
  C  2192  1  0.57045300  0.01943250  0.71985950  1
  C  2197  1  0.64148350  0.28390200  0.09554350  1
  C  2198  1  0.60530950  0.27429100  0.07172250  1
  C  2199  1  0.59804750  0.29749800  0.05838950  1
  C  2200  1  0.62654100  0.33182350  0.06948650  1
  C  2201  1  0.66198050  0.34227900  0.09497950  1
  C  2202  1  0.66918100  0.31868400  0.10623300  1
  C  2204  1  0.53449000  0.25369050  0.02354750  1
  C  2205  1  0.54105250  0.23124300  0.03742750  1
  C  2211  1  0.48887550  0.20030300  0.04273450  1
  C  2216  1  0.87512450  0.46240950  0.15081600  1
  C  2217  1  0.91130000  0.47468950  0.17732050  1
  C  2218  1  0.91858100  0.46857300  0.20776100  1
  C  2219  1  0.89011000  0.45119850  0.21362750  1
  C  2220  1  0.85466800  0.44130200  0.18870400  1
  C  2221  1  0.84744750  0.44540250  0.15792900  1
  C  2223  1  0.98212250  0.49723050  0.22743700  1
  C  2224  1  0.97554350  0.50458800  0.19845250  1
  C  2230  1  0.02773800  0.56206900  0.21970900  1
  C  2235  1  0.19662700  0.03771050  0.40446250  1
  C  2236  1  0.21085450  0.02538500  0.42830750  1
  C  2237  1  0.24739800  0.03147000  0.44163800  1
  C  2238  1  0.27060700  0.04881100  0.43049600  1
  C  2239  1  0.25557450  0.05881450  0.40505400  1
  C  2240  1  0.22070250  0.05470400  0.39375250  1
  C  2242  1  0.23846300  0.00279150  0.47651850  1
  C  2243  1  0.20213100  0.99546100  0.46264000  1
  C  2249  1  0.16591150  0.93798600  0.45735950  1
  C  2254  1  0.31989400  0.21611850  0.34930550  1
  C  2255  1  0.30568100  0.22570500  0.32272200  1
  C  2256  1  0.26913000  0.20250100  0.29227600  1
  C  2257  1  0.24590100  0.16820050  0.28648950  1
  C  2258  1  0.26092000  0.15778300  0.31152100  1
  C  2259  1  0.29579200  0.18137850  0.34229150  1
  C  2261  1  0.27810600  0.24625050  0.27245350  1
  C  2262  1  0.31444700  0.26869100  0.30144000  1
  C  2268  1  0.35067600  0.29953150  0.28012850  1
  C  2273  1  0.35752850  0.81167250  0.71608700  1
  C  2274  1  0.33099450  0.79742700  0.72571750  1
  C  2275  1  0.30053500  0.76088450  0.70250650  1
  C  2276  1  0.29465500  0.73767600  0.66814500  1
  C  2277  1  0.31968250  0.75271100  0.65772750  1
  C  2278  1  0.35047050  0.78756850  0.68132400  1
  C  2280  1  0.28081050  0.76981150  0.74633500  1
  C  2281  1  0.30981250  0.80614200  0.76878650  1
  C  2287  1  0.28856050  0.84236400  0.79973150  1
  C  2292  1  0.41270400  0.68841750  0.53757750  1
  C  2293  1  0.43661950  0.70265800  0.52532350  1
  C  2294  1  0.45003050  0.73922250  0.53146500  1
  C  2295  1  0.43895000  0.76246250  0.54886950  1
  C  2296  1  0.41336150  0.74741600  0.55871350  1
  C  2297  1  0.40207550  0.71255450  0.55463600  1
  C  2299  1  0.48492200  0.73025650  0.50281250  1
  C  2300  1  0.47097050  0.69390450  0.49542800  1
  C  2306  1  0.46571150  0.65770800  0.43795650  1
  C  2311  1  0.15893700  0.36675500  0.96233000  1
  C  2312  1  0.18548400  0.40292400  0.97464800  1
  C  2313  1  0.21593600  0.41017350  0.96855050  1
  C  2314  1  0.22177050  0.38167800  0.95116750  1
  C  2315  1  0.19678700  0.34623950  0.94123050  1
  C  2316  1  0.16600150  0.33904850  0.94530100  1
  C  2318  1  0.23568100  0.47372950  0.99723850  1
  C  2319  1  0.20669100  0.46718100  0.00458600  1
  C  2325  1  0.22797700  0.51936100  0.06209000  1
  C  2330  1  0.10385400  0.13317800  0.78389900  1
  C  2331  1  0.08000950  0.09702050  0.77430800  1
  C  2332  1  0.06668750  0.08979600  0.79753450  1
  C  2333  1  0.07782100  0.11830500  0.83186700  1
  C  2334  1  0.10321500  0.15375450  0.84223650  1
  C  2335  1  0.11447600  0.16091250  0.81862650  1
  C  2337  1  0.03184450  0.02622550  0.75377100  1
  C  2338  1  0.04570950  0.03275300  0.73130150  1
  C  2344  1  0.05103450  0.98057150  0.70041900  1
  C  2349  1  0.54591450  0.90444550  0.18836300  1
  C  2350  1  0.53357350  0.92827550  0.20258200  1
  C  2351  1  0.53964350  0.94159900  0.23912150  1
  C  2352  1  0.55701250  0.93047650  0.26233800  1
  C  2353  1  0.56696800  0.90499250  0.24729450  1
  C  2354  1  0.56291600  0.89374500  0.21244500  1
  C  2356  1  0.51095350  0.97646600  0.23017650  1
  C  2357  1  0.50363850  0.96259550  0.19385000  1
  C  2363  1  0.44616900  0.95731800  0.15761000  1
  C  2368  1  0.72431950  0.84917700  0.31158250  1
  C  2369  1  0.73399000  0.82267750  0.29735050  1
  C  2370  1  0.71083150  0.79224600  0.26078750  1
  C  2371  1  0.67649750  0.78638700  0.23755050  1
  C  2372  1  0.66598100  0.81131000  0.25258500  1
  C  2373  1  0.68953400  0.84207450  0.28746550  1
  C  2375  1  0.75469200  0.77256100  0.26976100  1
  C  2376  1  0.77709600  0.80153700  0.30610800  1
  C  2382  1  0.80800750  0.78025350  0.34231600  1
  C  2387  1  0.79213050  0.59548600  0.63321350  1
  C  2388  1  0.78251700  0.57164050  0.59704750  1
  C  2389  1  0.80573050  0.55830700  0.58980550  1
  C  2390  1  0.84008000  0.56944800  0.61829400  1
  C  2391  1  0.85048300  0.59488850  0.65373850  1
  C  2392  1  0.82691150  0.60619000  0.66092250  1
  C  2394  1  0.76192350  0.52343050  0.52624700  1
  C  2395  1  0.73946950  0.53731000  0.53278950  1
  C  2401  1  0.70854600  0.54260550  0.48060150  1
  C  2406  1  0.97060250  0.65067550  0.86679400  1
  C  2407  1  0.98297200  0.67726200  0.90296400  1
  C  2408  1  0.97687900  0.70771500  0.91020600  1
  C  2409  1  0.95945200  0.71351150  0.88169650  1
  C  2410  1  0.94944450  0.68848050  0.84624800  1
  C  2411  1  0.95353400  0.65770300  0.83907200  1
  C  2413  1  0.00566100  0.72753100  0.97377700  1
  C  2414  1  0.01300600  0.69853900  0.96723300  1
  C  2420  1  0.07053900  0.71984150  0.01938750  1
  H  7  1  0.11119850  0.06241200  0.20862050  1
  H  8  1  0.19663650  0.15855900  0.30416750  1
  H  15  1  0.06373450  0.02626400  0.06056150  1
  H  16  1  0.14508900  0.12093400  0.15920900  1
  H  19  1  0.20209650  0.10698650  0.18106200  1
  H  20  1  0.23726050  0.14281600  0.21971050  1
  H  21  1  0.10075750  0.98593200  0.14246150  1
  H  22  1  0.13499600  0.02288200  0.18085000  1
  H  29  1  0.40536800  0.10578050  0.45956950  1
  H  30  1  0.31982100  0.11580800  0.47006700  1
  H  37  1  0.45291800  0.00529500  0.47093300  1
  H  38  1  0.37145200  0.02243700  0.48415900  1
  H  41  1  0.31452550  0.98728650  0.41331000  1
  H  42  1  0.27933350  0.99073900  0.41392850  1
  H  43  1  0.41578850  0.05006100  0.39351050  1
  H  44  1  0.38152950  0.05417100  0.39620550  1
  H  51  1  0.65445050  0.43760250  0.04055900  1
  H  52  1  0.65392700  0.34151900  0.02987000  1
  H  59  1  0.54246600  0.47370700  0.02926700  1
  H  60  1  0.54647750  0.37901250  0.01585400  1
  H  63  1  0.58212750  0.39289200  0.08669650  1
  H  64  1  0.58497200  0.35708450  0.08606650  1
  H  65  1  0.66461600  0.51403300  0.10676200  1
  H  66  1  0.66607550  0.47706050  0.10393700  1
  H  73  1  0.86201700  0.39428850  0.29135550  1
  H  74  1  0.86268900  0.38426350  0.19585650  1
  H  81  1  0.97387950  0.49460700  0.43943550  1
  H  82  1  0.97003250  0.47770950  0.34090800  1
  H  85  1  0.93435550  0.51279150  0.31907400  1
  H  86  1  0.93170350  0.50932250  0.28048100  1
  H  87  1  0.85174600  0.45000950  0.35758050  1
  H  88  1  0.85032350  0.44590800  0.31920850  1
  H  95  1  0.90260600  0.79137450  0.85376850  1
  H  96  1  0.89250650  0.69582500  0.85435650  1
  H  103  1  0.00296150  0.93939200  0.96562150  1
  H  104  1  0.98600150  0.84083500  0.96173050  1
  H  107  1  0.02106550  0.81894850  0.92592100  1
  H  108  1  0.01758450  0.78030000  0.92309950  1
  H  109  1  0.95824900  0.85753700  0.84344600  1
  H  110  1  0.95416900  0.81917100  0.84201900  1
  H  117  1  0.94580950  0.54043050  0.64617900  1
  H  118  1  0.84977550  0.52991200  0.64574950  1
  H  125  1  0.98189900  0.52899000  0.53426100  1
  H  126  1  0.88723200  0.51572900  0.53825100  1
  H  129  1  0.90114650  0.58662900  0.57391550  1
  H  130  1  0.86534500  0.58601000  0.57676900  1
  H  131  1  0.02225450  0.60650600  0.65645650  1
  H  132  1  0.98530550  0.60377700  0.65790450  1
  H  139  1  0.61389150  0.95941250  0.39704200  1
  H  140  1  0.62402650  0.97009350  0.31163300  1
  H  147  1  0.51333500  0.97081850  0.44455350  1
  H  148  1  0.53063100  0.98412450  0.36317750  1
  H  151  1  0.49542200  0.91328350  0.30622150  1
  H  152  1  0.49888300  0.91391650  0.27103850  1
  H  153  1  0.55789650  0.89324450  0.40731800  1
  H  154  1  0.56213800  0.89603800  0.37314200  1
  H  161  1  0.57063050  0.70862450  0.10293000  1
  H  162  1  0.66680250  0.80414850  0.18837600  1
  H  169  1  0.53443950  0.56051300  0.05536150  1
  H  170  1  0.62913200  0.65910600  0.13679300  1
  H  173  1  0.61531250  0.68094950  0.19373500  1
  H  174  1  0.65125450  0.71954800  0.22884450  1
  H  175  1  0.49416850  0.64241850  0.09248300  1
  H  176  1  0.53112400  0.68080000  0.12672800  1
  H  183  1  0.04878800  0.14617950  0.93757250  1
  H  184  1  0.03817450  0.14563550  0.84146200  1
  H  191  1  0.03737250  0.03427600  0.97371250  1
  H  192  1  0.02414900  0.03825050  0.87905150  1
  H  195  1  0.09509800  0.07401200  0.89300300  1
  H  196  1  0.09450100  0.07688700  0.85721700  1
  H  197  1  0.11484000  0.15647450  0.01406750  1
  H  198  1  0.11211950  0.15793600  0.97712550  1
  H  205  1  0.29958500  0.35378750  0.89422450  1
  H  206  1  0.20400500  0.35424900  0.88418800  1
  H  213  1  0.44757700  0.46560850  0.99453950  1
  H  214  1  0.34901450  0.46171600  0.97759450  1
  H  217  1  0.32722300  0.42601150  0.01271550  1
  H  218  1  0.28857600  0.42317400  0.00926000  1
  H  219  1  0.36571900  0.34343600  0.94988000  1
  H  220  1  0.32736350  0.34202450  0.94581900  1
  H  227  1  0.21688450  0.60296350  0.56241100  1
  H  228  1  0.31242200  0.68841000  0.65850200  1
  H  235  1  0.06874950  0.55557900  0.52622550  1
  H  236  1  0.16744400  0.63685100  0.62093000  1
  H  239  1  0.18920750  0.69378750  0.60703400  1
  H  240  1  0.22783600  0.72896300  0.64287700  1
  H  241  1  0.15061800  0.59267000  0.48592600  1
  H  242  1  0.18904400  0.62682350  0.52290050  1
  H  249  1  0.46773950  0.89707950  0.60571600  1
  H  250  1  0.47847100  0.81163300  0.61579700  1
  H  257  1  0.47910050  0.94462650  0.50515800  1
  H  258  1  0.49238550  0.86322000  0.52235750  1
  H  261  1  0.42159850  0.80625950  0.48722400  1
  H  262  1  0.42239050  0.77113900  0.49071550  1
  H  263  1  0.40168800  0.90749150  0.54991950  1
  H  264  1  0.40441400  0.87326050  0.55407850  1
  H  271  1  0.61122300  0.20861800  0.06240300  1
  H  272  1  0.69673500  0.30418050  0.15851050  1
  H  279  1  0.56354600  0.06059650  0.02624650  1
  H  280  1  0.64514000  0.15916600  0.12090400  1
  H  283  1  0.70208400  0.18099250  0.10696350  1
  H  284  1  0.73727950  0.21965250  0.14275000  1
  H  285  1  0.60070800  0.14243050  0.98590550  1
  H  286  1  0.63498650  0.18080400  0.02284450  1
  H  293  1  0.90536000  0.45956050  0.10574650  1
  H  294  1  0.81982200  0.47005650  0.11580350  1
  H  301  1  0.95290600  0.47097950  0.00526950  1
  H  302  1  0.87150683  0.48425033  0.02248750  1
  H  305  1  0.81450950  0.41333900  0.98727050  1
  H  306  1  0.77932350  0.41396100  0.99073350  1
  H  307  1  0.91576750  0.39349800  0.04999050  1
  H  308  1  0.88153700  0.39621700  0.05415300  1
  H  315  1  0.15449000  0.04058400  0.43759600  1
  H  316  1  0.15391650  0.02993350  0.34149900  1
  H  323  1  0.04256150  0.02925600  0.47377650  1
  H  324  1  0.04652650  0.01594300  0.37908550  1
  H  327  1  0.08217150  0.08676800  0.39297950  1
  H  328  1  0.08494650  0.08609550  0.35713000  1
  H  329  1  0.16471200  0.10672700  0.51408500  1
  H  330  1  0.16615200  0.10394800  0.47711800  1
  H  337  1  0.36200850  0.29138350  0.39430300  1
  H  338  1  0.36261450  0.19582950  0.38419300  1
  H  345  1  0.47393100  0.43946100  0.49479600  1
  H  346  1  0.47005283  0.34089583  0.47766100  1
  H  349  1  0.43438500  0.31903550  0.51277850  1
  H  350  1  0.43166800  0.28041400  0.50928000  1
  H  351  1  0.35177050  0.35758100  0.45009350  1
  H  352  1  0.35034600  0.31920150  0.44596350  1
  H  359  1  0.40258900  0.85379900  0.79138000  1
  H  360  1  0.39252400  0.85434550  0.69581450  1
  H  367  1  0.50315150  0.96572550  0.93943700  1
  H  368  1  0.48585200  0.96172800  0.84078000  1
  H  371  1  0.52106800  0.92597900  0.81899100  1
  H  372  1  0.51760000  0.92310700  0.78033100  1
  H  373  1  0.45833600  0.84350000  0.85756600  1
  H  374  1  0.45417900  0.84205400  0.81917500  1
  H  381  1  0.44579850  0.64620950  0.54044200  1
  H  382  1  0.34974400  0.64574400  0.52989200  1
  H  389  1  0.48197000  0.53435600  0.52909400  1
  H  390  1  0.38727300  0.53827450  0.51583250  1
  H  393  1  0.40116550  0.57397400  0.58667750  1
  H  394  1  0.36535300  0.57681250  0.58604450  1
  H  395  1  0.52225650  0.65654200  0.60652150  1
  H  396  1  0.48529850  0.65795700  0.60380950  1
  H  403  1  0.11391750  0.39701850  0.95945500  1
  H  404  1  0.12399650  0.31156150  0.97008000  1
  H  411  1  0.01327150  0.44448950  0.97074700  1
  H  412  1  0.03058150  0.36313200  0.98408350  1
  H  415  1  0.99541450  0.30620600  0.91326050  1
  H  416  1  0.99886250  0.27102400  0.91391850  1
  H  417  1  0.05797150  0.40734400  0.89329350  1
  H  418  1  0.06221550  0.37317100  0.89608850  1
  H  425  1  0.07066000  0.10291650  0.70862250  1
  H  426  1  0.16682600  0.18837450  0.80415250  1
  H  433  1  0.03447800  0.05520700  0.56055900  1
  H  434  1  0.12915850  0.13676267  0.65909017  1
  H  437  1  0.11533900  0.19372950  0.68094050  1
  H  438  1  0.15124400  0.22885500  0.71955600  1
  H  439  1  0.99419300  0.09248050  0.64240450  1
  H  440  1  0.03114550  0.12673000  0.68078650  1
  H  447  1  0.54882450  0.93760800  0.14624350  1
  H  448  1  0.53813850  0.84146550  0.14564700  1
  H  455  1  0.53739600  0.97376700  0.03436700  1
  H  456  1  0.52424350  0.87910200  0.03828350  1
  H  459  1  0.59513200  0.89303550  0.07408550  1
  H  460  1  0.59447400  0.85720700  0.07690500  1
  H  461  1  0.61479000  0.01408550  0.15657550  1
  H  462  1  0.61214100  0.97714200  0.15798500  1
  H  469  1  0.79962500  0.89425350  0.35381550  1
  H  470  1  0.70401850  0.88415200  0.35425550  1
  H  477  1  0.94767400  0.99491850  0.46574850  1
  H  478  1  0.84898833  0.97745850  0.46175883  1
  H  481  1  0.82721300  0.01270950  0.42607850  1
  H  482  1  0.78855750  0.00923200  0.42322850  1
  H  483  1  0.86578300  0.95011150  0.34353650  1
  H  484  1  0.82737000  0.94588050  0.34208450  1
  H  491  1  0.71685550  0.56238050  0.60296300  1
  H  492  1  0.81240450  0.65846850  0.68837100  1
  H  499  1  0.56876950  0.52626950  0.55551800  1
  H  500  1  0.66745950  0.62095850  0.63682700  1
  H  503  1  0.68921400  0.60708000  0.69379000  1
  H  504  1  0.72786000  0.64289200  0.72897000  1
  H  505  1  0.65059200  0.48594300  0.59270500  1
  H  506  1  0.68901050  0.52291500  0.62687350  1
  H  513  1  0.96771100  0.60568350  0.89707150  1
  H  514  1  0.97842350  0.61576150  0.81162000  1
  H  521  1  0.97920550  0.50527450  0.94474600  1
  H  522  1  0.99237333  0.52230100  0.86322633  1
  H  525  1  0.92159850  0.48720600  0.80626850  1
  H  526  1  0.92242050  0.49069300  0.77115550  1
  H  527  1  0.90169550  0.54990650  0.90751600  1
  H  528  1  0.90440900  0.55405400  0.87327600  1
  H  1067  1  0.98715500  0.06741100  0.06514600  1
  H  1068  1  0.13517500  0.11138850  0.03470650  1
  H  1069  1  0.15102050  0.10730300  0.08851750  1
  H  1072  1  0.95694200  0.06699850  0.97884250  1
  H  1073  1  0.95835150  0.10735450  0.04693000  1
  H  1074  1  0.92792300  0.09545550  0.00253850  1
  H  1075  1  0.97486900  0.12717000  0.02341500  1
  H  1086  1  0.52955500  0.08621000  0.58839300  1
  H  1087  1  0.38121750  0.90794600  0.48481150  1
  H  1088  1  0.36538800  0.94600550  0.46487150  1
  H  1091  1  0.55962850  0.03007400  0.61825850  1
  H  1092  1  0.55841900  0.09690000  0.65716300  1
  H  1093  1  0.58878150  0.08287550  0.67569800  1
  H  1094  1  0.54183850  0.05692600  0.66054250  1
  H  1105  1  0.50623550  0.43264650  0.91161500  1
  H  1106  1  0.43122350  0.38836000  0.01514450  1
  H  1107  1  0.48915700  0.39246750  0.03524750  1
  H  1110  1  0.42033300  0.43303250  0.88158450  1
  H  1111  1  0.44820350  0.39274100  0.84278850  1
  H  1112  1  0.41574500  0.40464750  0.82418850  1
  H  1113  1  0.40481050  0.37289250  0.83935600  1
  H  1124  1  0.01068450  0.41390850  0.43527300  1
  H  1125  1  0.08490750  0.59216400  0.46506750  1
  H  1126  1  0.02696900  0.55405900  0.41126300  1
  H  1129  1  0.09681000  0.47017000  0.52140300  1
  H  1130  1  0.06866000  0.40321050  0.45339250  1
  H  1131  1  0.10136250  0.41732200  0.49774750  1
  H  1132  1  0.11200350  0.44315150  0.47660700  1
  H  1143  1  0.92215300  0.93514600  0.00216300  1
  H  1144  1  0.10041000  0.96504950  0.07687250  1
  H  1145  1  0.06239900  0.91121400  0.01892300  1
  H  1148  1  0.97829900  0.02133000  0.08822300  1
  H  1149  1  0.91136100  0.95331500  0.06010400  1
  H  1150  1  0.92541900  0.99768400  0.09272900  1
  H  1151  1  0.95127600  0.97659900  0.10348300  1
  H  1162  1  0.94085750  0.41134850  0.49778800  1
  H  1163  1  0.89672400  0.51525500  0.42325100  1
  H  1164  1  0.90080500  0.53519800  0.48114300  1
  H  1167  1  0.94138200  0.38159950  0.41197350  1
  H  1168  1  0.90083600  0.34252700  0.43949900  1
  H  1169  1  0.91286950  0.32407150  0.40710500  1
  H  1170  1  0.88114900  0.33927800  0.39617700  1
  H  1181  1  0.59448550  0.08844500  0.52117250  1
  H  1182  1  0.41610800  0.98473600  0.37302400  1
  H  1183  1  0.45412250  0.96479200  0.35720150  1
  H  1186  1  0.53844450  0.11839950  0.55135300  1
  H  1187  1  0.60524000  0.15721350  0.55005850  1
  H  1188  1  0.59126850  0.17580250  0.58045200  1
  H  1189  1  0.56528800  0.16063300  0.53350900  1
  H  1200  1  0.57556400  0.56491350  0.97880350  1
  H  1201  1  0.61965300  0.53472150  0.12700950  1
  H  1202  1  0.61555750  0.58857850  0.14280600  1
  H  1205  1  0.57541800  0.47871400  0.94880500  1
  H  1206  1  0.61537200  0.54675450  0.94994850  1
  H  1207  1  0.60367050  0.50239750  0.91965500  1
  H  1208  1  0.63544250  0.52347600  0.96661850  1
  H  1219  1  0.91974500  0.99779700  0.93264400  1
  H  1220  1  0.02362450  0.92323250  0.88848600  1
  H  1221  1  0.04360050  0.98114500  0.89260850  1
  H  1224  1  0.88981900  0.91183450  0.93291950  1
  H  1225  1  0.85096650  0.93970900  0.89268850  1
  H  1226  1  0.83238900  0.90718100  0.90453200  1
  H  1227  1  0.84759650  0.89635250  0.87279400  1
  H  1238  1  0.44339350  0.50219950  0.91377200  1
  H  1239  1  0.47320450  0.57685100  0.09199350  1
  H  1240  1  0.41931700  0.51884850  0.05391150  1
  H  1243  1  0.52960450  0.58819650  0.96994600  1
  H  1244  1  0.46159300  0.56031250  0.90311250  1
  H  1245  1  0.50599000  0.59286400  0.91715600  1
  H  1246  1  0.48498850  0.60365850  0.94309700  1
  H  1257  1  0.07352700  0.47900050  0.56732750  1
  H  1258  1  0.04282500  0.62683700  0.61149900  1
  H  1259  1  0.09666700  0.64281200  0.60741900  1
  H  1262  1  0.98721050  0.44861500  0.56689350  1
  H  1263  1  0.05534700  0.45007450  0.60718950  1
  H  1264  1  0.01097350  0.41958900  0.59528050  1
  H  1265  1  0.03181200  0.46651500  0.62703500  1
  H  1276  1  0.59678300  0.02120650  0.58620050  1
  H  1277  1  0.49272250  0.87301850  0.40778700  1
  H  1278  1  0.47282250  0.85721650  0.44580900  1
  H  1281  1  0.62659850  0.05130450  0.53005200  1
  H  1282  1  0.66550600  0.05000250  0.59681550  1
  H  1283  1  0.68405250  0.08037050  0.58280200  1
  H  1284  1  0.66883000  0.03341700  0.55680800  1
  H  1295  1  0.48698950  0.06491600  0.06705350  1
  H  1296  1  0.63530350  0.03495100  0.11187050  1
  H  1297  1  0.65114300  0.08877300  0.10773400  1
  H  1300  1  0.45693400  0.97876400  0.06699600  1
  H  1301  1  0.45804750  0.04681100  0.10686050  1
  H  1302  1  0.42772650  0.00245950  0.09514900  1
  H  1303  1  0.47467200  0.02353850  0.12697850  1
  H  1314  1  0.02947900  0.58862950  0.08638450  1
  H  1315  1  0.88143050  0.48463900  0.90794350  1
  H  1316  1  0.86558300  0.46472200  0.94591400  1
  H  1319  1  0.05971650  0.61836800  0.03028950  1
  H  1320  1  0.05828750  0.65742250  0.09692100  1
  H  1321  1  0.08875150  0.67588750  0.08296400  1
  H  1322  1  0.04181900  0.66068050  0.05685750  1
  H  1333  1  0.00597600  0.91161250  0.43273950  1
  H  1334  1  0.93146550  0.01546500  0.38840650  1
  H  1335  1  0.98941300  0.03535150  0.39249650  1
  H  1338  1  0.91999200  0.88174650  0.43300450  1
  H  1339  1  0.94796000  0.84288850  0.39291750  1
  H  1340  1  0.91538650  0.82432850  0.40472000  1
  H  1341  1  0.90460050  0.83949250  0.37293700  1
  H  1352  1  0.51064200  0.43515800  0.41388400  1
  H  1353  1  0.58495600  0.46518100  0.59221900  1
  H  1354  1  0.52700300  0.41132500  0.55413800  1
  H  1357  1  0.59665850  0.52137300  0.47011150  1
  H  1358  1  0.56869050  0.45336000  0.40324250  1
  H  1359  1  0.60130400  0.49774000  0.41731600  1
  H  1360  1  0.61202700  0.47668600  0.44321900  1
  H  1371  1  0.42192050  0.00222800  0.93477850  1
  H  1372  1  0.60040350  0.07672850  0.96528500  1
  H  1373  1  0.56246700  0.01882100  0.91148400  1
  H  1376  1  0.47796000  0.08814750  0.02105350  1
  H  1377  1  0.41128950  0.06036650  0.95293400  1
  H  1378  1  0.42522600  0.09286750  0.99731150  1
  H  1379  1  0.45130700  0.10370700  0.97644700  1
  H  1390  1  0.44115900  0.49785600  0.41162700  1
  H  1391  1  0.39639150  0.42311800  0.51516750  1
  H  1392  1  0.40049600  0.48111500  0.53512100  1
  H  1395  1  0.44140800  0.41188000  0.38176200  1
  H  1396  1  0.40123350  0.43974750  0.34283800  1
  H  1397  1  0.41309650  0.40721900  0.32431350  1
  H  1398  1  0.38131250  0.39639450  0.33946700  1
  H  1409  1  0.09452850  0.52105500  0.08835550  1
  H  1410  1  0.91603100  0.37315050  0.98471450  1
  H  1411  1  0.95391600  0.35719550  0.96467650  1
  H  1414  1  0.03856700  0.55140350  0.11828350  1
  H  1415  1  0.10526900  0.54998900  0.15714200  1
  H  1416  1  0.09135950  0.58046150  0.17570400  1
  H  1417  1  0.06529500  0.53353550  0.16054650  1
  H  1428  1  0.07541100  0.97863100  0.56479500  1
  H  1429  1  0.11986700  0.12703000  0.53490400  1
  H  1430  1  0.11573850  0.14276700  0.58870950  1
  H  1433  1  0.07526350  0.94866050  0.47861100  1
  H  1434  1  0.11532350  0.94981950  0.54663200  1
  H  1435  1  0.10355300  0.91950750  0.50225150  1
  H  1436  1  0.13532450  0.96646450  0.52329500  1
  H  1447  1  0.41993700  0.93288550  0.99780450  1
  H  1448  1  0.52358900  0.88824400  0.92315900  1
  H  1449  1  0.54352150  0.89234200  0.98110150  1
  H  1452  1  0.39006450  0.93308200  0.91178250  1
  H  1453  1  0.35121750  0.89309450  0.93982300  1
  H  1454  1  0.33265850  0.90486450  0.90722000  1
  H  1455  1  0.34779400  0.87305350  0.89645850  1
  H  1466  1  0.94300350  0.91359550  0.50218300  1
  H  1467  1  0.97354650  0.09209000  0.57674050  1
  H  1468  1  0.91972600  0.05416100  0.51885200  1
  H  1471  1  0.02934800  0.96962300  0.58799500  1
  H  1472  1  0.96125100  0.90303950  0.56044250  1
  H  1473  1  0.00566900  0.91695300  0.59283700  1
  H  1474  1  0.98489150  0.94310400  0.60377150  1
  H  1485  1  0.57332950  0.56731550  0.47888200  1
  H  1486  1  0.54305450  0.61168000  0.62700150  1
  H  1487  1  0.59689600  0.60756400  0.64282800  1
  H  1490  1  0.48710200  0.56708550  0.44869750  1
  H  1491  1  0.55519650  0.60718450  0.44999400  1
  H  1492  1  0.51083600  0.59539050  0.41960350  1
  H  1493  1  0.53180050  0.62715900  0.46654750  1
  H  1504  1  0.09677650  0.58616450  0.02128200  1
  H  1505  1  0.99277750  0.40778900  0.87304450  1
  H  1506  1  0.97286100  0.44583350  0.85724550  1
  H  1509  1  0.12665600  0.52998250  0.05128350  1
  H  1510  1  0.16547250  0.59688600  0.05015450  1
  H  1511  1  0.18405400  0.58282600  0.08045600  1
  H  1512  1  0.16889000  0.55694550  0.03350050  1
  H  1979  1  0.00868450  0.00557300  0.24627950  1
  H  1980  1  0.19607550  0.12151200  0.32731550  1
  H  1981  1  0.18377700  0.10368300  0.36652000  1
  H  1984  1  0.99858000  0.00025650  0.18111950  1
  H  1985  1  0.00433550  0.07228950  0.21726000  1
  H  1986  1  0.97324400  0.03113650  0.21169850  1
  H  1987  1  0.96967250  0.03564500  0.17312150  1
  H  1998  1  0.50786900  0.24580450  0.50503250  1
  H  1999  1  0.32046950  0.13965250  0.43371900  1
  H  2000  1  0.33281650  0.19113250  0.42811600  1
  H  2003  1  0.51791800  0.19075450  0.50990950  1
  H  2004  1  0.51222600  0.22128950  0.57620150  1
  H  2005  1  0.54331600  0.24673400  0.56608400  1
  H  2006  1  0.54685400  0.21174700  0.57422300  1
  H  2017  1  0.74899100  0.49446050  0.99492250  1
  H  2018  1  0.71410700  0.37856150  0.06642350  1
  H  2019  1  0.77113150  0.39637600  0.07194150  1
  H  2022  1  0.68913150  0.49975950  0.99009900  1
  H  2023  1  0.65327450  0.42770900  0.92385650  1
  H  2024  1  0.68885250  0.46886150  0.93390300  1
  H  2025  1  0.64575700  0.46433200  0.92579700  1
  H  2036  1  0.76756200  0.25405500  0.25357500  1
  H  2037  1  0.80247350  0.36062150  0.17273800  1
  H  2038  1  0.74541800  0.30912900  0.13350700  1
  H  2041  1  0.82740100  0.30907350  0.31875350  1
  H  2042  1  0.86329650  0.27873450  0.28258300  1
  H  2043  1  0.82770450  0.25317600  0.28812350  1
  H  2044  1  0.87078750  0.28816350  0.32670900  1
  H  2055  1  0.76240800  0.75369100  0.75933300  1
  H  2056  1  0.86879000  0.67266100  0.79416300  1
  H  2057  1  0.81726900  0.63345700  0.73713800  1
  H  2060  1  0.81747400  0.81884900  0.81916300  1
  H  2061  1  0.78712600  0.78271800  0.85508000  1
  H  2062  1  0.76158050  0.78828000  0.81949950  1
  H  2063  1  0.79659800  0.82685550  0.86257750  1
  H  2074  1  0.00283850  0.49491800  0.74072050  1
  H  2075  1  0.88679800  0.56628800  0.70594400  1
  H  2076  1  0.90473150  0.57186400  0.76300350  1
  H  2079  1  0.00801950  0.49006000  0.68079950  1
  H  2080  1  0.93601750  0.42378900  0.64503450  1
  H  2081  1  0.97721600  0.43388000  0.68058600  1
  H  2082  1  0.97261550  0.42575250  0.63746200  1
  H  2093  1  0.75406250  0.00505850  0.49953200  1
  H  2094  1  0.64768050  0.93356500  0.31213050  1
  H  2095  1  0.69919450  0.92804200  0.32444050  1
  H  2098  1  0.69902850  0.00987600  0.50965150  1
  H  2099  1  0.72940650  0.07613050  0.50385900  1
  H  2100  1  0.75494100  0.06608150  0.53495950  1
  H  2101  1  0.71994550  0.07417700  0.53853650  1
  H  2112  1  0.51402400  0.74640050  0.00044350  1
  H  2113  1  0.62970250  0.82726000  0.18787350  1
  H  2114  1  0.61183850  0.86646950  0.17559200  1
  H  2117  1  0.50873550  0.68123850  0.99029700  1
  H  2118  1  0.58081700  0.71748300  0.99618700  1
  H  2119  1  0.53967900  0.71191100  0.96506200  1
  H  2120  1  0.54421400  0.67334550  0.96147550  1
  H  2131  1  0.00310900  0.24066850  0.99441250  1
  H  2132  1  0.07460950  0.20582200  0.87851150  1
  H  2133  1  0.08011800  0.26284350  0.89633450  1
  H  2136  1  0.99832250  0.18082250  0.99972000  1
  H  2137  1  0.93205450  0.14493950  0.92768100  1
  H  2138  1  0.94210750  0.18051800  0.96883650  1
  H  2139  1  0.93402450  0.13742950  0.96431300  1
  H  2150  1  0.26208650  0.25925550  0.75420200  1
  H  2151  1  0.18080800  0.29405600  0.86033000  1
  H  2152  1  0.14168000  0.23697800  0.80884000  1
  H  2155  1  0.32718150  0.31917050  0.80927000  1
  H  2156  1  0.29097850  0.35494900  0.77874550  1
  H  2157  1  0.29662350  0.31938950  0.75329700  1
  H  2158  1  0.33514800  0.36250700  0.78829700  1
  H  2169  1  0.25454850  0.50046800  0.50560450  1
  H  2170  1  0.33558050  0.68788150  0.62147900  1
  H  2171  1  0.37476300  0.67558000  0.60361300  1
  H  2174  1  0.18940850  0.49034850  0.50036200  1
  H  2175  1  0.22566850  0.49618300  0.57241450  1
  H  2176  1  0.22006500  0.46506700  0.53125000  1
  H  2177  1  0.18151950  0.46149550  0.53581800  1
  H  2188  1  0.51349750  0.99954100  0.74595650  1
  H  2189  1  0.44184300  0.81213800  0.63937900  1
  H  2190  1  0.43625250  0.82438800  0.69085450  1
  H  2193  1  0.51834350  0.00970800  0.69094950  1
  H  2194  1  0.58457300  0.00387200  0.72130300  1
  H  2195  1  0.57453450  0.03496950  0.74685800  1
  H  2196  1  0.58264400  0.03857550  0.71187850  1
  H  2207  1  0.50870950  0.24630250  0.00566500  1
  H  2208  1  0.69613250  0.32733000  0.12147750  1
  H  2209  1  0.68380950  0.36652750  0.10365100  1
  H  2212  1  0.49862250  0.18115350  0.00035900  1
  H  2213  1  0.50442800  0.21731400  0.07241400  1
  H  2214  1  0.47330950  0.21173850  0.03126800  1
  H  2215  1  0.46975800  0.17317250  0.03578750  1
  H  2226  1  0.00790600  0.50510350  0.24580050  1
  H  2227  1  0.82049050  0.43371500  0.13965850  1
  H  2228  1  0.83285600  0.42815350  0.19115050  1
  H  2231  1  0.01793600  0.50994150  0.19072550  1
  H  2232  1  0.01221000  0.57621750  0.22122550  1
  H  2233  1  0.04331850  0.56613000  0.24668550  1
  H  2234  1  0.04684100  0.57424950  0.21168550  1
  H  2245  1  0.24897100  0.99490800  0.49441100  1
  H  2246  1  0.21410350  0.06640500  0.37850250  1
  H  2247  1  0.27113500  0.07191350  0.39633250  1
  H  2250  1  0.18912550  0.99011300  0.49972050  1
  H  2251  1  0.15323900  0.92384900  0.42768000  1
  H  2252  1  0.18882100  0.93390000  0.46883100  1
  H  2253  1  0.14573450  0.92581700  0.46431350  1
  H  2264  1  0.26761850  0.25360900  0.25402950  1
  H  2265  1  0.30240950  0.17276150  0.36061800  1
  H  2266  1  0.24533500  0.13355600  0.30913300  1
  H  2269  1  0.32750200  0.31876700  0.30904000  1
  H  2270  1  0.36332600  0.28250300  0.27868400  1
  H  2271  1  0.32776150  0.28807900  0.25312850  1
  H  2272  1  0.37086850  0.32664300  0.28810650  1
  H  2283  1  0.26242000  0.75930650  0.75372150  1
  H  2284  1  0.36878250  0.79416050  0.67268400  1
  H  2285  1  0.31727350  0.73713550  0.63348400  1
  H  2288  1  0.31747850  0.81915400  0.81887650  1
  H  2289  1  0.28709400  0.85503750  0.78272450  1
  H  2290  1  0.26156600  0.81945600  0.78829600  1
  H  2291  1  0.29657100  0.86254350  0.82686550  1
  H  2302  1  0.50285150  0.74075900  0.49496350  1
  H  2303  1  0.38675500  0.70593650  0.56626950  1
  H  2304  1  0.40471700  0.76302250  0.57187750  1
  H  2307  1  0.50801700  0.68083100  0.49009000  1
  H  2308  1  0.43603500  0.64507750  0.42379650  1
  H  2309  1  0.47724500  0.68063650  0.43391450  1
  H  2310  1  0.47263850  0.63750900  0.42577650  1
  H  2321  1  0.25408000  0.49951000  0.00514000  1
  H  2322  1  0.14769550  0.31209850  0.93359700  1
  H  2323  1  0.19919250  0.32440400  0.92805950  1
  H  2326  1  0.19904350  0.50962250  0.00997900  1
  H  2327  1  0.22944700  0.50380650  0.07621350  1
  H  2328  1  0.25496900  0.53491850  0.06616750  1
  H  2329  1  0.21998100  0.53848650  0.07428350  1
  H  2340  1  0.01397000  0.00045250  0.74640850  1
  H  2341  1  0.12969050  0.18785850  0.82722900  1
  H  2342  1  0.11185800  0.17560300  0.86645500  1
  H  2345  1  0.00864250  0.99028700  0.68123350  1
  H  2346  1  0.08071500  0.99613600  0.71742300  1
  H  2347  1  0.03958200  0.96503250  0.71188050  1
  H  2348  1  0.04408350  0.96142850  0.67329400  1
  H  2359  1  0.50306550  0.99435500  0.24067950  1
  H  2360  1  0.57461600  0.87849500  0.20584100  1
  H  2361  1  0.58012400  0.89631550  0.26286650  1
  H  2364  1  0.49830000  0.99968250  0.18084850  1
  H  2365  1  0.43203200  0.92763600  0.14492600  1
  H  2366  1  0.44206900  0.96877750  0.18051250  1
  H  2367  1  0.43401150  0.96428200  0.13743650  1
  H  2378  1  0.76210900  0.75419750  0.25926650  1
  H  2379  1  0.68084850  0.86034550  0.29405900  1
  H  2380  1  0.64172400  0.80886650  0.23699550  1
  H  2383  1  0.82721050  0.80925200  0.31919250  1
  H  2384  1  0.79095750  0.77873500  0.35494050  1
  H  2385  1  0.79660950  0.75327950  0.31939200  1
  H  2386  1  0.83512850  0.78826800  0.36252150  1
  H  2397  1  0.75454200  0.50554100  0.50047100  1
  H  2398  1  0.83555950  0.62144250  0.68787300  1
  H  2399  1  0.87476600  0.60361400  0.67556200  1
  H  2402  1  0.68938750  0.50023650  0.49035300  1
  H  2403  1  0.72555500  0.57228600  0.49615100  1
  H  2404  1  0.71999100  0.53113900  0.46504800  1
  H  2405  1  0.68141800  0.53565500  0.46147300  1
  H  2416  1  0.01359550  0.74595550  0.99955900  1
  H  2417  1  0.94182750  0.63937650  0.81212700  1
  H  2418  1  0.93625550  0.69087250  0.82441000  1
  H  2421  1  0.01844800  0.69093800  0.00970600  1
  H  2422  1  0.08463600  0.72128500  0.00380700  1
  H  2423  1  0.07462700  0.74684150  0.03493650  1
  H  2424  1  0.08274750  0.71186100  0.03852050  1
  N  17  1  0.21156600  0.12464350  0.20620850  1
  N  18  1  0.11526700  0.01237200  0.15636900  1
  N  39  1  0.30502750  0.00294900  0.42145250  1
  N  40  1  0.40128050  0.04945750  0.40544500  1
  N  61  1  0.58973700  0.37531250  0.07862350  1
  N  62  1  0.65218350  0.48758600  0.09461850  1
  N  83  1  0.92675950  0.49710650  0.29389100  1
  N  84  1  0.86424500  0.45052450  0.34363750  1
  N  105  1  0.00539050  0.79380050  0.91843000  1
  N  106  1  0.95886750  0.84363000  0.85597650  1
  N  127  1  0.88351600  0.57848800  0.58144800  1
  N  128  1  0.99581400  0.59455600  0.64393600  1
  N  149  1  0.51109800  0.92135350  0.29670950  1
  N  150  1  0.55758700  0.90537450  0.39300150  1
  N  171  1  0.63289600  0.70613150  0.20322050  1
  N  172  1  0.52061150  0.65636050  0.10692900  1
  N  193  1  0.08695500  0.08153900  0.87537000  1
  N  194  1  0.10289550  0.14395900  0.98762650  1
  N  215  1  0.30206300  0.41849300  0.99705200  1
  N  216  1  0.35182350  0.35597750  0.95051400  1
  N  237  1  0.21439050  0.70329750  0.62463300  1
  N  238  1  0.16462500  0.60697950  0.51237250  1
  N  259  1  0.42967700  0.79676950  0.50292050  1
  N  260  1  0.41369150  0.89305350  0.54942500  1
  N  281  1  0.71158000  0.20615600  0.12459900  1
  N  282  1  0.61523000  0.15634200  0.01234400  1
  N  303  1  0.80501550  0.42147800  0.00293950  1
  N  304  1  0.90126900  0.40544000  0.04940800  1
  N  325  1  0.08975200  0.07867900  0.37537700  1
  N  326  1  0.15226700  0.09461200  0.48764100  1
  N  347  1  0.42675750  0.29384600  0.49707950  1
  N  348  1  0.36426900  0.34364000  0.45059500  1
  N  369  1  0.50539750  0.91845200  0.79382750  1
  N  370  1  0.45893100  0.85602600  0.84365500  1
  N  391  1  0.38352550  0.58149100  0.57852250  1
  N  392  1  0.49581350  0.64400500  0.59457750  1
  N  413  1  0.01108350  0.29669100  0.92134250  1
  N  414  1  0.05765350  0.39302200  0.90541550  1
  N  435  1  0.13290250  0.20322250  0.70612900  1
  N  436  1  0.02063450  0.10692450  0.65635200  1
  N  457  1  0.58694850  0.87537650  0.08157600  1
  N  458  1  0.60288800  0.98764650  0.14403050  1
  N  479  1  0.80205150  0.99703350  0.41854700  1
  N  480  1  0.85185800  0.95065050  0.35605450  1
  N  501  1  0.71440200  0.62466000  0.70330000  1
  N  502  1  0.66459800  0.51238850  0.60701850  1
  N  523  1  0.92968950  0.50290000  0.79678150  1
  N  524  1  0.91370150  0.54941950  0.89307800  1
  N  1063  1  0.03964500  0.08062150  0.07599950  1
  N  1066  1  0.02234050  0.08688600  0.01581750  1
  N  1070  1  0.96118450  0.07148050  0.00424200  1
  N  1082  1  0.47702200  0.04462300  0.54918100  1
  N  1085  1  0.49424050  0.00173800  0.57278250  1
  N  1089  1  0.55544450  0.05125450  0.61847100  1
  N  1101  1  0.50372150  0.41938200  0.95082550  1
  N  1104  1  0.43727250  0.41310400  0.92708450  1
  N  1108  1  0.44127600  0.42856850  0.88141350  1
  N  1120  1  0.01294600  0.45544000  0.42426900  1
  N  1123  1  0.07946100  0.49843050  0.48435350  1
  N  1127  1  0.07577300  0.44896200  0.49608700  1
  N  1139  1  0.96373250  0.92418700  0.00455050  1
  N  1142  1  0.00662100  0.98429400  0.07103100  1
  N  1146  1  0.95711300  0.99599600  0.06720300  1
  N  1158  1  0.92758400  0.45058150  0.49538650  1
  N  1161  1  0.92131600  0.42699000  0.42893700  1
  N  1165  1  0.93681150  0.38130550  0.43283200  1
  N  1177  1  0.55284450  0.04921600  0.46866750  1
  N  1180  1  0.51002000  0.07286200  0.48597200  1
  N  1184  1  0.55960000  0.11857550  0.54714050  1
  N  1196  1  0.58876850  0.57583700  0.03130950  1
  N  1199  1  0.59510150  0.51569250  0.01412000  1
  N  1203  1  0.57973650  0.50404900  0.95295150  1
  N  1215  1  0.95898900  0.99539750  0.91938850  1
  N  1218  1  0.93534700  0.92892100  0.91305300  1
  N  1222  1  0.88962250  0.93278700  0.92848850  1
  N  1234  1  0.43241450  0.50456150  0.95533900  1
  N  1237  1  0.49251200  0.57105200  0.99824700  1
  N  1241  1  0.50424100  0.56723750  0.94875550  1
  N  1253  1  0.08429200  0.53147400  0.58056800  1
  N  1256  1  0.02409700  0.51403350  0.58680250  1
  N  1260  1  0.01261550  0.45289500  0.57136050  1
  N  1272  1  0.55750000  0.96870450  0.54460050  1
  N  1275  1  0.58105350  0.98593300  0.50167950  1
  N  1279  1  0.62681750  0.04710200  0.55122350  1
  N  1291  1  0.53952150  0.07585000  0.08039150  1
  N  1294  1  0.52228800  0.01576500  0.08680500  1
  N  1298  1  0.46108950  0.00409500  0.07129250  1
  N  1310  1  0.97697500  0.54938100  0.04475800  1
  N  1313  1  0.99428100  0.57294450  0.00187850  1
  N  1317  1  0.05545700  0.61865200  0.05144700  1
  N  1329  1  0.00360600  0.95086250  0.41948150  1
  N  1332  1  0.93715550  0.92729150  0.41318600  1
  N  1336  1  0.94097300  0.88155550  0.42862250  1
  N  1348  1  0.51292950  0.42419250  0.45544400  1
  N  1351  1  0.57940800  0.48433100  0.49841500  1
  N  1355  1  0.57567350  0.49602600  0.44891650  1
  N  1367  1  0.46357550  0.00460450  0.92395100  1
  N  1370  1  0.50641700  0.07106800  0.98411300  1
  N  1374  1  0.45681350  0.06721750  0.99565400  1
  N  1386  1  0.42783150  0.49546300  0.45083050  1
  N  1389  1  0.42145900  0.42898050  0.42721650  1
  N  1393  1  0.43698650  0.43283150  0.38153900  1
  N  1405  1  0.05283950  0.46856900  0.04913650  1
  N  1408  1  0.01006600  0.48598500  0.07279700  1
  N  1412  1  0.05970100  0.54713600  0.11847700  1
  N  1424  1  0.08870400  0.03116900  0.57578300  1
  N  1427  1  0.09510450  0.01402100  0.51567850  1
  N  1431  1  0.07963000  0.95281450  0.50395950  1
  N  1443  1  0.45916350  0.91958750  0.99543800  1
  N  1446  1  0.43559150  0.91325100  0.92897250  1
  N  1450  1  0.38988150  0.92873600  0.93278350  1
  N  1462  1  0.93216750  0.95525300  0.50459450  1
  N  1465  1  0.99236250  0.99808750  0.57103500  1
  N  1469  1  0.00391650  0.94848050  0.56713000  1
  N  1481  1  0.58418150  0.58057300  0.53138050  1
  N  1484  1  0.52404700  0.58690450  0.51407250  1
  N  1488  1  0.51247100  0.57146900  0.45291000  1
  N  1500  1  0.05751200  0.54458800  0.96876200  1
  N  1503  1  0.08106700  0.50165200  0.98594900  1
  N  1507  1  0.12682800  0.55117000  0.04713400  1
  N  1975  1  0.06299950  0.03449800  0.28575950  1
  N  1978  1  0.07601950  0.06047050  0.24245900  1
  N  1982  1  0.01347300  0.02809950  0.19747250  1
  N  1994  1  0.45356350  0.23099800  0.47962950  1
  N  1997  1  0.44050850  0.17474950  0.49269300  1
  N  2001  1  0.50304200  0.19226750  0.52287150  1
  N  2013  1  0.75955750  0.46556000  0.02034050  1
  N  2016  1  0.69027950  0.43957850  0.00737600  1
  N  2020  1  0.67765250  0.47191850  0.97716600  1
  N  2032  1  0.75700850  0.26894750  0.21414000  1
  N  2035  1  0.82628100  0.32526350  0.25746850  1
  N  2039  1  0.83889250  0.30763850  0.30240300  1
  N  2051  1  0.77725100  0.71421900  0.74875000  1
  N  2054  1  0.83359350  0.75752050  0.81801400  1
  N  2058  1  0.81602500  0.80249850  0.83065550  1
  N  2070  1  0.97394750  0.52033050  0.75133300  1
  N  2073  1  0.94784400  0.50730400  0.68203400  1
  N  2077  1  0.98018250  0.47711150  0.66935600  1
  N  2089  1  0.73920600  0.97963500  0.44521300  1
  N  2092  1  0.68289550  0.99260300  0.43219750  1
  N  2096  1  0.70048100  0.02281500  0.49474800  1
  N  2108  1  0.54283500  0.78581400  0.05477400  1
  N  2111  1  0.56882850  0.74252650  0.06779100  1
  N  2115  1  0.53657550  0.69761050  0.00523100  1
  N  2127  1  0.02850700  0.25123650  0.96549650  1
  N  2130  1  0.01556550  0.18196700  0.93952050  1
  N  2134  1  0.98537750  0.16933500  0.97187550  1
  N  2146  1  0.22257600  0.24864950  0.76899350  1
  N  2149  1  0.26576500  0.31795300  0.82525500  1
  N  2153  1  0.31079400  0.33062200  0.80775400  1
  N  2165  1  0.29400050  0.55478750  0.53446200  1
  N  2168  1  0.25074300  0.56781750  0.56049850  1
  N  2172  1  0.20579100  0.50526550  0.52820150  1
  N  2184  1  0.48804150  0.94521050  0.73105500  1
  N  2187  1  0.50102700  0.93223050  0.67475550  1
  N  2191  1  0.53126900  0.99479100  0.69238800  1
  N  2203  1  0.56302500  0.28576850  0.03453150  1
  N  2206  1  0.57607700  0.24248250  0.06051250  1
  N  2210  1  0.51353150  0.19751100  0.02820150  1
  N  2222  1  0.95360400  0.47969450  0.23100550  1
  N  2225  1  0.94051800  0.49270300  0.17472300  1
  N  2229  1  0.00305000  0.52289350  0.19223050  1
  N  2241  1  0.25954050  0.02032550  0.46551100  1
  N  2244  1  0.19026900  0.00737500  0.43953400  1
  N  2248  1  0.17763700  0.97717100  0.47187800  1
  N  2260  1  0.25700500  0.21420050  0.26895250  1
  N  2263  1  0.32629250  0.25747950  0.32525300  1
  N  2267  1  0.33896450  0.30239000  0.30760150  1
  N  2279  1  0.27725400  0.74873900  0.71424300  1
  N  2282  1  0.33357850  0.81800900  0.75753550  1
  N  2286  1  0.31601950  0.83064050  0.80252100  1
  N  2298  1  0.47394750  0.75136050  0.52036400  1
  N  2301  1  0.44782250  0.68205000  0.50730350  1
  N  2305  1  0.48017850  0.66938500  0.47712650  1
  N  2317  1  0.23922100  0.44519050  0.97969450  1
  N  2320  1  0.18291800  0.43216250  0.99267450  1
  N  2324  1  0.20050250  0.49471050  0.02290700  1
  N  2336  1  0.04283900  0.05478200  0.78583700  1
  N  2339  1  0.06879650  0.06776900  0.74251450  1
  N  2343  1  0.03648500  0.00520700  0.69758700  1
  N  2355  1  0.52849000  0.96546450  0.25125850  1
  N  2358  1  0.51556700  0.93950300  0.18199600  1
  N  2362  1  0.48535800  0.97184000  0.16935400  1
  N  2374  1  0.72260850  0.76900100  0.24865750  1
  N  2377  1  0.76580350  0.82526650  0.31796000  1
  N  2381  1  0.81081550  0.80774550  0.33063500  1
  N  2393  1  0.79400450  0.53443600  0.55479050  1
  N  2396  1  0.75070550  0.56041350  0.56780800  1
  N  2400  1  0.70574100  0.52807600  0.50525700  1
  N  2412  1  0.98807400  0.73103850  0.94522950  1
  N  2415  1  0.00104200  0.67472800  0.93221000  1
  N  2419  1  0.03135200  0.69237200  0.99477000  1
