# generated using pymatgen
data_H20C37N8
_symmetry_space_group_name_H-M   'P 1'
_cell_length_a   31.64020000
_cell_length_b   45.07270000
_cell_length_c   45.07270000
_cell_angle_alpha   60.00000000
_cell_angle_beta   90.00360000
_cell_angle_gamma   90.00000000
_symmetry_Int_Tables_number   1
_chemical_formula_structural   H20C37N8
_chemical_formula_sum   'H240 C444 N96'
_cell_volume   55666.89522574
_cell_formula_units_Z   12
loop_
 _symmetry_equiv_pos_site_id
 _symmetry_equiv_pos_as_xyz
  1  'x, y, z'
loop_
 _atom_site_type_symbol
 _atom_site_label
 _atom_site_symmetry_multiplicity
 _atom_site_fract_x
 _atom_site_fract_y
 _atom_site_fract_z
 _atom_site_occupancy
  H  25  1  0.63498400  0.49275900  0.49754900  1
  H  26  1  0.85552800  0.49247100  0.49783800  1
  H  27  1  0.83768500  0.44053800  0.44172000  1
  H  28  1  0.65285300  0.44059700  0.44166300  1
  H  29  1  0.74436300  0.38154800  0.51021300  1
  H  30  1  0.74687500  0.51145000  0.38418800  1
  H  36  1  0.57866300  0.45003200  0.45853500  1
  H  37  1  0.91188300  0.44983800  0.45877400  1
  H  38  1  0.74215800  0.55180200  0.32339600  1
  H  39  1  0.74981300  0.31930800  0.54810400  1
  H  40  1  0.20848200  0.49270000  0.49377900  1
  H  41  1  0.28204700  0.49287500  0.49361900  1
  H  45  1  0.99913100  0.45607400  0.47562700  1
  H  50  1  0.49137200  0.45608000  0.47560100  1
  H  56  1  0.71570400  0.58960300  0.22416600  1
  H  59  1  0.75350100  0.31537500  0.46912300  1
  H  60  1  0.75013000  0.36339000  0.41256700  1
  H  61  1  0.73793900  0.41823700  0.35948800  1
  H  62  1  0.73481400  0.47579400  0.31370600  1
  H  87  1  0.63374100  0.99712100  0.49490800  1
  H  88  1  0.70721900  0.98877100  0.49968800  1
  H  89  1  0.78078900  0.98876500  0.49984300  1
  H  90  1  0.85428800  0.99734300  0.49502000  1
  H  91  1  0.83610700  0.10533100  0.44299900  1
  H  92  1  0.65134900  0.10522400  0.44304600  1
  H  93  1  0.73949300  0.09566800  0.38426600  1
  H  94  1  0.75828200  0.20196700  0.31765300  1
  H  95  1  0.75889300  0.21084100  0.36560200  1
  H  96  1  0.73945400  0.09204800  0.51363600  1
  H  97  1  0.76016000  0.20910900  0.42117600  1
  H  98  1  0.76054100  0.19714500  0.47890100  1
  H  104  1  0.57721800  0.07870800  0.45224900  1
  H  105  1  0.91031100  0.07923100  0.45214200  1
  H  106  1  0.74690900  0.11191700  0.55428100  1
  H  107  1  0.74649100  0.11895700  0.32258900  1
  H  108  1  0.70847800  0.49749200  0.50126000  1
  H  109  1  0.78204000  0.49730500  0.50143900  1
  H  134  1  0.63491700  0.49542600  0.99968000  1
  H  135  1  0.70842700  0.49900800  0.99128900  1
  H  136  1  0.78202500  0.49887500  0.99137500  1
  H  137  1  0.85550100  0.49511800  0.99989900  1
  H  138  1  0.83745500  0.43966700  0.10794200  1
  H  139  1  0.65267900  0.43989500  0.10775000  1
  H  140  1  0.74692300  0.50847600  0.09778300  1
  H  141  1  0.73588500  0.46842600  0.20480700  1
  H  142  1  0.73818100  0.41159700  0.21384800  1
  H  143  1  0.74431000  0.38209100  0.09483600  1
  H  144  1  0.75010900  0.35809200  0.21262700  1
  H  145  1  0.75422600  0.31219800  0.20117600  1
  H  151  1  0.57853300  0.45666400  0.08139700  1
  H  152  1  0.91170300  0.45632400  0.08168700  1
  H  153  1  0.74944500  0.32124200  0.11565700  1
  H  154  1  0.74202900  0.54678300  0.12130100  1
  H  179  1  0.13375100  0.99318700  0.49999500  1
  H  180  1  0.20723400  0.00153000  0.49521300  1
  H  181  1  0.28081100  0.00152000  0.49513400  1
  H  182  1  0.35430900  0.99292900  0.49998900  1
  H  183  1  0.33610400  0.88494400  0.55203800  1
  H  184  1  0.15135500  0.88507900  0.55197800  1
  H  185  1  0.23957900  0.89458500  0.61078200  1
  H  186  1  0.25830500  0.78826900  0.67731000  1
  H  187  1  0.25876600  0.77942800  0.62935300  1
  H  188  1  0.23950600  0.89824900  0.48133300  1
  H  189  1  0.26000800  0.78117300  0.57382400  1
  H  190  1  0.26049800  0.79313800  0.51611400  1
  H  196  1  0.07723800  0.91157900  0.54269600  1
  H  197  1  0.41031400  0.91102100  0.54286700  1
  H  198  1  0.24694900  0.87834000  0.44069900  1
  H  199  1  0.24668700  0.87120000  0.67252000  1
  H  224  1  0.13499000  0.49743200  0.49748600  1
  H  225  1  0.35553500  0.49770700  0.49722800  1
  H  226  1  0.33768800  0.54962400  0.55336000  1
  H  227  1  0.15285700  0.54955700  0.55341000  1
  H  228  1  0.24440500  0.60863600  0.48485300  1
  H  229  1  0.25354800  0.67475500  0.52598800  1
  H  230  1  0.25011600  0.62675100  0.58252800  1
  H  231  1  0.24689800  0.47870400  0.61089200  1
  H  232  1  0.23787200  0.57191700  0.63558500  1
  H  233  1  0.23476500  0.51435700  0.68136900  1
  H  239  1  0.07866600  0.54012400  0.53653400  1
  H  240  1  0.41188500  0.54034200  0.53629600  1
  H  241  1  0.24217000  0.43835200  0.67169500  1
  H  242  1  0.24992600  0.67090500  0.44697600  1
  H  267  1  0.13494000  0.49470100  0.99547800  1
  H  268  1  0.20845700  0.49110700  0.00385900  1
  H  269  1  0.28206600  0.49126900  0.00375500  1
  H  270  1  0.35553900  0.49505800  0.99520800  1
  H  271  1  0.33742200  0.55049000  0.88716900  1
  H  272  1  0.15265800  0.55025200  0.88740700  1
  H  273  1  0.24693600  0.48165500  0.89734400  1
  H  274  1  0.23574200  0.52171300  0.79032900  1
  H  275  1  0.23799800  0.57854000  0.78129500  1
  H  276  1  0.24433200  0.60806000  0.90029500  1
  H  277  1  0.24990100  0.63203400  0.78251000  1
  H  278  1  0.25411700  0.67789600  0.79396400  1
  H  284  1  0.07853000  0.53332200  0.91378900  1
  H  285  1  0.41168900  0.53378900  0.91341000  1
  H  286  1  0.24956900  0.66892200  0.87944800  1
  H  287  1  0.24203100  0.44335000  0.87380600  1
  H  294  1  0.99766500  0.05639600  0.45824700  1
  H  295  1  0.99032800  0.93456200  0.53649400  1
  H  301  1  0.99138200  0.53408700  0.51947200  1
  H  309  1  0.99900800  0.47322600  0.05861200  1
  H  310  1  0.99133100  0.51671800  0.93681400  1
  H  319  1  0.49769900  0.93389900  0.53688300  1
  H  320  1  0.49031600  0.05570500  0.45852500  1
  H  326  1  0.49914400  0.53409900  0.51943300  1
  H  334  1  0.49906800  0.51707000  0.93649200  1
  H  335  1  0.49127400  0.47337300  0.05832200  1
  H  344  1  0.71123100  0.22746100  0.27099100  1
  H  345  1  0.77073600  0.22124200  0.17630400  1
  H  352  1  0.71090400  0.26712400  0.49153600  1
  H  353  1  0.77050500  0.17341700  0.59309300  1
  H  359  1  0.78182600  0.49149700  0.22891900  1
  H  367  1  0.21169300  0.76254300  0.72404100  1
  H  368  1  0.27012800  0.76906700  0.81887800  1
  H  377  1  0.21118400  0.72309100  0.50363000  1
  H  378  1  0.27014700  0.81683300  0.40180400  1
  H  387  1  0.28172400  0.49872100  0.76615300  1
  H  388  1  0.21582100  0.40052900  0.77093200  1
  H  415  1  0.75003400  0.82716800  0.83034400  1
  H  416  1  0.97057780  0.82688000  0.83063300  1
  H  417  1  0.95273480  0.77494700  0.77451500  1
  H  418  1  0.76790300  0.77500600  0.77445800  1
  H  419  1  0.85941300  0.71595700  0.84300800  1
  H  420  1  0.86192500  0.84585900  0.71698300  1
  H  426  1  0.69371300  0.78444100  0.79133000  1
  H  427  1  0.02693300  0.78424700  0.79156900  1
  H  428  1  0.85720800  0.88621100  0.65619100  1
  H  429  1  0.86486300  0.65371700  0.88089900  1
  H  430  1  0.32353200  0.82710900  0.82657400  1
  H  431  1  0.39709700  0.82728400  0.82641400  1
  H  435  1  0.11418100  0.79048300  0.80842200  1
  H  440  1  0.60642200  0.79048900  0.80839600  1
  H  446  1  0.83075400  0.92401160  0.55696140  1
  H  449  1  0.86855100  0.64978400  0.80191800  1
  H  450  1  0.86518000  0.69779900  0.74536200  1
  H  451  1  0.85298900  0.75264600  0.69228300  1
  H  452  1  0.84986400  0.81020300  0.64650100  1
  H  477  1  0.74879100  0.33153000  0.82770300  1
  H  478  1  0.82226900  0.32318000  0.83248300  1
  H  479  1  0.89583900  0.32317400  0.83263800  1
  H  480  1  0.96933780  0.33175200  0.82781500  1
  H  481  1  0.95115680  0.43974000  0.77579400  1
  H  482  1  0.76639900  0.43963300  0.77584100  1
  H  483  1  0.85454300  0.43007700  0.71706100  1
  H  484  1  0.87333200  0.53637600  0.65044800  1
  H  485  1  0.87394300  0.54525000  0.69839700  1
  H  486  1  0.85450400  0.42645700  0.84643100  1
  H  487  1  0.87521000  0.54351800  0.75397100  1
  H  488  1  0.87559100  0.53155400  0.81169600  1
  H  494  1  0.69226800  0.41311700  0.78504400  1
  H  495  1  0.02536100  0.41364000  0.78493700  1
  H  496  1  0.86195900  0.44632600  0.88707600  1
  H  497  1  0.86154100  0.45336600  0.65538400  1
  H  498  1  0.82352800  0.83190100  0.83405500  1
  H  499  1  0.89709000  0.83171400  0.83423400  1
  H  524  1  0.74996700  0.82983500  0.33247500  1
  H  525  1  0.82347700  0.83341700  0.32408400  1
  H  526  1  0.89707500  0.83328400  0.32417000  1
  H  527  1  0.97055080  0.82952700  0.33269400  1
  H  528  1  0.95250480  0.77407600  0.44073700  1
  H  529  1  0.76772900  0.77430400  0.44054500  1
  H  530  1  0.86197300  0.84288500  0.43057800  1
  H  531  1  0.85093500  0.80283500  0.53760200  1
  H  532  1  0.85323100  0.74600600  0.54664300  1
  H  533  1  0.85936000  0.71650000  0.42763100  1
  H  534  1  0.86515900  0.69250100  0.54542200  1
  H  535  1  0.86927600  0.64660700  0.53397100  1
  H  541  1  0.69358300  0.79107300  0.41419200  1
  H  542  1  0.02675300  0.79073300  0.41448200  1
  H  543  1  0.86449500  0.65565100  0.44845200  1
  H  544  1  0.85707900  0.88119200  0.45409600  1
  H  569  1  0.24880100  0.32759600  0.83279000  1
  H  570  1  0.32228400  0.33593900  0.82800800  1
  H  571  1  0.39586100  0.33592900  0.82792900  1
  H  572  1  0.46935900  0.32733800  0.83278400  1
  H  573  1  0.45115400  0.21935300  0.88483300  1
  H  574  1  0.26640500  0.21948800  0.88477300  1
  H  575  1  0.35462900  0.22899400  0.94357700  1
  H  576  1  0.37335500  0.12267800  0.01010500  1
  H  577  1  0.37381600  0.11383700  0.96214800  1
  H  578  1  0.35455600  0.23265800  0.81412800  1
  H  579  1  0.37505800  0.11558200  0.90661900  1
  H  580  1  0.37554800  0.12754700  0.84890930  1
  H  586  1  0.19228800  0.24598800  0.87549100  1
  H  587  1  0.52536400  0.24543000  0.87566200  1
  H  588  1  0.36199900  0.21274900  0.77349430  1
  H  589  1  0.36173700  0.20560900  0.00531500  1
  H  614  1  0.25004000  0.83184100  0.83028100  1
  H  615  1  0.47058500  0.83211600  0.83002300  1
  H  616  1  0.45273800  0.88403300  0.88615500  1
  H  617  1  0.26790700  0.88396600  0.88620500  1
  H  618  1  0.35945500  0.94304460  0.81764840  1
  H  619  1  0.36859800  0.00916400  0.85878300  1
  H  620  1  0.36516600  0.96115960  0.91532340  1
  H  621  1  0.36194800  0.81311300  0.94368700  1
  H  622  1  0.35292200  0.90632560  0.96838040  1
  H  623  1  0.34981500  0.84876600  0.01416400  1
  H  629  1  0.19371600  0.87453300  0.86932900  1
  H  630  1  0.52693500  0.87475100  0.86909100  1
  H  631  1  0.35722000  0.77276100  0.00449000  1
  H  632  1  0.36497600  0.00531400  0.77977100  1
  H  657  1  0.24999000  0.82911000  0.32827300  1
  H  658  1  0.32350700  0.82551600  0.33665400  1
  H  659  1  0.39711600  0.82567800  0.33655000  1
  H  660  1  0.47058900  0.82946700  0.32800300  1
  H  661  1  0.45247200  0.88489900  0.21996400  1
  H  662  1  0.26770800  0.88466100  0.22020200  1
  H  663  1  0.36198600  0.81606400  0.23013900  1
  H  664  1  0.35079200  0.85612200  0.12312430  1
  H  665  1  0.35304800  0.91294860  0.11409040  1
  H  666  1  0.35938200  0.94246860  0.23309040  1
  H  667  1  0.36495100  0.96644260  0.11530540  1
  H  668  1  0.36916700  0.01230500  0.12675900  1
  H  674  1  0.19358000  0.86773100  0.24658400  1
  H  675  1  0.52673900  0.86819800  0.24620500  1
  H  676  1  0.36461900  0.00333100  0.21224300  1
  H  677  1  0.35708100  0.77775900  0.20660130  1
  H  684  1  0.11271500  0.39080500  0.79104200  1
  H  685  1  0.10537800  0.26897100  0.86928900  1
  H  691  1  0.10643200  0.86849600  0.85226700  1
  H  699  1  0.11405800  0.80763500  0.39140700  1
  H  700  1  0.10638100  0.85112700  0.26960900  1
  H  709  1  0.61274900  0.26830800  0.86967800  1
  H  710  1  0.60536600  0.39011400  0.79132000  1
  H  716  1  0.61419400  0.86850800  0.85222800  1
  H  724  1  0.61411800  0.85147900  0.26928700  1
  H  725  1  0.60632400  0.80778200  0.39111700  1
  H  734  1  0.82628100  0.56187000  0.60378600  1
  H  735  1  0.88578600  0.55565100  0.50909900  1
  H  742  1  0.82595400  0.60153300  0.82433100  1
  H  743  1  0.88555500  0.50782600  0.92588800  1
  H  749  1  0.89687600  0.82590600  0.56171400  1
  H  757  1  0.32674300  0.09695200  0.05683600  1
  H  758  1  0.38517800  0.10347600  0.15167300  1
  H  767  1  0.32623400  0.05750000  0.83642500  1
  H  768  1  0.38519700  0.15124200  0.73459900  1
  H  777  1  0.39677400  0.83313000  0.09894830  1
  H  778  1  0.33087100  0.73493800  0.10372700  1
  C  1  1  0.74515300  0.45787100  0.40596300  1
  C  2  1  0.74416900  0.43136600  0.39836200  1
  C  3  1  0.74537300  0.40024000  0.42856200  1
  C  4  1  0.74517400  0.40599100  0.45632300  1
  C  5  1  0.74517800  0.37731400  0.48993800  1
  C  6  1  0.74667600  0.34320000  0.49554100  1
  C  7  1  0.74965900  0.33897000  0.46649400  1
  C  8  1  0.74821900  0.36714000  0.43308500  1
  C  9  1  0.74060400  0.43783800  0.36458800  1
  C  10  1  0.73934300  0.47192300  0.33765700  1
  C  11  1  0.74335700  0.49977100  0.34371300  1
  C  12  1  0.74543400  0.49214900  0.37851500  1
  C  13  1  0.70867000  0.45543400  0.45657300  1
  C  14  1  0.72362000  0.47191100  0.47379000  1
  C  15  1  0.76691200  0.47186400  0.47382900  1
  C  16  1  0.78186400  0.45538000  0.45661500  1
  C  17  1  0.79353000  0.48552500  0.48877500  1
  C  18  1  0.83699900  0.48248000  0.48636400  1
  C  19  1  0.85456100  0.46619900  0.46905600  1
  C  20  1  0.82625900  0.45255800  0.45420000  1
  C  21  1  0.66427500  0.45264800  0.45411400  1
  C  22  1  0.63596300  0.46634400  0.46890500  1
  C  23  1  0.65352000  0.48269100  0.48615200  1
  C  24  1  0.69699300  0.48566600  0.48863800  1
  C  31  1  0.74525900  0.44362700  0.44391500  1
  C  32  1  0.89848600  0.46373600  0.46769200  1
  C  33  1  0.59204100  0.46385000  0.46755400  1
  C  34  1  0.74369300  0.53380500  0.31685800  1
  C  35  1  0.74684700  0.31489600  0.52871600  1
  C  42  1  0.99721600  0.47273700  0.48471500  1
  C  44  1  0.95838300  0.48655300  0.48704600  1
  C  47  1  0.53213000  0.48653500  0.48704500  1
  C  48  1  0.49329400  0.47273000  0.48470300  1
  C  54  1  0.74647100  0.54225100  0.25684200  1
  C  55  1  0.72949200  0.56834400  0.22575200  1
  C  58  1  0.74209200  0.25307900  0.53864400  1
  C  63  1  0.74495100  0.12372000  0.46022500  1
  C  64  1  0.74993500  0.15760800  0.43382700  1
  C  65  1  0.74974800  0.15850200  0.40265000  1
  C  66  1  0.74489000  0.12516200  0.40844400  1
  C  67  1  0.74308500  0.12009500  0.37989100  1
  C  68  1  0.74644700  0.14830400  0.34573000  1
  C  69  1  0.75322200  0.18135100  0.34133700  1
  C  70  1  0.75424300  0.18673400  0.36945800  1
  C  71  1  0.75510900  0.18462000  0.44057800  1
  C  72  1  0.75454800  0.17742100  0.47471500  1
  C  73  1  0.74716500  0.14383600  0.50228800  1
  C  74  1  0.74325700  0.11688500  0.49447500  1
  C  75  1  0.70720500  0.07555300  0.45783400  1
  C  76  1  0.72221300  0.04184600  0.47429800  1
  C  77  1  0.76549500  0.04178800  0.47433500  1
  C  78  1  0.78036500  0.07547600  0.45786600  1
  C  79  1  0.79221100  0.01323100  0.48802600  1
  C  80  1  0.83567900  0.01876500  0.48499700  1
  C  81  1  0.85313600  0.05239200  0.46867300  1
  C  82  1  0.82474800  0.08080900  0.45503000  1
  C  83  1  0.66282200  0.08073900  0.45504600  1
  C  84  1  0.63460100  0.05218800  0.46870300  1
  C  85  1  0.65221800  0.01861200  0.48493000  1
  C  86  1  0.69568100  0.01320300  0.48794700  1
  C  99  1  0.74380800  0.09998700  0.44605500  1
  C  100  1  0.89702600  0.05638700  0.46615300  1
  C  101  1  0.59068200  0.05594500  0.46630600  1
  C  102  1  0.74587400  0.13650600  0.53636600  1
  C  103  1  0.74513900  0.14299800  0.31770600  1
  C  110  1  0.74487300  0.40413100  0.12642700  1
  C  111  1  0.74495500  0.39676100  0.16047000  1
  C  112  1  0.74388600  0.42708800  0.16117600  1
  C  113  1  0.74493600  0.45466100  0.12758400  1
  C  114  1  0.74547200  0.48836800  0.12236100  1
  C  115  1  0.74373300  0.49430400  0.15065400  1
  C  116  1  0.73984600  0.46550100  0.18400400  1
  C  117  1  0.74067000  0.43196100  0.18953200  1
  C  118  1  0.74805900  0.36305400  0.18794700  1
  C  119  1  0.74986500  0.33598300  0.18100600  1
  C  120  1  0.74681000  0.34181600  0.14712100  1
  C  121  1  0.74504700  0.37655800  0.11978500  1
  C  122  1  0.70851000  0.45465200  0.07803200  1
  C  123  1  0.72350900  0.47169100  0.04435300  1
  C  124  1  0.76680100  0.47162000  0.04441200  1
  C  125  1  0.78169200  0.45452400  0.07813100  1
  C  126  1  0.79347100  0.48633500  0.01583600  1
  C  127  1  0.83693100  0.48382800  0.02134600  1
  C  128  1  0.85443100  0.46668100  0.05496400  1
  C  129  1  0.82607600  0.45203800  0.08342600  1
  C  130  1  0.66412100  0.45225600  0.08325300  1
  C  131  1  0.63585000  0.46695900  0.05474400  1
  C  132  1  0.65343500  0.48408700  0.02115800  1
  C  133  1  0.69691300  0.48649400  0.01572700  1
  C  146  1  0.74504200  0.44203100  0.10253800  1
  C  147  1  0.89834700  0.46527800  0.05885000  1
  C  148  1  0.59193100  0.46560000  0.05857900  1
  C  149  1  0.74717600  0.31482500  0.14013000  1
  C  150  1  0.74414000  0.52765400  0.14531000  1
  C  155  1  0.24491700  0.86657800  0.53475500  1
  C  156  1  0.24982800  0.83268500  0.56115700  1
  C  157  1  0.24968000  0.83178600  0.59233300  1
  C  158  1  0.24487200  0.86512400  0.58655700  1
  C  159  1  0.24312100  0.87016400  0.61513400  1
  C  160  1  0.24648400  0.84193300  0.64928600  1
  C  161  1  0.25318800  0.80889000  0.65364700  1
  C  162  1  0.25414900  0.80353200  0.62551400  1
  C  163  1  0.25498600  0.80566400  0.55441900  1
  C  164  1  0.25448400  0.81285900  0.52028400  1
  C  165  1  0.24717000  0.84645100  0.49269600  1
  C  166  1  0.24326100  0.87340700  0.50050400  1
  C  167  1  0.20721200  0.91474700  0.53715500  1
  C  168  1  0.22222400  0.94845200  0.52067600  1
  C  169  1  0.26550800  0.94850100  0.52063300  1
  C  170  1  0.28036800  0.91480700  0.53713000  1
  C  171  1  0.29223000  0.97705400  0.50695200  1
  C  172  1  0.33569700  0.97151000  0.51000400  1
  C  173  1  0.35314600  0.93788000  0.52634700  1
  C  174  1  0.32475200  0.90946800  0.53998600  1
  C  175  1  0.16282800  0.90956400  0.53995500  1
  C  176  1  0.13461100  0.93811500  0.52628000  1
  C  177  1  0.15223100  0.97169200  0.51000000  1
  C  178  1  0.19569500  0.97710000  0.50698300  1
  C  191  1  0.24380400  0.89030500  0.54894100  1
  C  192  1  0.39703600  0.93387800  0.52890900  1
  C  193  1  0.09069500  0.93435600  0.52871600  1
  C  194  1  0.24589600  0.85375600  0.45862200  1
  C  195  1  0.24523900  0.84718100  0.67735000  1
  C  200  1  0.24514100  0.53228500  0.58911100  1
  C  201  1  0.24413000  0.55878500  0.59671600  1
  C  202  1  0.24533700  0.58991400  0.56651800  1
  C  203  1  0.24515700  0.58417600  0.53874900  1
  C  204  1  0.24519800  0.61285800  0.50513700  1
  C  205  1  0.24670200  0.64696900  0.49954600  1
  C  206  1  0.24965700  0.65118900  0.52860300  1
  C  207  1  0.24818200  0.62301100  0.56200700  1
  C  208  1  0.24050800  0.55231600  0.63048400  1
  C  209  1  0.23929700  0.51823100  0.65741900  1
  C  210  1  0.24334900  0.49038600  0.65136300  1
  C  211  1  0.24543500  0.49800700  0.61656000  1
  C  212  1  0.20867200  0.53473300  0.53848900  1
  C  213  1  0.22362400  0.51826500  0.52126500  1
  C  214  1  0.26691700  0.51831200  0.52123300  1
  C  215  1  0.28186600  0.53478700  0.53845700  1
  C  216  1  0.29353500  0.50466400  0.50627500  1
  C  217  1  0.33700500  0.50769900  0.50870000  1
  C  218  1  0.35456500  0.52397400  0.52601800  1
  C  219  1  0.32626300  0.53760900  0.54087500  1
  C  220  1  0.16427900  0.53751900  0.54094600  1
  C  221  1  0.13597000  0.52382900  0.52614700  1
  C  222  1  0.15352700  0.50749200  0.50889100  1
  C  223  1  0.19699700  0.50451800  0.50640900  1
  C  234  1  0.24525800  0.54653700  0.55115500  1
  C  235  1  0.39849300  0.52643200  0.52738900  1
  C  236  1  0.09204800  0.52631800  0.52750500  1
  C  237  1  0.24370000  0.45635400  0.67822700  1
  C  238  1  0.24690800  0.67529100  0.46637900  1
  C  243  1  0.24482800  0.58600500  0.86871600  1
  C  244  1  0.24489500  0.59336500  0.83467600  1
  C  245  1  0.24376600  0.56304000  0.83396900  1
  C  246  1  0.24487600  0.53546700  0.86755900  1
  C  247  1  0.24543800  0.50176300  0.87277200  1
  C  248  1  0.24367100  0.49583200  0.84447400  1
  C  249  1  0.23972100  0.52463600  0.81113100  1
  C  250  1  0.24051400  0.55817500  0.80560900  1
  C  251  1  0.24786500  0.62707400  0.80718500  1
  C  252  1  0.24974900  0.65415000  0.81411900  1
  C  253  1  0.24677800  0.64832700  0.84800700  1
  C  254  1  0.24502700  0.61358800  0.87534700  1
  C  255  1  0.20850100  0.53548100  0.91711600  1
  C  256  1  0.22351700  0.51843400  0.95079100  1
  C  257  1  0.26680700  0.51851200  0.95072100  1
  C  258  1  0.28168000  0.53560900  0.91699800  1
  C  259  1  0.29349700  0.50380600  0.97929000  1
  C  260  1  0.33695500  0.50633100  0.97376700  1
  C  261  1  0.35443200  0.52347700  0.94014400  1
  C  262  1  0.32606000  0.53811100  0.91168900  1
  C  263  1  0.16410800  0.53788300  0.91190000  1
  C  264  1  0.13585000  0.52318100  0.94041600  1
  C  265  1  0.15345100  0.50604100  0.97400000  1
  C  266  1  0.19693300  0.50363000  0.97942200  1
  C  279  1  0.24501500  0.54810200  0.89260200  1
  C  280  1  0.39834800  0.52491800  0.93623700  1
  C  281  1  0.09193100  0.52457100  0.93658100  1
  C  282  1  0.24721400  0.67533400  0.85497900  1
  C  283  1  0.24411400  0.46248700  0.84980300  1
  C  288  1  0.99584800  0.03065200  0.47495700  1
  C  290  1  0.03091100  0.97652900  0.50586300  1
  C  291  1  0.99215600  0.96030800  0.51978900  1
  C  293  1  0.95708900  0.01442500  0.48889800  1
  C  298  1  0.03213400  0.50363200  0.50802000  1
  C  299  1  0.99329800  0.51743000  0.51037700  1
  C  303  1  0.99710900  0.48223900  0.03287500  1
  C  305  1  0.03204800  0.50539900  0.97870600  1
  C  306  1  0.99322900  0.50770000  0.96255300  1
  C  308  1  0.95829100  0.48451100  0.01673100  1
  C  313  1  0.49586900  0.95964000  0.52015700  1
  C  315  1  0.53090100  0.01377900  0.48926500  1
  C  316  1  0.49215000  0.02996800  0.47527000  1
  C  318  1  0.45710500  0.97584900  0.50620500  1
  C  323  1  0.49722200  0.51743400  0.51034900  1
  C  325  1  0.45838600  0.50361700  0.50802600  1
  C  328  1  0.49714000  0.50799900  0.96223700  1
  C  330  1  0.53204500  0.48483600  0.01642700  1
  C  331  1  0.49319600  0.48242900  0.03257800  1
  C  333  1  0.45829700  0.50563000  0.97838100  1
  C  338  1  0.72491000  0.22590800  0.25132700  1
  C  340  1  0.74340400  0.25462300  0.19163300  1
  C  341  1  0.75823000  0.22309400  0.19622800  1
  C  343  1  0.74198400  0.19486000  0.25616100  1
  C  348  1  0.72462300  0.24768900  0.51288300  1
  C  350  1  0.74275000  0.18801500  0.54468700  1
  C  351  1  0.75800900  0.19315600  0.57117700  1
  C  355  1  0.76664200  0.51201300  0.22775200  1
  C  358  1  0.74751800  0.53732700  0.19717700  1
  C  361  1  0.22511900  0.76418400  0.74373700  1
  C  363  1  0.24330200  0.73556600  0.80349300  1
  C  364  1  0.25782400  0.76716000  0.79892500  1
  C  366  1  0.24190200  0.79530500  0.73893000  1
  C  371  1  0.22475200  0.74252200  0.48222500  1
  C  373  1  0.24273600  0.80222700  0.45031900  1
  C  374  1  0.25775200  0.79709500  0.42376000  1
  C  376  1  0.24204400  0.73713700  0.45640900  1
  C  381  1  0.26659500  0.47818300  0.76732800  1
  C  383  1  0.24654800  0.44789700  0.73825700  1
  C  384  1  0.22959400  0.42179000  0.76934900  1
  C  386  1  0.24754600  0.45283100  0.79791900  1
  C  391  1  0.86020300  0.79228000  0.73875800  1
  C  392  1  0.85921900  0.76577500  0.73115700  1
  C  393  1  0.86042300  0.73464900  0.76135700  1
  C  394  1  0.86022400  0.74040000  0.78911800  1
  C  395  1  0.86022800  0.71172300  0.82273300  1
  C  396  1  0.86172600  0.67760900  0.82833600  1
  C  397  1  0.86470900  0.67337900  0.79928900  1
  C  398  1  0.86326900  0.70154900  0.76588000  1
  C  399  1  0.85565400  0.77224700  0.69738300  1
  C  400  1  0.85439300  0.80633200  0.67045200  1
  C  401  1  0.85840700  0.83418000  0.67650800  1
  C  402  1  0.86048400  0.82655800  0.71131000  1
  C  403  1  0.82372000  0.78984300  0.78936800  1
  C  404  1  0.83867000  0.80632000  0.80658500  1
  C  405  1  0.88196200  0.80627300  0.80662400  1
  C  406  1  0.89691400  0.78978900  0.78941000  1
  C  407  1  0.90857980  0.81993400  0.82157000  1
  C  408  1  0.95204880  0.81688900  0.81915900  1
  C  409  1  0.96961080  0.80060800  0.80185100  1
  C  410  1  0.94130880  0.78696700  0.78699500  1
  C  411  1  0.77932500  0.78705700  0.78690900  1
  C  412  1  0.75101300  0.80075300  0.80170000  1
  C  413  1  0.76857000  0.81710000  0.81894700  1
  C  414  1  0.81204300  0.82007500  0.82143300  1
  C  421  1  0.86030900  0.77803600  0.77671000  1
  C  422  1  0.01353600  0.79814500  0.80048700  1
  C  423  1  0.70709100  0.79825900  0.80034900  1
  C  424  1  0.85874300  0.86821400  0.64965300  1
  C  425  1  0.86189700  0.64930500  0.86151100  1
  C  432  1  0.11226600  0.80714600  0.81751000  1
  C  434  1  0.07343300  0.82096200  0.81984100  1
  C  437  1  0.64718000  0.82094400  0.81984000  1
  C  438  1  0.60834400  0.80713900  0.81749800  1
  C  444  1  0.86152100  0.87666000  0.58963700  1
  C  445  1  0.84454200  0.90275260  0.55854740  1
  C  448  1  0.85714200  0.58748800  0.87143900  1
  C  453  1  0.86000100  0.45812900  0.79302000  1
  C  454  1  0.86498500  0.49201700  0.76662200  1
  C  455  1  0.86479800  0.49291100  0.73544500  1
  C  456  1  0.85994000  0.45957100  0.74123900  1
  C  457  1  0.85813500  0.45450400  0.71268600  1
  C  458  1  0.86149700  0.48271300  0.67852500  1
  C  459  1  0.86827200  0.51576000  0.67413200  1
  C  460  1  0.86929300  0.52114300  0.70225300  1
  C  461  1  0.87015900  0.51902900  0.77337300  1
  C  462  1  0.86959800  0.51183000  0.80751000  1
  C  463  1  0.86221500  0.47824500  0.83508300  1
  C  464  1  0.85830700  0.45129400  0.82727000  1
  C  465  1  0.82225500  0.40996200  0.79062900  1
  C  466  1  0.83726300  0.37625500  0.80709300  1
  C  467  1  0.88054500  0.37619700  0.80713000  1
  C  468  1  0.89541500  0.40988500  0.79066100  1
  C  469  1  0.90726080  0.34764000  0.82082100  1
  C  470  1  0.95072880  0.35317400  0.81779200  1
  C  471  1  0.96818580  0.38680100  0.80146800  1
  C  472  1  0.93979780  0.41521800  0.78782500  1
  C  473  1  0.77787200  0.41514800  0.78784100  1
  C  474  1  0.74965100  0.38659700  0.80149800  1
  C  475  1  0.76726800  0.35302100  0.81772500  1
  C  476  1  0.81073100  0.34761200  0.82074200  1
  C  489  1  0.85885800  0.43439600  0.77885000  1
  C  490  1  0.01207600  0.39079600  0.79894800  1
  C  491  1  0.70573200  0.39035400  0.79910100  1
  C  492  1  0.86092400  0.47091500  0.86916100  1
  C  493  1  0.86018900  0.47740700  0.65050100  1
  C  500  1  0.85992300  0.73854000  0.45922200  1
  C  501  1  0.86000500  0.73117000  0.49326500  1
  C  502  1  0.85893600  0.76149700  0.49397100  1
  C  503  1  0.85998600  0.78907000  0.46037900  1
  C  504  1  0.86052200  0.82277700  0.45515600  1
  C  505  1  0.85878300  0.82871300  0.48344900  1
  C  506  1  0.85489600  0.79991000  0.51679900  1
  C  507  1  0.85572000  0.76637000  0.52232700  1
  C  508  1  0.86310900  0.69746300  0.52074200  1
  C  509  1  0.86491500  0.67039200  0.51380100  1
  C  510  1  0.86186000  0.67622500  0.47991600  1
  C  511  1  0.86009700  0.71096700  0.45258000  1
  C  512  1  0.82356000  0.78906100  0.41082700  1
  C  513  1  0.83855900  0.80610000  0.37714800  1
  C  514  1  0.88185100  0.80602900  0.37720700  1
  C  515  1  0.89674200  0.78893300  0.41092600  1
  C  516  1  0.90852080  0.82074400  0.34863100  1
  C  517  1  0.95198080  0.81823700  0.35414100  1
  C  518  1  0.96948080  0.80109000  0.38775900  1
  C  519  1  0.94112580  0.78644700  0.41622100  1
  C  520  1  0.77917100  0.78666500  0.41604800  1
  C  521  1  0.75090000  0.80136800  0.38753900  1
  C  522  1  0.76848500  0.81849600  0.35395300  1
  C  523  1  0.81196300  0.82090300  0.34852200  1
  C  536  1  0.86009200  0.77644000  0.43533300  1
  C  537  1  0.01339700  0.79968700  0.39164500  1
  C  538  1  0.70698100  0.80000900  0.39137400  1
  C  539  1  0.86222600  0.64923400  0.47292500  1
  C  540  1  0.85919000  0.86206300  0.47810500  1
  C  545  1  0.35996700  0.20098700  0.86755000  1
  C  546  1  0.36487800  0.16709400  0.89395200  1
  C  547  1  0.36473000  0.16619500  0.92512800  1
  C  548  1  0.35992200  0.19953300  0.91935200  1
  C  549  1  0.35817100  0.20457300  0.94792900  1
  C  550  1  0.36153400  0.17634200  0.98208100  1
  C  551  1  0.36823800  0.14329900  0.98644200  1
  C  552  1  0.36919900  0.13794100  0.95830900  1
  C  553  1  0.37003600  0.14007300  0.88721400  1
  C  554  1  0.36953400  0.14726800  0.85307900  1
  C  555  1  0.36222000  0.18086000  0.82549100  1
  C  556  1  0.35831100  0.20781600  0.83329900  1
  C  557  1  0.32226200  0.24915600  0.86995000  1
  C  558  1  0.33727400  0.28286100  0.85347100  1
  C  559  1  0.38055800  0.28291000  0.85342800  1
  C  560  1  0.39541800  0.24921600  0.86992500  1
  C  561  1  0.40728000  0.31146300  0.83974700  1
  C  562  1  0.45074700  0.30591900  0.84279900  1
  C  563  1  0.46819600  0.27228900  0.85914200  1
  C  564  1  0.43980200  0.24387700  0.87278100  1
  C  565  1  0.27787800  0.24397300  0.87275000  1
  C  566  1  0.24966100  0.27252400  0.85907500  1
  C  567  1  0.26728100  0.30610100  0.84279500  1
  C  568  1  0.31074500  0.31150900  0.83977800  1
  C  581  1  0.35885400  0.22471400  0.88173600  1
  C  582  1  0.51208600  0.26828700  0.86170400  1
  C  583  1  0.20574500  0.26876500  0.86151100  1
  C  584  1  0.36094600  0.18816500  0.79141730  1
  C  585  1  0.36028900  0.18159000  0.01014500  1
  C  590  1  0.36019100  0.86669400  0.92190600  1
  C  591  1  0.35918000  0.89319400  0.92951100  1
  C  592  1  0.36038700  0.92432260  0.89931340  1
  C  593  1  0.36020700  0.91858460  0.87154440  1
  C  594  1  0.36024800  0.94726660  0.83793240  1
  C  595  1  0.36175200  0.98137760  0.83234140  1
  C  596  1  0.36470700  0.98559760  0.86139840  1
  C  597  1  0.36323200  0.95741960  0.89480240  1
  C  598  1  0.35555800  0.88672500  0.96327900  1
  C  599  1  0.35434700  0.85264000  0.99021400  1
  C  600  1  0.35839900  0.82479500  0.98415800  1
  C  601  1  0.36048500  0.83241600  0.94935500  1
  C  602  1  0.32372200  0.86914200  0.87128400  1
  C  603  1  0.33867400  0.85267400  0.85406000  1
  C  604  1  0.38196700  0.85272100  0.85402800  1
  C  605  1  0.39691600  0.86919600  0.87125200  1
  C  606  1  0.40858500  0.83907300  0.83907000  1
  C  607  1  0.45205500  0.84210800  0.84149500  1
  C  608  1  0.46961500  0.85838300  0.85881300  1
  C  609  1  0.44131300  0.87201800  0.87367000  1
  C  610  1  0.27932900  0.87192800  0.87374100  1
  C  611  1  0.25102000  0.85823800  0.85894200  1
  C  612  1  0.26857700  0.84190100  0.84168600  1
  C  613  1  0.31204700  0.83892700  0.83920400  1
  C  624  1  0.36030800  0.88094600  0.88395000  1
  C  625  1  0.51354300  0.86084100  0.86018400  1
  C  626  1  0.20709800  0.86072700  0.86030000  1
  C  627  1  0.35875000  0.79076300  0.01102200  1
  C  628  1  0.36195800  0.00970000  0.79917400  1
  C  633  1  0.35987800  0.92041360  0.20151140  1
  C  634  1  0.35994500  0.92777360  0.16747140  1
  C  635  1  0.35881600  0.89744900  0.16676400  1
  C  636  1  0.35992600  0.86987600  0.20035400  1
  C  637  1  0.36048800  0.83617200  0.20556700  1
  C  638  1  0.35872100  0.83024100  0.17726900  1
  C  639  1  0.35477100  0.85904500  0.14392600  1
  C  640  1  0.35556400  0.89258400  0.13840400  1
  C  641  1  0.36291500  0.96148260  0.13998040  1
  C  642  1  0.36479900  0.98855860  0.14691440  1
  C  643  1  0.36182800  0.98273560  0.18080240  1
  C  644  1  0.36007700  0.94799660  0.20814240  1
  C  645  1  0.32355100  0.86989000  0.24991100  1
  C  646  1  0.33856700  0.85284300  0.28358600  1
  C  647  1  0.38185700  0.85292100  0.28351600  1
  C  648  1  0.39673000  0.87001800  0.24979300  1
  C  649  1  0.40854700  0.83821500  0.31208500  1
  C  650  1  0.45200500  0.84074000  0.30656200  1
  C  651  1  0.46948200  0.85788600  0.27293900  1
  C  652  1  0.44111000  0.87252000  0.24448400  1
  C  653  1  0.27915800  0.87229200  0.24469500  1
  C  654  1  0.25090000  0.85759000  0.27321100  1
  C  655  1  0.26850100  0.84045000  0.30679500  1
  C  656  1  0.31198300  0.83803900  0.31221700  1
  C  669  1  0.36006500  0.88251100  0.22539700  1
  C  670  1  0.51339800  0.85932700  0.26903200  1
  C  671  1  0.20698100  0.85898000  0.26937600  1
  C  672  1  0.36226400  0.00974300  0.18777400  1
  C  673  1  0.35916400  0.79689600  0.18259830  1
  C  678  1  0.11089800  0.36506100  0.80775200  1
  C  680  1  0.14596100  0.31093800  0.83865800  1
  C  681  1  0.10720600  0.29471700  0.85258400  1
  C  683  1  0.07213900  0.34883400  0.82169300  1
  C  688  1  0.14718400  0.83804100  0.84081500  1
  C  689  1  0.10834800  0.85183900  0.84317200  1
  C  693  1  0.11215900  0.81664800  0.36567000  1
  C  695  1  0.14709800  0.83980800  0.31150100  1
  C  696  1  0.10827900  0.84210900  0.29534800  1
  C  698  1  0.07334100  0.81892000  0.34952600  1
  C  703  1  0.61091900  0.29404900  0.85295200  1
  C  705  1  0.64595100  0.34818800  0.82206000  1
  C  706  1  0.60720000  0.36437700  0.80806500  1
  C  708  1  0.57215500  0.31025800  0.83900000  1
  C  713  1  0.61227200  0.85184300  0.84314400  1
  C  715  1  0.57343600  0.83802600  0.84082100  1
  C  718  1  0.61219000  0.84240800  0.29503200  1
  C  720  1  0.64709500  0.81924500  0.34922200  1
  C  721  1  0.60824600  0.81683800  0.36537300  1
  C  723  1  0.57334700  0.84003900  0.31117600  1
  C  728  1  0.83996000  0.56031700  0.58412200  1
  C  730  1  0.85845400  0.58903200  0.52442800  1
  C  731  1  0.87328000  0.55750300  0.52902300  1
  C  733  1  0.85703400  0.52926900  0.58895600  1
  C  738  1  0.83967300  0.58209800  0.84567800  1
  C  740  1  0.85780000  0.52242400  0.87748200  1
  C  741  1  0.87305900  0.52756500  0.90397200  1
  C  745  1  0.88169200  0.84642200  0.56054700  1
  C  748  1  0.86256800  0.87173600  0.52997200  1
  C  751  1  0.34016900  0.09859300  0.07653200  1
  C  753  1  0.35835200  0.06997500  0.13628800  1
  C  754  1  0.37287400  0.10156900  0.13172000  1
  C  756  1  0.35695200  0.12971400  0.07172500  1
  C  761  1  0.33980200  0.07693100  0.81502000  1
  C  763  1  0.35778600  0.13663600  0.78311430  1
  C  764  1  0.37280200  0.13150400  0.75655500  1
  C  766  1  0.35709400  0.07154600  0.78920400  1
  C  771  1  0.38164500  0.81259200  0.10012330  1
  C  773  1  0.36159800  0.78230600  0.07105200  1
  C  774  1  0.34464400  0.75619900  0.10214400  1
  C  776  1  0.36259600  0.78724000  0.13071430  1
  N  43  1  0.03253800  0.48202000  0.49514400  1
  N  46  1  0.92159300  0.47884500  0.47954800  1
  N  49  1  0.45797500  0.48201300  0.49513700  1
  N  51  1  0.56891300  0.47886600  0.47949300  1
  N  52  1  0.75751300  0.22516900  0.56700800  1
  N  53  1  0.74492500  0.28294500  0.53766100  1
  N  57  1  0.74462600  0.54624500  0.28414100  1
  N  289  1  0.03122700  0.01100900  0.48419300  1
  N  292  1  0.95678700  0.97994900  0.51055500  1
  N  296  1  0.92024300  0.02950000  0.48125700  1
  N  297  1  0.06770200  0.96137400  0.51352900  1
  N  300  1  0.95797600  0.50815400  0.49993800  1
  N  302  1  0.06891900  0.51130100  0.51556400  1
  N  304  1  0.03243700  0.49261300  0.01317800  1
  N  307  1  0.95789800  0.49732000  0.98225100  1
  N  311  1  0.92150100  0.47707800  0.03192000  1
  N  312  1  0.06885000  0.51282800  0.96354200  1
  N  314  1  0.53123300  0.97929700  0.51093600  1
  N  317  1  0.45679300  0.01031700  0.48450200  1
  N  321  1  0.42026900  0.96075800  0.51383700  1
  N  322  1  0.56769900  0.02892900  0.48156300  1
  N  324  1  0.53254100  0.50815400  0.49991500  1
  N  327  1  0.42160000  0.51132600  0.51553200  1
  N  329  1  0.53246800  0.49766100  0.98194700  1
  N  332  1  0.45787400  0.49278500  0.01286400  1
  N  336  1  0.42152100  0.51310400  0.96316300  1
  N  337  1  0.56883400  0.47740000  0.03162000  1
  N  339  1  0.72633700  0.25428800  0.21954400  1
  N  342  1  0.75728900  0.19487500  0.22798100  1
  N  346  1  0.74379500  0.16539100  0.28553800  1
  N  347  1  0.74593600  0.28212800  0.16050500  1
  N  349  1  0.72564400  0.21565800  0.51687500  1
  N  354  1  0.74454100  0.15659900  0.54901300  1
  N  356  1  0.76539400  0.51545600  0.25612700  1
  N  357  1  0.73037700  0.56476300  0.19757300  1
  N  360  1  0.74542700  0.53741500  0.16771600  1
  N  362  1  0.22654400  0.73582600  0.77552700  1
  N  365  1  0.25692400  0.79536200  0.76715500  1
  N  369  1  0.24381700  0.82472000  0.70950000  1
  N  370  1  0.24592500  0.70803600  0.83460400  1
  N  372  1  0.22578600  0.77456600  0.47820200  1
  N  375  1  0.25728400  0.76506100  0.42796900  1
  N  379  1  0.24493600  0.70723200  0.45747500  1
  N  380  1  0.24454700  0.83365000  0.44598900  1
  N  382  1  0.26537200  0.47473200  0.73895700  1
  N  385  1  0.23045400  0.42537900  0.79752600  1
  N  389  1  0.24543500  0.45275500  0.82737300  1
  N  390  1  0.24467000  0.44392900  0.71094100  1
  N  433  1  0.14758800  0.81642900  0.82793900  1
  N  436  1  0.03664300  0.81325400  0.81234300  1
  N  439  1  0.57302500  0.81642200  0.82793200  1
  N  441  1  0.68396300  0.81327500  0.81228800  1
  N  442  1  0.87256300  0.55957800  0.89980300  1
  N  443  1  0.85997500  0.61735400  0.87045600  1
  N  447  1  0.85967600  0.88065400  0.61693600  1
  N  679  1  0.14627700  0.34541800  0.81698800  1
  N  682  1  0.07183700  0.31435800  0.84335000  1
  N  686  1  0.03529300  0.36390900  0.81405200  1
  N  687  1  0.18275200  0.29578300  0.84632400  1
  N  690  1  0.07302600  0.84256300  0.83273300  1
  N  692  1  0.18396900  0.84571000  0.84835900  1
  N  694  1  0.14748700  0.82702200  0.34597300  1
  N  697  1  0.07294800  0.83172900  0.31504600  1
  N  701  1  0.03655100  0.81148700  0.36471500  1
  N  702  1  0.18390000  0.84723700  0.29633700  1
  N  704  1  0.64628300  0.31370600  0.84373100  1
  N  707  1  0.57184300  0.34472600  0.81729700  1
  N  711  1  0.53531900  0.29516700  0.84663200  1
  N  712  1  0.68274900  0.36333800  0.81435800  1
  N  714  1  0.64759100  0.84256300  0.83271000  1
  N  717  1  0.53665000  0.84573500  0.84832700  1
  N  719  1  0.64751800  0.83207000  0.31474200  1
  N  722  1  0.57292400  0.82719400  0.34565900  1
  N  726  1  0.53657100  0.84751300  0.29595800  1
  N  727  1  0.68388400  0.81180900  0.36441500  1
  N  729  1  0.84138700  0.58869700  0.55233900  1
  N  732  1  0.87233900  0.52928400  0.56077600  1
  N  736  1  0.85884500  0.49980000  0.61833300  1
  N  737  1  0.86098600  0.61653700  0.49330000  1
  N  739  1  0.84069400  0.55006700  0.84967000  1
  N  744  1  0.85959100  0.49100800  0.88180800  1
  N  746  1  0.88044400  0.84986500  0.58892200  1
  N  747  1  0.84542700  0.89917200  0.53036800  1
  N  750  1  0.86047700  0.87182400  0.50051100  1
  N  752  1  0.34159400  0.07023500  0.10832200  1
  N  755  1  0.37197400  0.12977100  0.09995000  1
  N  759  1  0.35886700  0.15912900  0.04229500  1
  N  760  1  0.36097500  0.04244500  0.16739900  1
  N  762  1  0.34083600  0.10897500  0.81099730  1
  N  765  1  0.37233400  0.09947000  0.76076400  1
  N  769  1  0.35998600  0.04164100  0.79027000  1
  N  770  1  0.35959700  0.16805900  0.77878430  1
  N  772  1  0.38042200  0.80914100  0.07175200  1
  N  775  1  0.34550400  0.75978800  0.13032100  1
  N  779  1  0.36048500  0.78716400  0.16016830  1
  N  780  1  0.35972000  0.77833800  0.04373600  1
