# generated using pymatgen
data_H13C13(N2O)2
_symmetry_space_group_name_H-M   'P 1'
_cell_length_a   22.25920000
_cell_length_b   60.50660000
_cell_length_c   60.50660000
_cell_angle_alpha   90.00000000
_cell_angle_beta   90.00000000
_cell_angle_gamma   90.00000000
_symmetry_Int_Tables_number   1
_chemical_formula_structural   H13C13(N2O)2
_chemical_formula_sum   'H416 C416 N128 O64'
_cell_volume   81492.01396673
_cell_formula_units_Z   32
loop_
 _symmetry_equiv_pos_site_id
 _symmetry_equiv_pos_as_xyz
  1  'x, y, z'
loop_
 _atom_site_type_symbol
 _atom_site_label
 _atom_site_symmetry_multiplicity
 _atom_site_fract_x
 _atom_site_fract_y
 _atom_site_fract_z
 _atom_site_occupancy
  C  1  1  0.22348600  0.08295200  0.00474000  1
  C  2  1  0.20739500  0.09880100  0.02083600  1
  C  3  1  0.15028000  0.09886200  0.03097800  1
  C  4  1  0.10922800  0.08187300  0.02536800  1
  C  5  1  0.12358600  0.06583300  0.00906900  1
  C  6  1  0.18097800  0.06650500  0.99885400  1
  C  9  1  0.28122300  0.08442600  0.99453200  1
  C  10  1  0.29979500  0.10413600  0.98380100  1
  C  11  1  0.35898500  0.10634100  0.97547000  1
  C  12  1  0.39854700  0.08803500  0.97679500  1
  C  13  1  0.37954800  0.06763800  0.98598700  1
  C  14  1  0.32141500  0.06634800  0.99531500  1
  C  23  1  0.42197500  0.04854100  0.98554800  1
  C  26  1  0.37742800  0.12682000  0.96349100  1
  C  29  1  0.13242200  0.11590700  0.04756400  1
  C  32  1  0.07916400  0.04835600  0.00285200  1
  C  35  1  0.72348200  0.41531800  0.99352100  1
  C  36  1  0.70737200  0.39946800  0.97743000  1
  C  37  1  0.65024900  0.39941200  0.96729200  1
  C  38  1  0.60920500  0.41640200  0.97290800  1
  C  39  1  0.62358100  0.43244000  0.98920700  1
  C  40  1  0.68098200  0.43176600  0.99941400  1
  C  43  1  0.78122400  0.41384000  0.00372500  1
  C  44  1  0.79979200  0.39413000  0.01445700  1
  C  45  1  0.85898100  0.39191900  0.02278700  1
  C  46  1  0.89854800  0.41022400  0.02146100  1
  C  47  1  0.87955400  0.43062200  0.01226800  1
  C  48  1  0.82142300  0.43191500  0.00294000  1
  C  57  1  0.92199300  0.44971800  0.01270500  1
  C  60  1  0.87741800  0.37144000  0.03476500  1
  C  63  1  0.63237300  0.38237000  0.95070700  1
  C  66  1  0.57917000  0.44991900  0.99542900  1
  C  69  1  0.47438000  0.24315000  0.83528200  1
  C  70  1  0.45881100  0.22696800  0.85111500  1
  C  71  1  0.40206900  0.21654500  0.85111800  1
  C  72  1  0.36081800  0.22202800  0.83415500  1
  C  73  1  0.37463200  0.23843500  0.81816500  1
  C  74  1  0.43172000  0.24887300  0.81883200  1
  C  77  1  0.53167300  0.25367300  0.83681900  1
  C  78  1  0.54941600  0.26464900  0.85649400  1
  C  79  1  0.60819000  0.27335000  0.85877500  1
  C  80  1  0.64813800  0.27210600  0.84057700  1
  C  81  1  0.62987100  0.26268800  0.82019100  1
  C  82  1  0.57216200  0.25302200  0.81882600  1
  C  91  1  0.67258600  0.26326200  0.80118100  1
  C  94  1  0.62568400  0.28569600  0.87915100  1
  C  97  1  0.38471100  0.19980900  0.86807600  1
  C  100  1  0.32991100  0.24451200  0.80074800  1
  C  103  1  0.97437400  0.25511400  0.16298100  1
  C  104  1  0.95881800  0.27130200  0.14715500  1
  C  105  1  0.90207800  0.28172800  0.14715000  1
  C  106  1  0.86082000  0.27624600  0.16411300  1
  C  107  1  0.87462800  0.25983600  0.18010100  1
  C  108  1  0.93171200  0.24939400  0.17943200  1
  C  111  1  0.03166800  0.24459300  0.16144800  1
  C  112  1  0.04942000  0.23362200  0.14176900  1
  C  113  1  0.10819000  0.22491900  0.13948900  1
  C  114  1  0.14812500  0.22615700  0.15769200  1
  C  115  1  0.12985400  0.23556700  0.17808000  1
  C  116  1  0.07215000  0.24523800  0.17944300  1
  C  125  1  0.17255900  0.23498600  0.19709200  1
  C  128  1  0.12571500  0.21257700  0.11911600  1
  C  131  1  0.88472800  0.29846600  0.13019200  1
  C  134  1  0.82990300  0.25375700  0.19751400  1
  C  137  1  0.77325400  0.91278700  0.99144800  1
  C  138  1  0.78840800  0.89595300  0.97628800  1
  C  139  1  0.84467600  0.89546000  0.96557500  1
  C  140  1  0.88537900  0.91302500  0.96953000  1
  C  141  1  0.87139600  0.93049900  0.98436900  1
  C  142  1  0.81531600  0.92990900  0.99564100  1
  C  145  1  0.71668200  0.91168500  0.00250800  1
  C  146  1  0.70119200  0.89313700  0.01566500  1
  C  147  1  0.64333800  0.89135700  0.02527500  1
  C  148  1  0.60209200  0.90901400  0.02260600  1
  C  149  1  0.61742400  0.92811000  0.01023900  1
  C  150  1  0.67444100  0.92893900  0.99996400  1
  C  159  1  0.57238000  0.94630900  0.00850800  1
  C  162  1  0.62711200  0.87164800  0.03886900  1
  C  165  1  0.86196800  0.87745900  0.94996200  1
  C  168  1  0.91824600  0.94793100  0.98780900  1
  C  171  1  0.27325400  0.58548100  0.00682300  1
  C  172  1  0.28839900  0.60232100  0.02197900  1
  C  173  1  0.34467600  0.60282500  0.03268500  1
  C  174  1  0.38538500  0.58526100  0.02873600  1
  C  175  1  0.37139900  0.56777700  0.01390900  1
  C  176  1  0.31532600  0.56836400  0.00263100  1
  C  179  1  0.21668400  0.58658000  0.99576000  1
  C  180  1  0.20119400  0.60512500  0.98259800  1
  C  181  1  0.14334400  0.60690000  0.97298200  1
  C  182  1  0.10210600  0.58923900  0.97565000  1
  C  183  1  0.11744500  0.57014600  0.98802000  1
  C  184  1  0.17445400  0.56932400  0.99830000  1
  C  193  1  0.07240700  0.55194400  0.98975100  1
  C  196  1  0.12711300  0.62660600  0.95938500  1
  C  199  1  0.36196800  0.62083400  0.04828700  1
  C  202  1  0.41827400  0.55035600  0.01046000  1
  C  205  1  0.52427400  0.75607100  0.16514400  1
  C  206  1  0.54191200  0.77246100  0.14982800  1
  C  207  1  0.59982900  0.78197500  0.15019300  1
  C  208  1  0.64021700  0.77532300  0.16701800  1
  C  209  1  0.62426000  0.75871800  0.18252700  1
  C  210  1  0.56603400  0.74920700  0.18147300  1
  C  213  1  0.46573600  0.74655900  0.16330400  1
  C  214  1  0.44658100  0.73652400  0.14330600  1
  C  215  1  0.38697000  0.72866200  0.14089000  1
  C  216  1  0.34751300  0.72973800  0.15924600  1
  C  217  1  0.36698300  0.73824900  0.17987600  1
  C  218  1  0.42556400  0.74714900  0.18139500  1
  C  227  1  0.32471200  0.73744500  0.19901100  1
  C  230  1  0.36814700  0.71712100  0.12020700  1
  C  233  1  0.61929100  0.79898500  0.13381400  1
  C  236  1  0.66764400  0.75169900  0.20004900  1
  C  239  1  0.02426200  0.74218800  0.83311800  1
  C  240  1  0.04189800  0.72579300  0.84843100  1
  C  241  1  0.09981300  0.71627700  0.84806100  1
  C  242  1  0.14019500  0.72292900  0.83123300  1
  C  243  1  0.12423200  0.73953400  0.81572500  1
  C  244  1  0.06601300  0.74904800  0.81678500  1
  C  247  1  0.96572800  0.75170100  0.83496400  1
  C  248  1  0.94659800  0.76173900  0.85496200  1
  C  249  1  0.88699600  0.76960800  0.85738500  1
  C  250  1  0.84752500  0.76853500  0.83903300  1
  C  251  1  0.86696800  0.76001900  0.81840100  1
  C  252  1  0.92554000  0.75111200  0.81687700  1
  C  261  1  0.82468200  0.76082500  0.79927100  1
  C  264  1  0.86817700  0.78116500  0.87806100  1
  C  267  1  0.11927900  0.69926400  0.86443600  1
  C  270  1  0.16761300  0.74655600  0.79820200  1
  C  273  1  0.72352200  0.58334200  0.50652600  1
  C  274  1  0.70590200  0.59870800  0.52287300  1
  C  275  1  0.64791000  0.59844000  0.53232700  1
  C  276  1  0.60742400  0.58165000  0.52567900  1
  C  277  1  0.62337000  0.56608800  0.50912800  1
  C  278  1  0.68168100  0.56703500  0.49967600  1
  C  281  1  0.78205800  0.58516700  0.49700500  1
  C  282  1  0.80119800  0.60518300  0.48699800  1
  C  283  1  0.86083200  0.60763100  0.47917900  1
  C  284  1  0.90033400  0.58929100  0.48025000  1
  C  285  1  0.88082600  0.56862300  0.48866200  1
  C  286  1  0.82222700  0.56707200  0.49754200  1
  C  295  1  0.92307100  0.54948500  0.48775600  1
  C  298  1  0.87958200  0.62830300  0.46760100  1
  C  301  1  0.62844200  0.61489100  0.54925900  1
  C  304  1  0.57984800  0.54859400  0.50216600  1
  C  307  1  0.22350900  0.91492400  0.49174100  1
  C  308  1  0.20586600  0.89955700  0.47539900  1
  C  309  1  0.14786800  0.89982800  0.46595200  1
  C  310  1  0.10739000  0.91662000  0.47260600  1
  C  311  1  0.12335600  0.93218000  0.48915600  1
  C  312  1  0.18167900  0.93123200  0.49859800  1
  C  315  1  0.28205600  0.91309600  0.50125400  1
  C  316  1  0.30120200  0.89308400  0.51126100  1
  C  317  1  0.36083700  0.89063100  0.51907800  1
  C  318  1  0.40033800  0.90897300  0.51800300  1
  C  319  1  0.38082800  0.92963800  0.50959000  1
  C  320  1  0.32222400  0.93119200  0.50071200  1
  C  329  1  0.42307300  0.94877800  0.51049100  1
  C  332  1  0.37958900  0.86996100  0.53065400  1
  C  335  1  0.12837600  0.88338100  0.44902000  1
  C  338  1  0.07985200  0.94967700  0.49612100  1
  C  341  1  0.97471300  0.74094800  0.33539500  1
  C  342  1  0.95951900  0.72587600  0.35230200  1
  C  343  1  0.90320100  0.71520600  0.35286500  1
  C  344  1  0.86252100  0.71907000  0.33527700  1
  C  345  1  0.87656900  0.73379900  0.31771900  1
  C  346  1  0.93266300  0.74506500  0.31825100  1
  C  349  1  0.03126000  0.75203300  0.33648200  1
  C  350  1  0.04672900  0.76518400  0.35503900  1
  C  351  1  0.10459100  0.77478100  0.35683800  1
  C  352  1  0.14585200  0.77212700  0.33918600  1
  C  353  1  0.13047000  0.75982600  0.32005400  1
  C  354  1  0.07347600  0.74953700  0.31921100  1
  C  363  1  0.17543000  0.75821600  0.30181800  1
  C  366  1  0.12071600  0.78840300  0.37653400  1
  C  369  1  0.88582400  0.69974000  0.37097700  1
  C  372  1  0.82974300  0.73714900  0.30026800  1
  C  375  1  0.47469600  0.75731000  0.66286400  1
  C  376  1  0.45951400  0.77238600  0.64595900  1
  C  377  1  0.40319600  0.78305600  0.64539200  1
  C  378  1  0.36251300  0.77919400  0.66297800  1
  C  379  1  0.37655200  0.76446300  0.68053700  1
  C  380  1  0.43264500  0.75319700  0.68000800  1
  C  383  1  0.53125100  0.74623000  0.66178500  1
  C  384  1  0.54675000  0.73308500  0.64322700  1
  C  385  1  0.60461400  0.72349100  0.64143400  1
  C  386  1  0.64585500  0.72614200  0.65909400  1
  C  387  1  0.63044600  0.73843800  0.67822800  1
  C  388  1  0.57344700  0.74872300  0.67906100  1
  C  397  1  0.67537800  0.74004400  0.69647200  1
  C  400  1  0.62077400  0.70987200  0.62174000  1
  C  403  1  0.38582900  0.79852500  0.62728100  1
  C  406  1  0.32972100  0.76111500  0.69798600  1
  C  409  1  0.27352000  0.41314800  0.48911600  1
  C  410  1  0.28999900  0.39669500  0.47371800  1
  C  411  1  0.34712600  0.39648400  0.46362700  1
  C  412  1  0.38741500  0.41394500  0.46846900  1
  C  413  1  0.37200500  0.43110500  0.48347600  1
  C  414  1  0.31507600  0.43022000  0.49412800  1
  C  417  1  0.21622600  0.41166700  0.49963100  1
  C  418  1  0.20012900  0.39272900  0.51212400  1
  C  419  1  0.14177600  0.39062600  0.52124700  1
  C  420  1  0.10062000  0.40834400  0.51883600  1
  C  421  1  0.11655000  0.42782900  0.50720000  1
  C  422  1  0.17405500  0.42898400  0.49733400  1
  C  431  1  0.07168500  0.44612100  0.50591300  1
  C  434  1  0.12517500  0.37067800  0.53442100  1
  C  437  1  0.36590000  0.37891700  0.44776100  1
  C  440  1  0.41827800  0.44856100  0.48767200  1
  C  443  1  0.77351000  0.08511500  0.50915900  1
  C  444  1  0.78997800  0.10157200  0.52455600  1
  C  445  1  0.84711600  0.10179400  0.53463900  1
  C  446  1  0.88741400  0.08433600  0.52980000  1
  C  447  1  0.87200200  0.06716700  0.51480300  1
  C  448  1  0.81508000  0.06804800  0.50414600  1
  C  451  1  0.71622200  0.08659200  0.49863900  1
  C  452  1  0.70012500  0.10552900  0.48614300  1
  C  453  1  0.64178000  0.10762800  0.47701400  1
  C  454  1  0.60062900  0.08990800  0.47942200  1
  C  455  1  0.61656000  0.07042500  0.49106000  1
  C  456  1  0.67405700  0.06927400  0.50093300  1
  C  465  1  0.57170200  0.05213100  0.49234600  1
  C  468  1  0.62517800  0.12757300  0.46383500  1
  C  471  1  0.86588600  0.11936900  0.55049700  1
  C  474  1  0.91830000  0.04972200  0.51059500  1
  C  477  1  0.02473300  0.25887900  0.66526400  1
  C  478  1  0.04129100  0.27424600  0.64879100  1
  C  479  1  0.09858900  0.28420300  0.64848100  1
  C  480  1  0.13894300  0.27930600  0.66590700  1
  C  481  1  0.12352200  0.26430500  0.68307200  1
  C  482  1  0.06641800  0.25376900  0.68226600  1
  C  485  1  0.96721900  0.24850500  0.66386600  1
  C  486  1  0.95053400  0.23617100  0.64489300  1
  C  487  1  0.89194000  0.22724300  0.64286000  1
  C  488  1  0.85113900  0.22965100  0.66068800  1
  C  489  1  0.86758600  0.24117300  0.68018100  1
  C  490  1  0.92532800  0.25086300  0.68126700  1
  C  499  1  0.82292400  0.24259000  0.69853100  1
  C  502  1  0.87461000  0.21439800  0.62278400  1
  C  505  1  0.11743600  0.29996200  0.63082200  1
  C  508  1  0.16993100  0.26001900  0.70046500  1
  C  511  1  0.52472300  0.23937900  0.33300100  1
  C  512  1  0.54127800  0.22400800  0.34946900  1
  C  513  1  0.59856700  0.21404400  0.34977000  1
  C  514  1  0.63891000  0.21893600  0.33234000  1
  C  515  1  0.62348700  0.23394300  0.31517900  1
  C  516  1  0.56639100  0.24448600  0.31599300  1
  C  519  1  0.46721200  0.24975400  0.33440300  1
  C  520  1  0.45054200  0.26209200  0.35337800  1
  C  521  1  0.39195600  0.27102300  0.35541400  1
  C  522  1  0.35114200  0.26861300  0.33758900  1
  C  523  1  0.36757000  0.25708900  0.31809600  1
  C  524  1  0.42530500  0.24739600  0.31700600  1
  C  533  1  0.32289300  0.25567300  0.29974900  1
  C  536  1  0.37463800  0.28387500  0.37548800  1
  C  539  1  0.61741600  0.19827700  0.36742200  1
  C  542  1  0.66988600  0.23822500  0.29778000  1
  C  545  1  0.95062200  0.98256000  0.00394700  1
  C  546  1  0.96904600  0.98747300  0.02561800  1
  C  547  1  0.01849400  0.00171400  0.02925700  1
  C  548  1  0.04833300  0.01061000  0.01042100  1
  C  552  1  0.03693900  0.00718400  0.05220000  1
  C  560  1  0.45063700  0.51571700  0.99434000  1
  C  561  1  0.46902000  0.51079000  0.97266700  1
  C  562  1  0.51846500  0.49654700  0.96902400  1
  C  563  1  0.54834000  0.48766400  0.98785800  1
  C  567  1  0.53687400  0.49106700  0.94607900  1
  C  575  1  0.20102300  0.24356000  0.73503300  1
  C  576  1  0.21934400  0.22184300  0.73979800  1
  C  577  1  0.26874000  0.21807900  0.75403800  1
  C  578  1  0.29862400  0.23683500  0.76308500  1
  C  582  1  0.28717200  0.19508900  0.75931000  1
  C  590  1  0.70098600  0.25469900  0.26322200  1
  C  591  1  0.71934000  0.27641600  0.25847100  1
  C  592  1  0.76874600  0.28018100  0.24423800  1
  C  593  1  0.79860800  0.26142400  0.23517900  1
  C  597  1  0.78720600  0.30317000  0.23897700  1
  C  605  1  0.04057200  0.51717300  0.00517500  1
  C  606  1  0.00983600  0.51475700  0.02533800  1
  C  607  1  0.96002700  0.50031200  0.02681900  1
  C  608  1  0.94325800  0.48845000  0.00746100  1
  C  612  1  0.92620700  0.49837300  0.04789500  1
  C  620  1  0.54052400  0.98107700  0.99308400  1
  C  621  1  0.50979900  0.98349700  0.97292000  1
  C  622  1  0.45999200  0.99794300  0.97143700  1
  C  623  1  0.44322900  0.00980600  0.99079500  1
  C  627  1  0.42617700  0.99988400  0.95036200  1
  C  635  1  0.79194300  0.25696800  0.73380200  1
  C  636  1  0.76066600  0.27698400  0.73648100  1
  C  637  1  0.71064800  0.27806900  0.75086100  1
  C  638  1  0.69427100  0.25847700  0.76241500  1
  C  642  1  0.67610400  0.29896700  0.75299000  1
  C  650  1  0.29188500  0.24128900  0.26448500  1
  C  651  1  0.26058600  0.22127700  0.26181400  1
  C  652  1  0.21060200  0.22018600  0.24741700  1
  C  653  1  0.19425400  0.23977400  0.23585500  1
  C  657  1  0.17606900  0.19928600  0.24528400  1
  C  665  1  0.79737900  0.75311400  0.26558400  1
  C  666  1  0.77882500  0.77476800  0.26066700  1
  C  667  1  0.72917600  0.77835900  0.24651200  1
  C  668  1  0.69930300  0.75949000  0.23769800  1
  C  672  1  0.71053000  0.80128700  0.24107300  1
  C  680  1  0.29734300  0.74514600  0.73266800  1
  C  681  1  0.27878400  0.72349200  0.73758200  1
  C  682  1  0.22913500  0.71990100  0.75173700  1
  C  683  1  0.19926300  0.73876800  0.76055100  1
  C  687  1  0.21048200  0.69697100  0.75717300  1
  C  695  1  0.20692700  0.74333800  0.26678700  1
  C  696  1  0.23760200  0.72322500  0.26390500  1
  C  697  1  0.28725400  0.72204000  0.24935900  1
  C  698  1  0.30401100  0.74164900  0.23791600  1
  C  702  1  0.32090300  0.70098600  0.24686500  1
  C  710  1  0.70682800  0.75492000  0.73151100  1
  C  711  1  0.73752100  0.77503100  0.73438400  1
  C  712  1  0.78717700  0.77621700  0.74892600  1
  C  713  1  0.80393800  0.75660800  0.76036900  1
  C  717  1  0.82085000  0.79726800  0.75140700  1
  C  725  1  0.44908200  0.48325100  0.50387800  1
  C  726  1  0.46744800  0.48811800  0.52556500  1
  C  727  1  0.51703400  0.50228700  0.52924400  1
  C  728  1  0.54703300  0.51116900  0.51043100  1
  C  732  1  0.53559100  0.50761900  0.55220900  1
  C  740  1  0.94909600  0.01502200  0.49440800  1
  C  741  1  0.96741700  0.01014000  0.47271800  1
  C  742  1  0.01699600  0.99596800  0.46903600  1
  C  743  1  0.04703400  0.98710000  0.48784700  1
  C  747  1  0.03550700  0.99062300  0.44607000  1
  C  755  1  0.54065200  0.01664300  0.50617900  1
  C  756  1  0.50977200  0.01331700  0.52618000  1
  C  757  1  0.46006700  0.99877000  0.52696900  1
  C  758  1  0.44348200  0.98776900  0.50708600  1
  C  762  1  0.42614500  0.99584400  0.54790800  1
  C  770  1  0.04062800  0.48160800  0.49208000  1
  C  771  1  0.00973700  0.48492700  0.47208000  1
  C  772  1  0.96006000  0.49948700  0.47128500  1
  C  773  1  0.94349900  0.51049800  0.49116600  1
  C  777  1  0.92615000  0.50241800  0.45034400  1
  C  785  1  0.41198500  0.17881000  0.90058500  1
  C  786  1  0.44952700  0.16015600  0.90163100  1
  C  787  1  0.43287000  0.14183500  0.91476700  1
  C  788  1  0.37799300  0.14328300  0.92673300  1
  C  792  1  0.47117400  0.12173900  0.91519200  1
  C  800  1  0.91199200  0.31945900  0.09767900  1
  C  801  1  0.94954100  0.33811000  0.09662600  1
  C  802  1  0.93288000  0.35643000  0.08349000  1
  C  803  1  0.87800000  0.35498100  0.07152600  1
  C  807  1  0.97120000  0.37652200  0.08305400  1
  C  815  1  0.65926100  0.34960600  0.92995400  1
  C  816  1  0.69687000  0.34827200  0.91133800  1
  C  817  1  0.68037600  0.33480100  0.89324400  1
  C  818  1  0.62561600  0.32278800  0.89488300  1
  C  822  1  0.71882000  0.33403800  0.87319300  1
  C  830  1  0.15932800  0.14867800  0.06830300  1
  C  831  1  0.19695700  0.15001400  0.08691200  1
  C  832  1  0.18047500  0.16348300  0.10501000  1
  C  833  1  0.12569300  0.17548500  0.10338300  1
  C  837  1  0.21894100  0.16424900  0.12505400  1
  C  845  1  0.59406500  0.82160600  0.10211500  1
  C  846  1  0.55842200  0.84077900  0.10167100  1
  C  847  1  0.57602100  0.85903000  0.08860800  1
  C  848  1  0.62997600  0.85703500  0.07616100  1
  C  852  1  0.53927000  0.87951700  0.08853100  1
  C  860  1  0.09406600  0.67664100  0.89613600  1
  C  861  1  0.05841300  0.65747200  0.89658400  1
  C  862  1  0.07601000  0.63922100  0.90964700  1
  C  863  1  0.12997100  0.64121400  0.92209200  1
  C  867  1  0.03924900  0.61873500  0.90973000  1
  C  875  1  0.33335967  0.65401100  0.06790500  1
  C  876  1  0.29485100  0.65548300  0.08625500  1
  C  877  1  0.31098300  0.66876300  0.10453700  1
  C  878  1  0.36629400  0.68048200  0.10332800  1
  C  882  1  0.27181800  0.66949500  0.12440100  1
  C  890  1  0.83340200  0.84428700  0.93033400  1
  C  891  1  0.79485200  0.84281300  0.91198900  1
  C  892  1  0.81093800  0.82951900  0.89371200  1
  C  893  1  0.86628100  0.81781900  0.89490500  1
  C  897  1  0.77170600  0.82876000  0.87386800  1
  C  905  1  0.91437200  0.68032700  0.40426500  1
  C  906  1  0.95277600  0.66194500  0.40578500  1
  C  907  1  0.93659800  0.64374100  0.41916200  1
  C  908  1  0.88134200  0.64505300  0.43090300  1
  C  912  1  0.97563600  0.62384500  0.41995400  1
  C  920  1  0.41438200  0.81793500  0.59399300  1
  C  921  1  0.45278900  0.83631600  0.59247000  1
  C  922  1  0.43660800  0.85452100  0.57909500  1
  C  923  1  0.38135400  0.85320700  0.56735300  1
  C  927  1  0.47565100  0.87441500  0.57829800  1
  C  935  1  0.15366300  0.85168300  0.42644200  1
  C  936  1  0.18897900  0.85131600  0.40718800  1
  C  937  1  0.17122400  0.83823800  0.38897200  1
  C  938  1  0.11745500  0.82570300  0.39108900  1
  C  942  1  0.20761400  0.83823500  0.36839800  1
  C  950  1  0.65374600  0.64659700  0.57182100  1
  C  951  1  0.68908200  0.64696900  0.59107100  1
  C  952  1  0.67133900  0.66004800  0.60928800  1
  C  953  1  0.61755200  0.67257400  0.60718000  1
  C  957  1  0.70774900  0.66005300  0.62985800  1
  C  965  1  0.09059400  0.32074500  0.59816100  1
  C  966  1  0.05401400  0.33965400  0.59711800  1
  C  967  1  0.07130500  0.35776600  0.58381200  1
  C  968  1  0.12588200  0.35588300  0.57171900  1
  C  972  1  0.03378100  0.37805400  0.58324300  1
  C  980  1  0.59059700  0.17749300  0.40008500  1
  C  981  1  0.55399200  0.15859100  0.40113800  1
  C  982  1  0.57127700  0.14047800  0.41444500  1
  C  983  1  0.62586400  0.14235700  0.42653300  1
  C  987  1  0.53373300  0.12019500  0.41502400  1
  C  995  1  0.83897600  0.15173100  0.57166400  1
  C  996  1  0.80260200  0.15243100  0.59064300  1
  C  997  1  0.82019900  0.16534900  0.60899600  1
  C  998  1  0.87486200  0.17741200  0.60727700  1
  C  1002  1  0.78295400  0.16552600  0.62936200  1
  C  1010  1  0.33900300  0.34655500  0.42658800  1
  C  1011  1  0.30261400  0.34585300  0.40761500  1
  C  1012  1  0.32017400  0.33292200  0.38926600  1
  C  1013  1  0.37485300  0.32086700  0.39097500  1
  C  1017  1  0.28287300  0.33272400  0.36891300  1
  H  7  1  0.23833900  0.11047600  0.02530100  1
  H  16  1  0.30824300  0.05212900  0.00306800  1
  H  19  1  0.18729600  0.05832100  0.96874000  1
  H  20  1  0.23593200  0.11808300  0.96853500  1
  H  21  1  0.05911300  0.07150500  0.04841800  1
  H  22  1  0.48159200  0.09408100  0.97971200  1
  H  24  1  0.45936400  0.05276300  0.99651200  1
  H  25  1  0.43980300  0.04730500  0.96874300  1
  H  27  1  0.42624000  0.12869300  0.96366100  1
  H  28  1  0.35976700  0.14131800  0.97210000  1
  H  30  1  0.08865700  0.12261400  0.04269200  1
  H  31  1  0.12686900  0.10737100  0.06338700  1
  H  33  1  0.07517100  0.04799600  0.98484900  1
  H  34  1  0.03439700  0.05251300  0.00906500  1
  H  41  1  0.73831200  0.38779500  0.97295800  1
  H  50  1  0.80825800  0.44613400  0.99518800  1
  H  53  1  0.68733000  0.43994800  0.02952800  1
  H  54  1  0.73593000  0.38018600  0.02972600  1
  H  55  1  0.55907300  0.42677100  0.94986400  1
  H  56  1  0.98158800  0.40417200  0.01853500  1
  H  58  1  0.95937300  0.44549300  0.00173800  1
  H  59  1  0.93982800  0.45095200  0.02950900  1
  H  61  1  0.92623000  0.36956300  0.03459100  1
  H  62  1  0.85974000  0.35694300  0.02616000  1
  H  64  1  0.58861600  0.37566000  0.95558600  1
  H  65  1  0.62679400  0.39090900  0.93488600  1
  H  67  1  0.57519900  0.45028100  0.01343400  1
  H  68  1  0.53439600  0.44576100  0.98922300  1
  H  75  1  0.48985400  0.22264700  0.86280800  1
  H  84  1  0.55953600  0.24512500  0.80461700  1
  H  87  1  0.43717500  0.27901900  0.81067100  1
  H  88  1  0.48476700  0.27967800  0.87020000  1
  H  89  1  0.31138700  0.19883900  0.82364200  1
  H  90  1  0.73117500  0.26963000  0.84682100  1
  H  92  1  0.71002800  0.25233400  0.80542700  1
  H  93  1  0.69027300  0.28009300  0.80005300  1
  H  95  1  0.67443200  0.28563300  0.88125500  1
  H  96  1  0.60763300  0.27730000  0.89370800  1
  H  98  1  0.34095100  0.20455400  0.87487900  1
  H  99  1  0.37926500  0.18404300  0.85942500  1
  H  101  1  0.32588800  0.26251300  0.80025400  1
  H  102  1  0.28521800  0.23833400  0.80506200  1
  H  109  1  0.98986200  0.27562400  0.13546100  1
  H  118  1  0.05951800  0.25312900  0.19365300  1
  H  121  1  0.93715500  0.21924700  0.18758900  1
  H  122  1  0.98478500  0.21859400  0.12805300  1
  H  123  1  0.81140200  0.29943500  0.17462900  1
  H  124  1  0.23117200  0.22862300  0.15145600  1
  H  126  1  0.21001800  0.24590700  0.19284700  1
  H  127  1  0.19022400  0.21815300  0.19822100  1
  H  129  1  0.17446300  0.21265300  0.11701000  1
  H  130  1  0.10764300  0.22096200  0.10455700  1
  H  132  1  0.84095900  0.29372500  0.12339300  1
  H  133  1  0.87929800  0.31423300  0.13884500  1
  H  135  1  0.82586800  0.23575600  0.19800100  1
  H  136  1  0.78521400  0.25994000  0.19320200  1
  H  143  1  0.75772800  0.88376100  0.97314600  1
  H  152  1  0.68552400  0.94222200  0.99034400  1
  H  155  1  0.81632900  0.93953300  0.02536800  1
  H  156  1  0.76754400  0.88132600  0.03126500  1
  H  157  1  0.93486400  0.91982000  0.94493200  1
  H  158  1  0.51946700  0.90151200  0.02241300  1
  H  160  1  0.53162800  0.93906900  0.00139700  1
  H  161  1  0.56188100  0.95178100  0.02533500  1
  H  163  1  0.57836400  0.86960400  0.03955700  1
  H  164  1  0.64413000  0.85672100  0.03083200  1
  H  166  1  0.90567800  0.87092400  0.95512300  1
  H  167  1  0.86752100  0.88515600  0.93370700  1
  H  169  1  0.95577700  0.93994300  0.99635700  1
  H  170  1  0.93421500  0.95317800  0.97149800  1
  H  177  1  0.25771900  0.61451400  0.02511500  1
  H  186  1  0.18553800  0.55604100  0.00792400  1
  H  189  1  0.31635100  0.55873500  0.97290500  1
  H  190  1  0.26754600  0.61693700  0.96699900  1
  H  191  1  0.43489600  0.57848200  0.05333000  1
  H  192  1  0.01948000  0.59673600  0.97584000  1
  H  194  1  0.03165500  0.55918200  0.99686200  1
  H  195  1  0.06191200  0.54647200  0.97292300  1
  H  197  1  0.07836800  0.62865000  0.95870100  1
  H  198  1  0.14413900  0.64153600  0.96741900  1
  H  200  1  0.40566800  0.62737200  0.04311700  1
  H  201  1  0.36754500  0.61314700  0.06454500  1
  H  203  1  0.45576300  0.55834500  0.00189000  1
  H  204  1  0.43430300  0.54512400  0.02676700  1
  H  211  1  0.51149300  0.77763500  0.13826100  1
  H  220  1  0.43920400  0.75436500  0.19583500  1
  H  223  1  0.55696600  0.71896700  0.18879900  1
  H  224  1  0.50951400  0.72109100  0.12897200  1
  H  225  1  0.69206300  0.79750900  0.17810300  1
  H  226  1  0.26459900  0.73326800  0.15329500  1
  H  228  1  0.28759400  0.74866000  0.19514400  1
  H  229  1  0.30643600  0.72067600  0.19981100  1
  H  231  1  0.31937900  0.71764200  0.11826600  1
  H  232  1  0.38643000  0.72579100  0.10585300  1
  H  234  1  0.66228900  0.79371100  0.12674900  1
  H  235  1  0.62689900  0.81432200  0.14300000  1
  H  237  1  0.66955100  0.73364800  0.20037600  1
  H  238  1  0.71314900  0.75718300  0.19594500  1
  H  245  1  0.01148700  0.72062000  0.86000100  1
  H  254  1  0.93916600  0.74389500  0.80243700  1
  H  257  1  0.05694800  0.77929000  0.80946300  1
  H  258  1  0.00953500  0.77717600  0.86929100  1
  H  259  1  0.19202400  0.70074000  0.82014100  1
  H  260  1  0.76460800  0.76502300  0.84499100  1
  H  262  1  0.78755000  0.74961800  0.80314500  1
  H  263  1  0.80643200  0.77759900  0.79846600  1
  H  265  1  0.81941200  0.78062500  0.88001700  1
  H  266  1  0.88652000  0.77252000  0.89241900  1
  H  268  1  0.16228400  0.70453200  0.87149800  1
  H  269  1  0.12687400  0.68392600  0.85524600  1
  H  271  1  0.16952300  0.76460500  0.79787800  1
  H  272  1  0.21311800  0.74107100  0.80230400  1
  H  279  1  0.73636400  0.61026300  0.52804100  1
  H  288  1  0.80859700  0.55260900  0.50471500  1
  H  291  1  0.69093800  0.55961000  0.46946700  1
  H  292  1  0.73819900  0.61948200  0.47156600  1
  H  293  1  0.55533500  0.57061800  0.54782100  1
  H  294  1  0.98321500  0.59523900  0.48387200  1
  H  296  1  0.95992300  0.55318700  0.49914500  1
  H  297  1  0.94177400  0.54890500  0.47104100  1
  H  299  1  0.92835000  0.63025600  0.46808200  1
  H  300  1  0.86131400  0.64266300  0.47626300  1
  H  302  1  0.58556400  0.62199600  0.54390900  1
  H  303  1  0.62059800  0.60575800  0.56461200  1
  H  305  1  0.57867400  0.54793600  0.48411700  1
  H  306  1  0.53422500  0.55296100  0.50730500  1
  H  313  1  0.23632500  0.88800300  0.47022400  1
  H  322  1  0.30859300  0.94565500  0.49354100  1
  H  325  1  0.19097300  0.93865900  0.52880500  1
  H  326  1  0.23820900  0.87878600  0.52669900  1
  H  327  1  0.05528300  0.92765200  0.45047100  1
  H  328  1  0.48321400  0.90302100  0.51436800  1
  H  330  1  0.45991400  0.94507800  0.49909900  1
  H  331  1  0.44178900  0.94935700  0.52720500  1
  H  333  1  0.42835800  0.86800500  0.53017100  1
  H  334  1  0.36132200  0.85559900  0.52199200  1
  H  336  1  0.08551100  0.87627200  0.45437800  1
  H  337  1  0.12050900  0.89251700  0.43367000  1
  H  339  1  0.07870500  0.95034200  0.51417000  1
  H  340  1  0.03422000  0.94530900  0.49099400  1
  H  347  1  0.99018000  0.72279200  0.36451500  1
  H  356  1  0.06240300  0.73994300  0.30590700  1
  H  359  1  0.93162200  0.77475000  0.30849500  1
  H  360  1  0.98025200  0.78074600  0.36681100  1
  H  361  1  0.81292100  0.69446100  0.32864300  1
  H  362  1  0.22847200  0.77188700  0.34668300  1
  H  364  1  0.21612900  0.75096900  0.30896100  1
  H  365  1  0.18607400  0.77509200  0.29653400  1
  H  367  1  0.16945900  0.78920300  0.37854500  1
  H  368  1  0.10390000  0.78032400  0.39147100  1
  H  370  1  0.84214000  0.70497700  0.37747800  1
  H  371  1  0.88018600  0.68343200  0.36340000  1
  H  373  1  0.79222200  0.74574900  0.30820600  1
  H  374  1  0.81375400  0.72081000  0.29511100  1
  H  381  1  0.49018200  0.77547200  0.63374900  1
  H  390  1  0.56235300  0.75831500  0.69236700  1
  H  393  1  0.43159500  0.72351100  0.68976200  1
  H  394  1  0.48029800  0.71751800  0.63144100  1
  H  395  1  0.31291500  0.80380400  0.66961100  1
  H  396  1  0.72848600  0.72638300  0.65161400  1
  H  398  1  0.71608700  0.74729500  0.68933700  1
  H  399  1  0.68601800  0.72316800  0.70175400  1
  H  401  1  0.66952200  0.70908200  0.61973400  1
  H  402  1  0.60395800  0.71794800  0.60680100  1
  H  404  1  0.34214300  0.79329100  0.62078100  1
  H  405  1  0.38020300  0.81483300  0.63486100  1
  H  407  1  0.29219900  0.75251700  0.69004600  1
  H  408  1  0.31373600  0.77745300  0.70314400  1
  H  415  1  0.25970000  0.38454600  0.46997000  1
  H  424  1  0.18560500  0.44258400  0.48824400  1
  H  427  1  0.31396600  0.43921500  0.52405100  1
  H  428  1  0.26564000  0.38059300  0.52795800  1
  H  429  1  0.43911500  0.42125500  0.44463500  1
  H  430  1  0.01805600  0.40082200  0.51789500  1
  H  432  1  0.03121900  0.43920300  0.49828100  1
  H  433  1  0.06049700  0.45090600  0.52289100  1
  H  435  1  0.07646000  0.36843700  0.53462200  1
  H  436  1  0.14321500  0.35590500  0.52640200  1
  H  438  1  0.40882200  0.37208800  0.45341100  1
  H  439  1  0.37352900  0.38709300  0.43185700  1
  H  441  1  0.45513800  0.44054800  0.49658300  1
  H  442  1  0.43556500  0.45395700  0.47159300  1
  H  449  1  0.75967800  0.11372200  0.52829700  1
  H  458  1  0.68560500  0.05567600  0.51002700  1
  H  461  1  0.81398200  0.05905300  0.47422400  1
  H  462  1  0.76563800  0.11766600  0.47030900  1
  H  463  1  0.93914600  0.07704000  0.55362800  1
  H  464  1  0.51806300  0.09742700  0.48035700  1
  H  466  1  0.53122800  0.05904700  0.49997800  1
  H  467  1  0.56051800  0.04734600  0.47536900  1
  H  469  1  0.57646400  0.12981700  0.46364000  1
  H  470  1  0.64323600  0.14234700  0.47184600  1
  H  472  1  0.90879600  0.12620300  0.54483600  1
  H  473  1  0.87354400  0.11120000  0.56640200  1
  H  475  1  0.95511200  0.05773800  0.50166100  1
  H  476  1  0.93565700  0.04434100  0.52667100  1
  H  483  1  0.01090900  0.27806500  0.63669400  1
  H  492  1  0.93726000  0.25987100  0.69487700  1
  H  495  1  0.06488600  0.22383700  0.69121800  1
  H  496  1  0.01554400  0.22024200  0.63251400  1
  H  497  1  0.19093800  0.30307200  0.67313600  1
  H  498  1  0.76848100  0.23082400  0.65332300  1
  H  500  1  0.78236800  0.25015100  0.69160200  1
  H  501  1  0.81180900  0.22565600  0.70348500  1
  H  503  1  0.82583200  0.21426700  0.62074000  1
  H  504  1  0.89225700  0.22264200  0.60807000  1
  H  506  1  0.16041600  0.29428800  0.62406200  1
  H  507  1  0.12494200  0.31593400  0.63887700  1
  H  509  1  0.20678700  0.25118600  0.69236700  1
  H  510  1  0.18716900  0.27607700  0.70595200  1
  H  517  1  0.51090200  0.22018900  0.36156900  1
  H  526  1  0.43722800  0.23838700  0.30339600  1
  H  529  1  0.56486400  0.27441800  0.30704200  1
  H  530  1  0.51555600  0.27802200  0.36575000  1
  H  531  1  0.69087200  0.19516500  0.32509800  1
  H  532  1  0.26848500  0.26745300  0.34496000  1
  H  534  1  0.28233800  0.24811800  0.30668500  1
  H  535  1  0.31178700  0.27260600  0.29479400  1
  H  537  1  0.32586200  0.28399200  0.37754200  1
  H  538  1  0.39232800  0.27564400  0.39020000  1
  H  540  1  0.66041100  0.20394100  0.37417700  1
  H  541  1  0.62489300  0.18230600  0.35936200  1
  H  543  1  0.70676500  0.24704600  0.30588000  1
  H  544  1  0.68708800  0.22216600  0.29228500  1
  H  550  1  0.94614500  0.98068900  0.03862100  1
  H  553  1  0.00842000  0.99928300  0.06458000  1
  H  554  1  0.03440600  0.02501600  0.05475300  1
  H  555  1  0.08298700  0.00167200  0.05502200  1
  H  557  1  0.86979900  0.97686000  0.99134400  1
  H  559  1  0.11519800  0.02707900  0.02624700  1
  H  565  1  0.44609600  0.51756600  0.95966600  1
  H  568  1  0.50833000  0.49896000  0.93370200  1
  H  569  1  0.53434200  0.47323400  0.94353600  1
  H  570  1  0.58291200  0.49658000  0.94324300  1
  H  572  1  0.36983900  0.52141900  0.00696200  1
  H  574  1  0.61518700  0.47119100  0.97202500  1
  H  580  1  0.19648200  0.20890400  0.73287800  1
  H  583  1  0.25869800  0.18278000  0.75127800  1
  H  584  1  0.28454900  0.19237400  0.77711600  1
  H  585  1  0.33329167  0.19232100  0.75380500  1
  H  587  1  0.12063100  0.25643000  0.72919300  1
  H  589  1  0.36508200  0.22084000  0.77961700  1
  H  595  1  0.69649200  0.28935500  0.26539900  1
  H  598  1  0.75874600  0.31547900  0.24701600  1
  H  599  1  0.78458600  0.30589500  0.22117200  1
  H  600  1  0.83328600  0.30592800  0.24448600  1
  H  602  1  0.62058000  0.24184000  0.26905800  1
  H  604  1  0.86508200  0.27741700  0.21865500  1
  H  610  1  0.02329000  0.52384800  0.03871200  1
  H  613  1  0.94475800  0.50889800  0.06087100  1
  H  614  1  0.92726700  0.48139300  0.05387900  1
  H  615  1  0.87957400  0.50329200  0.04530300  1
  H  617  1  0.12432800  0.52420800  0.99631000  1
  H  619  1  0.86206300  0.47609000  0.01560300  1
  H  625  1  0.52325200  0.97440400  0.95954600  1
  H  628  1  0.44472500  0.98935700  0.93738600  1
  H  629  1  0.42724600  0.01686200  0.94437600  1
  H  630  1  0.37954300  0.99496800  0.95295300  1
  H  632  1  0.62428700  0.97404800  0.00194800  1
  H  634  1  0.36203700  0.02217000  0.98265200  1
  H  640  1  0.77375800  0.29052300  0.72756300  1
  H  643  1  0.69435600  0.31214900  0.74265100  1
  H  644  1  0.67673000  0.30476000  0.77003600  1
  H  645  1  0.62962800  0.29622400  0.74795400  1
  H  647  1  0.87546400  0.24807500  0.72636000  1
  H  649  1  0.61272700  0.26608800  0.77477400  1
  H  655  1  0.27370900  0.20773100  0.27071700  1
  H  658  1  0.19429900  0.18610700  0.25563300  1
  H  659  1  0.17673700  0.19348800  0.22823900  1
  H  660  1  0.12957900  0.20202900  0.25030500  1
  H  662  1  0.37541400  0.25017400  0.27191900  1
  H  664  1  0.11270000  0.23216800  0.22349900  1
  H  670  1  0.80172400  0.78779100  0.26741200  1
  H  673  1  0.73908400  0.81369100  0.24891800  1
  H  674  1  0.71281200  0.80383900  0.22323800  1
  H  675  1  0.66454000  0.80407700  0.24666700  1
  H  677  1  0.87818800  0.74050500  0.27131100  1
  H  679  1  0.63221200  0.77527700  0.22134600  1
  H  685  1  0.30168400  0.71046900  0.73083700  1
  H  688  1  0.23903600  0.68456800  0.74932600  1
  H  689  1  0.21276200  0.69441800  0.77500700  1
  H  690  1  0.16449500  0.69418500  0.75157700  1
  H  692  1  0.37815400  0.75775500  0.72694700  1
  H  694  1  0.13216800  0.72298200  0.77690300  1
  H  700  1  0.22418200  0.70965900  0.27271500  1
  H  703  1  0.30229500  0.68776600  0.25706800  1
  H  704  1  0.31972000  0.69544600  0.22973500  1
  H  705  1  0.36757600  0.70340700  0.25181900  1
  H  707  1  0.12320800  0.75201500  0.27408400  1
  H  709  1  0.38485800  0.73361700  0.22519000  1
  H  715  1  0.72410600  0.78859400  0.72556800  1
  H  718  1  0.80224200  0.81048600  0.74120300  1
  H  719  1  0.81969200  0.80281400  0.76853400  1
  H  720  1  0.86751600  0.79484000  0.74644700  1
  H  722  1  0.62312000  0.74624000  0.72420000  1
  H  724  1  0.88480600  0.76463300  0.77308200  1
  H  730  1  0.44455600  0.48128400  0.53854400  1
  H  733  1  0.50703000  0.49969400  0.56455900  1
  H  734  1  0.53322300  0.52544000  0.55485000  1
  H  735  1  0.58159400  0.50203400  0.55498700  1
  H  737  1  0.36874400  0.47726800  0.49101500  1
  H  739  1  0.61359000  0.52766800  0.52637500  1
  H  745  1  0.94449800  0.01696400  0.45974300  1
  H  748  1  0.00692100  0.99853800  0.43372100  1
  H  749  1  0.03313700  0.97280100  0.44344200  1
  H  750  1  0.08150400  0.99620500  0.44327500  1
  H  752  1  0.86878400  0.02100700  0.50729100  1
  H  754  1  0.11356200  0.97059400  0.47189700  1
  H  760  1  0.52302000  0.02184000  0.53995200  1
  H  763  1  0.44462700  0.00574900  0.56137600  1
  H  764  1  0.42717900  0.97860200  0.55308500  1
  H  765  1  0.37952500  0.00087800  0.54551500  1
  H  767  1  0.62422600  0.02426600  0.49758000  1
  H  769  1  0.36267300  0.97480900  0.51476300  1
  H  775  1  0.02301600  0.47641700  0.45830500  1
  H  778  1  0.94461700  0.49250500  0.43687900  1
  H  779  1  0.92722200  0.51966000  0.44516400  1
  H  780  1  0.87951800  0.49739800  0.45273700  1
  H  782  1  0.12420500  0.47398800  0.50068100  1
  H  784  1  0.86267400  0.52345000  0.48349400  1
  H  790  1  0.48818600  0.15987200  0.89248000  1
  H  793  1  0.51102600  0.12343600  0.90480500  1
  H  794  1  0.44575000  0.10754400  0.90917900  1
  H  795  1  0.48632600  0.11842800  0.93198800  1
  H  797  1  0.42847600  0.21074700  0.89628800  1
  H  799  1  0.35850500  0.11150400  0.93301800  1
  H  805  1  0.98820600  0.33839400  0.10577400  1
  H  808  1  0.01105600  0.37482500  0.09344000  1
  H  809  1  0.94578500  0.39072200  0.08906200  1
  H  810  1  0.98634400  0.37982400  0.06625500  1
  H  812  1  0.92847600  0.28752200  0.10198100  1
  H  814  1  0.85851800  0.38675900  0.06523800  1
  H  820  1  0.73550600  0.35743200  0.91092500  1
  H  823  1  0.75849000  0.34454900  0.87470400  1
  H  824  1  0.69340000  0.33968800  0.85885100  1
  H  825  1  0.73427300  0.31721000  0.87026300  1
  H  827  1  0.67604000  0.35421200  0.96182200  1
  H  829  1  0.60637700  0.31584000  0.86322600  1
  H  835  1  0.23560200  0.14086000  0.08731800  1
  H  838  1  0.25862600  0.15374600  0.12353500  1
  H  839  1  0.19354500  0.15858900  0.13939900  1
  H  840  1  0.23436900  0.18107900  0.12798700  1
  H  842  1  0.17606300  0.14406400  0.03643300  1
  H  844  1  0.10649600  0.18242600  0.13504500  1
  H  850  1  0.52015400  0.84139200  0.11102500  1
  H  853  1  0.49977000  0.87818000  0.09915100  1
  H  854  1  0.56610800  0.89338800  0.09447200  1
  H  855  1  0.52367200  0.88310100  0.07184500  1
  H  857  1  0.57369800  0.78985900  0.10536900  1
  H  859  1  0.64832000  0.88859700  0.06817900  1
  H  865  1  0.02014000  0.65686000  0.88723100  1
  H  868  1  0.99974500  0.62007400  0.89911100  1
  H  869  1  0.06607700  0.60486200  0.90379000  1
  H  870  1  0.02365400  0.61515600  0.92641700  1
  H  872  1  0.07370600  0.70838800  0.89288400  1
  H  874  1  0.14830100  0.60965200  0.93007800  1
  H  880  1  0.25610600  0.64638000  0.08644300  1
  H  883  1  0.23177100  0.65923500  0.12255200  1
  H  884  1  0.29644000  0.66351500  0.13880000  1
  H  885  1  0.25696100  0.68637100  0.12747400  1
  H  887  1  0.31898800  0.64864800  0.03594800  1
  H  889  1  0.38554100  0.68634800  0.13518900  1
  H  895  1  0.75604400  0.85188200  0.91182500  1
  H  898  1  0.73164400  0.83901000  0.87572700  1
  H  899  1  0.79626500  0.83473300  0.85945300  1
  H  900  1  0.75687400  0.81187600  0.87081700  1
  H  902  1  0.81902600  0.84963700  0.96229400  1
  H  904  1  0.88542400  0.81192900  0.86303900  1
  H  910  1  0.99151700  0.66169400  0.39668000  1
  H  913  1  0.01562700  0.62560700  0.40964900  1
  H  914  1  0.95088000  0.60943900  0.41406700  1
  H  915  1  0.99058500  0.62084300  0.43683100  1
  H  917  1  0.92881500  0.71224900  0.39871500  1
  H  919  1  0.86183600  0.61324300  0.43688600  1
  H  925  1  0.49152800  0.83656800  0.60157500  1
  H  928  1  0.51564200  0.87265300  0.58860300  1
  H  929  1  0.45090200  0.88882300  0.58418200  1
  H  930  1  0.49060200  0.87741300  0.56141900  1
  H  932  1  0.42882200  0.78601300  0.59954400  1
  H  934  1  0.36184300  0.88501700  0.56137100  1
  H  940  1  0.22710900  0.86074200  0.40649100  1
  H  943  1  0.24700600  0.84892000  0.36964900  1
  H  944  1  0.18045700  0.84414000  0.35459600  1
  H  945  1  0.22335200  0.82157700  0.36476500  1
  H  947  1  0.17435100  0.85501800  0.45815300  1
  H  949  1  0.09878300  0.81764200  0.35958000  1
  H  955  1  0.72722200  0.63754800  0.59176300  1
  H  958  1  0.74715000  0.64937500  0.62860000  1
  H  959  1  0.68061000  0.65414500  0.64366100  1
  H  960  1  0.72347300  0.67671200  0.63349100  1
  H  962  1  0.67439200  0.64325300  0.54010900  1
  H  964  1  0.59889200  0.68062800  0.63869200  1
  H  970  1  0.01556400  0.34026200  0.60637100  1
  H  973  1  0.99394500  0.37666900  0.59368500  1
  H  974  1  0.05983600  0.39216200  0.58909700  1
  H  975  1  0.01865500  0.38128900  0.56642900  1
  H  977  1  0.07255200  0.28894800  0.60287400  1
  H  979  1  0.14447600  0.38747500  0.56402700  1
  H  985  1  0.51553400  0.15798600  0.39188800  1
  H  988  1  0.49389100  0.12158400  0.40458500  1
  H  989  1  0.55976900  0.10608300  0.40917200  1
  H  990  1  0.51861800  0.11696800  0.43184200  1
  H  992  1  0.57256900  0.20929300  0.39537600  1
  H  994  1  0.64443100  0.11076600  0.43423000  1
  H  1000  1  0.76415200  0.14317000  0.59113800  1
  H  1003  1  0.74296600  0.15518500  0.62781400  1
  H  1004  1  0.80912700  0.15930700  0.64328300  1
  H  1005  1  0.76809000  0.18228700  0.63301000  1
  H  1007  1  0.82092000  0.14742800  0.53979900  1
  H  1009  1  0.89379800  0.18447200  0.63899300  1
  H  1015  1  0.26411700  0.35508800  0.40713500  1
  H  1018  1  0.24288000  0.34306000  0.37046800  1
  H  1019  1  0.30900300  0.33893300  0.35497900  1
  H  1020  1  0.26801700  0.31595500  0.36528500  1
  H  1022  1  0.32097300  0.35084900  0.45845700  1
  H  1024  1  0.39372700  0.31379700  0.35925600  1
  N  549  1  0.02746700  0.00487200  0.99009800  1
  N  551  1  0.98170600  0.99175400  0.98696800  1
  N  556  1  0.90157000  0.96825600  0.00015000  1
  N  558  1  0.09677900  0.02594400  0.01077700  1
  N  564  1  0.52750800  0.49341400  0.00818200  1
  N  566  1  0.48175200  0.50653300  0.01131700  1
  N  571  1  0.40158400  0.53001800  0.99814000  1
  N  573  1  0.59678300  0.47233000  0.98749600  1
  N  579  1  0.27785500  0.25720600  0.75747900  1
  N  581  1  0.23215700  0.26045100  0.74436900  1
  N  586  1  0.15231000  0.24755500  0.72061500  1
  N  588  1  0.34717000  0.23638200  0.77837600  1
  N  594  1  0.77781200  0.24105300  0.24077400  1
  N  596  1  0.73210500  0.23781000  0.25387800  1
  N  601  1  0.65227200  0.25070500  0.27764100  1
  N  603  1  0.84716100  0.26187700  0.21989200  1
  N  609  1  0.97542700  0.49179900  0.98868800  1
  N  611  1  0.02089300  0.50538600  0.98749500  1
  N  616  1  0.08853100  0.53232700  0.00329100  1
  N  618  1  0.89859400  0.47181400  0.00620500  1
  N  624  1  0.47539800  0.00645800  0.00956900  1
  N  626  1  0.52085500  0.99286900  0.01076300  1
  N  631  1  0.58849200  0.96592900  0.99496800  1
  N  633  1  0.39856900  0.02644600  0.99205000  1
  N  639  1  0.72700400  0.23987600  0.75884700  1
  N  641  1  0.77259600  0.23904100  0.74529000  1
  N  646  1  0.83974600  0.25543300  0.71853600  1
  N  648  1  0.64957000  0.25683800  0.77900900  1
  N  654  1  0.22696400  0.25838000  0.23943000  1
  N  656  1  0.27254500  0.25921400  0.25299200  1
  N  661  1  0.33969400  0.24282300  0.27974800  1
  N  663  1  0.14954900  0.24141500  0.21926500  1
  N  669  1  0.72032100  0.73918500  0.24342400  1
  N  671  1  0.76625000  0.73610100  0.25647300  1
  N  676  1  0.84646900  0.74937200  0.27987800  1
  N  678  1  0.65062400  0.75980600  0.22247100  1
  N  684  1  0.22028200  0.75907400  0.75482800  1
  N  686  1  0.26621400  0.76215900  0.74178100  1
  N  691  1  0.34643700  0.74889000  0.71837600  1
  N  693  1  0.15058600  0.73845300  0.77578100  1
  N  699  1  0.27184300  0.76034600  0.24167300  1
  N  701  1  0.22648900  0.76125400  0.25532900  1
  N  706  1  0.15912600  0.74493500  0.28204200  1
  N  708  1  0.34850300  0.74324700  0.22124500  1
  N  714  1  0.77176300  0.73791200  0.75661800  1
  N  716  1  0.72640200  0.73700300  0.74296600  1
  N  721  1  0.65904500  0.75332200  0.71624700  1
  N  723  1  0.84844400  0.75501000  0.77703500  1
  N  729  1  0.52620400  0.50547700  0.49009300  1
  N  731  1  0.48033700  0.49243000  0.48693200  1
  N  736  1  0.40043400  0.46878300  0.49997500  1
  N  738  1  0.59598200  0.52628300  0.51080000  1
  N  744  1  0.02624200  0.99280500  0.50818500  1
  N  746  1  0.98038200  0.00585400  0.51135200  1
  N  751  1  0.90044700  0.02948800  0.49831500  1
  N  753  1  0.09597600  0.97198400  0.48747500  1
  N  759  1  0.47587200  0.99192900  0.48852600  1
  N  761  1  0.52123700  0.00559900  0.48798400  1
  N  766  1  0.58837600  0.03197300  0.50497400  1
  N  768  1  0.39911800  0.97109200  0.50508800  1
  N  774  1  0.97586000  0.50633100  0.50972900  1
  N  776  1  0.02121500  0.49265500  0.51027400  1
  N  781  1  0.08835600  0.46627900  0.49328500  1
  N  783  1  0.89912400  0.52717200  0.49316600  1
  N  789  1  0.34441600  0.16190500  0.92477300  1
  N  791  1  0.36025200  0.17866300  0.91248800  1
  N  796  1  0.42721700  0.19668900  0.88677900  1
  N  798  1  0.35403500  0.12664700  0.94048800  1
  N  804  1  0.84441800  0.33636100  0.07349100  1
  N  806  1  0.86025400  0.31960500  0.08577900  1
  N  811  1  0.92722400  0.30158000  0.11148800  1
  N  813  1  0.85404200  0.37161500  0.05777000  1
  N  819  1  0.59194200  0.32505000  0.91344800  1
  N  821  1  0.60761900  0.33764900  0.92999500  1
  N  826  1  0.67464800  0.36358500  0.94767600  1
  N  828  1  0.60196600  0.30865200  0.87850700  1
  N  834  1  0.09199400  0.17321600  0.08482400  1
  N  836  1  0.10766500  0.16062400  0.06827300  1
  N  841  1  0.17469300  0.13469400  0.05058200  1
  N  843  1  0.10204400  0.18961400  0.11976600  1
  N  849  1  0.66173200  0.83792900  0.07756800  1
  N  851  1  0.64505400  0.82123000  0.08978900  1
  N  856  1  0.57699800  0.80353300  0.11536000  1
  N  858  1  0.65291300  0.87310700  0.06148200  1
  N  864  1  0.16173300  0.66031800  0.92068200  1
  N  866  1  0.14505600  0.67701600  0.90845900  1
  N  871  1  0.07699500  0.69471500  0.88289100  1
  N  873  1  0.15290500  0.62514300  0.93677300  1
  N  879  1  0.40079200  0.67813400  0.08498200  1
  N  881  1  0.38547800  0.66569400  0.06827300  1
  N  886  1  0.31929900  0.63964200  0.05033800  1
  N  888  1  0.39042400  0.69397300  0.12013900  1
  N  894  1  0.90081500  0.82017800  0.91324000  1
  N  896  1  0.88551200  0.83261400  0.92995400  1
  N  901  1  0.81931600  0.85864800  0.94790900  1
  N  903  1  0.89038200  0.80432200  0.87809400  1
  N  909  1  0.84694800  0.66341800  0.42849700  1
  N  911  1  0.86232100  0.68005700  0.41597600  1
  N  916  1  0.92848200  0.69780400  0.38979800  1
  N  918  1  0.85715700  0.62832100  0.44447200  1
  N  924  1  0.34695900  0.83484400  0.56975900  1
  N  926  1  0.36233200  0.81820300  0.58228100  1
  N  931  1  0.42849300  0.80045900  0.60846000  1
  N  933  1  0.35716700  0.86993900  0.55378400  1
  N  939  1  0.08602900  0.82703000  0.41027200  1
  N  941  1  0.10284100  0.83927000  0.42693700  1
  N  946  1  0.17081600  0.86497800  0.44446400  1
  N  948  1  0.09451100  0.81095400  0.37508600  1
  N  954  1  0.58610200  0.67124000  0.58800100  1
  N  956  1  0.60290900  0.65900000  0.57133600  1
  N  961  1  0.67087900  0.63329700  0.55380200  1
  N  963  1  0.59460400  0.68731600  0.62318600  1
  N  969  1  0.15849700  0.33702600  0.57367700  1
  N  971  1  0.14211800  0.32046600  0.58613700  1
  N  976  1  0.07475700  0.30311700  0.61219100  1
  N  978  1  0.14941700  0.37202500  0.55726400  1
  N  984  1  0.65849500  0.16121000  0.42456800  1
  N  986  1  0.64212200  0.17776900  0.41210500  1
  N  991  1  0.57475400  0.19512400  0.38605800  1
  N  993  1  0.64939500  0.12621500  0.44098800  1
  N  999  1  0.90722400  0.17582000  0.58832900  1
  N  1001  1  0.89057400  0.16371200  0.57154700  1
  N  1006  1  0.82310800  0.13793600  0.55385000  1
  N  1008  1  0.89870400  0.19151400  0.62366900  1
  N  1014  1  0.40725300  0.32247200  0.40991500  1
  N  1016  1  0.39061800  0.33458300  0.42669700  1
  N  1021  1  0.32314000  0.36034600  0.44440700  1
  N  1023  1  0.39868200  0.30676500  0.37458400  1
  O  8  1  0.05464500  0.08144300  0.03565600  1
  O  15  1  0.45454100  0.08951700  0.96769500  1
  O  17  1  0.19499000  0.05122700  0.98309000  1
  O  18  1  0.26064900  0.12137100  0.98160300  1
  O  42  1  0.55461200  0.41683400  0.96262600  1
  O  49  1  0.95454800  0.40873900  0.03055500  1
  O  51  1  0.69501200  0.44704300  0.01517600  1
  O  52  1  0.76063700  0.37689700  0.01665700  1
  O  76  1  0.30657100  0.21149700  0.83368900  1
  O  83  1  0.70375500  0.28149300  0.84214900  1
  O  85  1  0.44526900  0.26470300  0.80356600  1
  O  86  1  0.50984400  0.26673600  0.87361000  1
  O  110  1  0.80658200  0.28677800  0.16457900  1
  O  117  1  0.20374200  0.21676300  0.15612700  1
  O  119  1  0.94525300  0.23356100  0.19469800  1
  O  120  1  0.00985900  0.23154000  0.12465000  1
  O  144  1  0.94022400  0.91258400  0.95935900  1
  O  151  1  0.54767100  0.90819800  0.03299800  1
  O  153  1  0.80145400  0.94535900  0.01120900  1
  O  154  1  0.74195500  0.87659000  0.01889000  1
  O  178  1  0.44023800  0.58571200  0.03890000  1
  O  185  1  0.04768800  0.59005200  0.96525600  1
  O  187  1  0.30147600  0.55291100  0.98706500  1
  O  188  1  0.24195100  0.62167400  0.97937300  1
  O  212  1  0.69564800  0.78495500  0.16786100  1
  O  219  1  0.29114900  0.72099200  0.15755700  1
  O  221  1  0.55046800  0.73319700  0.19628600  1
  O  222  1  0.48567400  0.73446000  0.12603900  1
  O  246  1  0.19562000  0.71329300  0.83038500  1
  O  253  1  0.79117000  0.77729300  0.84072100  1
  O  255  1  0.05044200  0.76506000  0.80197500  1
  O  256  1  0.98570600  0.76380400  0.87222600  1
  O  280  1  0.55193400  0.58088200  0.53527500  1
  O  287  1  0.95675000  0.59101900  0.47155500  1
  O  289  1  0.69723200  0.55215400  0.48372700  1
  O  290  1  0.76208400  0.62244400  0.48491900  1
  O  314  1  0.05189000  0.91739000  0.46301900  1
  O  321  1  0.45676200  0.90724200  0.52668900  1
  O  323  1  0.19725100  0.94611300  0.51454300  1
  O  324  1  0.26208300  0.87582400  0.51334500  1
  O  348  1  0.80762900  0.70893700  0.33578500  1
  O  355  1  0.20029600  0.78250100  0.34003000  1
  O  357  1  0.94652000  0.76056800  0.30273400  1
  O  358  1  0.00595800  0.76841600  0.37158200  1
  O  382  1  0.30762200  0.78932600  0.66246900  1
  O  389  1  0.70029800  0.71576800  0.65826000  1
  O  391  1  0.44649200  0.73769200  0.69552500  1
  O  392  1  0.50599800  0.72985400  0.62667700  1
  O  416  1  0.44316300  0.41372100  0.45896900  1
  O  423  1  0.04572200  0.40720500  0.52885100  1
  O  425  1  0.29997700  0.44531600  0.50988600  1
  O  426  1  0.24087700  0.37615700  0.51524700  1
  O  450  1  0.94317100  0.08457000  0.53929300  1
  O  457  1  0.54573500  0.09104400  0.46940300  1
  O  459  1  0.79999400  0.05295000  0.48838800  1
  O  460  1  0.74087200  0.12210100  0.48302100  1
  O  484  1  0.19479200  0.28872000  0.66562400  1
  O  491  1  0.79603800  0.21977900  0.65961700  1
  O  493  1  0.05123800  0.23802500  0.69736500  1
  O  494  1  0.99091300  0.23303100  0.62820200  1
  O  518  1  0.69474800  0.20951400  0.33261100  1
  O  525  1  0.29604900  0.27849300  0.33866200  1
  O  527  1  0.55120700  0.26022900  0.30089600  1
  O  528  1  0.49093700  0.26523200  0.37006300  1
