# generated using pymatgen
data_H9C14N2O3
_symmetry_space_group_name_H-M   'P 1'
_cell_length_a   41.41260000
_cell_length_b   41.41260000
_cell_length_c   54.98300000
_cell_angle_alpha   90.00000000
_cell_angle_beta   90.00000000
_cell_angle_gamma   90.00000000
_symmetry_Int_Tables_number   1
_chemical_formula_structural   H9C14N2O3
_chemical_formula_sum   'H576 C896 N128 O192'
_cell_volume   94296.03407334
_cell_formula_units_Z   64
loop_
 _symmetry_equiv_pos_site_id
 _symmetry_equiv_pos_as_xyz
  1  'x, y, z'
loop_
 _atom_site_type_symbol
 _atom_site_label
 _atom_site_symmetry_multiplicity
 _atom_site_fract_x
 _atom_site_fract_y
 _atom_site_fract_z
 _atom_site_occupancy
  H  7  1  0.17245700  0.43499300  0.90541600  1
  H  8  1  0.19865300  0.35900900  0.95203900  1
  H  15  1  0.13201800  0.41913300  0.80139500  1
  H  16  1  0.20931900  0.39533600  0.84736700  1
  H  19  1  0.20089200  0.33131700  0.86664900  1
  H  20  1  0.10717400  0.42679800  0.88731600  1
  H  31  1  0.33200500  0.51754500  0.40541600  1
  H  32  1  0.30581000  0.59352900  0.45203900  1
  H  39  1  0.37244500  0.53340500  0.30139300  1
  H  40  1  0.29514400  0.55720200  0.34736500  1
  H  43  1  0.30356900  0.62122400  0.36664900  1
  H  44  1  0.39729000  0.52574100  0.38731600  1
  H  55  1  0.79339900  0.89672200  0.15545000  1
  H  56  1  0.86944800  0.92306400  0.20197000  1
  H  63  1  0.80909900  0.85624200  0.05142300  1
  H  64  1  0.83289900  0.93348900  0.09740400  1
  H  67  1  0.89702900  0.92496200  0.11655700  1
  H  68  1  0.80165400  0.83129000  0.13737100  1
  H  79  1  0.71106600  0.05581600  0.65545100  1
  H  80  1  0.63501400  0.02947600  0.70197100  1
  H  87  1  0.69536300  0.09629700  0.55142300  1
  H  88  1  0.67156600  0.01905100  0.59740400  1
  H  91  1  0.60743300  0.02757700  0.61655800  1
  H  92  1  0.70280800  0.12124800  0.63737100  1
  H  103  1  0.33313300  0.43325900  0.59732800  1
  H  104  1  0.30917400  0.35597600  0.55138800  1
  H  111  1  0.36943300  0.42252400  0.70202900  1
  H  112  1  0.29344200  0.39644500  0.65538000  1
  H  115  1  0.30157000  0.33116200  0.63730900  1
  H  116  1  0.39716200  0.42478900  0.61664300  1
  H  127  1  0.17132900  0.51927900  0.09732800  1
  H  128  1  0.19528800  0.59656500  0.05138700  1
  H  135  1  0.13502900  0.53001500  0.20203000  1
  H  136  1  0.21102000  0.55609400  0.15538000  1
  H  139  1  0.20289200  0.62137600  0.13730900  1
  H  140  1  0.10730100  0.52775000  0.11664300  1
  H  151  1  0.70932000  0.89559000  0.34729800  1
  H  152  1  0.63195000  0.91968900  0.30148000  1
  H  159  1  0.69880700  0.85919700  0.45199800  1
  H  160  1  0.67266700  0.93516000  0.40537100  1
  H  163  1  0.60728100  0.92695400  0.38744100  1
  H  164  1  0.70077900  0.83140100  0.36659700  1
  H  175  1  0.79514200  0.05695100  0.84729800  1
  H  176  1  0.87251200  0.03285100  0.80148200  1
  H  183  1  0.80565600  0.09334200  0.95199700  1
  H  184  1  0.83179500  0.01737900  0.90537000  1
  H  187  1  0.89718300  0.02558400  0.88744100  1
  H  188  1  0.80368300  0.12113900  0.86659600  1
  H  199  1  0.83177100  0.51744100  0.09904300  1
  H  200  1  0.80551300  0.59346200  0.05247000  1
  H  207  1  0.87221500  0.53330600  0.20308100  1
  H  208  1  0.79497800  0.55695600  0.15704700  1
  H  211  1  0.80356200  0.62111800  0.13787400  1
  H  212  1  0.89723400  0.52579600  0.11713800  1
  H  223  1  0.67269100  0.43509700  0.59904300  1
  H  224  1  0.69895100  0.35907700  0.55247000  1
  H  231  1  0.63224700  0.41923200  0.70308100  1
  H  232  1  0.70948400  0.39558500  0.65704600  1
  H  235  1  0.70090000  0.33142100  0.63787500  1
  H  236  1  0.60723100  0.42674400  0.61713800  1
  H  247  1  0.21115800  0.05554700  0.84904900  1
  H  248  1  0.13516100  0.02923800  0.80249900  1
  H  255  1  0.19556200  0.09625200  0.95298000  1
  H  256  1  0.17176600  0.01892300  0.90707600  1
  H  259  1  0.10744300  0.02757600  0.88791900  1
  H  260  1  0.20272800  0.12111400  0.86699800  1
  H  271  1  0.29330400  0.89699300  0.34904800  1
  H  272  1  0.36930300  0.92330100  0.30249900  1
  H  279  1  0.30890100  0.85628800  0.45298000  1
  H  280  1  0.33269600  0.93361700  0.40707500  1
  H  283  1  0.39701900  0.92496200  0.38791800  1
  H  284  1  0.30173400  0.83142600  0.36699700  1
  H  295  1  0.67152500  0.51913400  0.40714900  1
  H  296  1  0.69548100  0.59650000  0.45301300  1
  H  303  1  0.63516900  0.52975700  0.30243900  1
  H  304  1  0.71110500  0.55580200  0.34912200  1
  H  307  1  0.70279600  0.62122900  0.36705700  1
  H  308  1  0.60729600  0.52774800  0.38783200  1
  H  319  1  0.83293700  0.43340400  0.90714900  1
  H  320  1  0.80898100  0.35603900  0.95301200  1
  H  327  1  0.86929300  0.42278400  0.80243900  1
  H  328  1  0.79335700  0.39673900  0.84912200  1
  H  331  1  0.80166700  0.33131000  0.86705700  1
  H  332  1  0.89716900  0.42479100  0.88783200  1
  H  343  1  0.29497100  0.05670500  0.65710600  1
  H  344  1  0.37228500  0.03275300  0.70297900  1
  H  351  1  0.30535400  0.09329200  0.55250300  1
  H  352  1  0.33153700  0.01728800  0.59908300  1
  H  355  1  0.39711600  0.02566300  0.61699800  1
  H  356  1  0.30368300  0.12104800  0.63792000  1
  H  367  1  0.20949300  0.89583400  0.15710700  1
  H  368  1  0.13217600  0.91978800  0.20297900  1
  H  375  1  0.19910800  0.85924800  0.05250300  1
  H  376  1  0.17292500  0.93525100  0.09908300  1
  H  379  1  0.10734600  0.92687700  0.11699700  1
  H  380  1  0.20077800  0.83149100  0.13792100  1
  H  391  1  0.24672900  0.35838400  0.72947800  1
  H  393  1  0.25621700  0.45828300  0.77497900  1
  H  395  1  0.30653000  0.46097800  0.74140100  1
  H  396  1  0.19622900  0.35598800  0.76311000  1
  H  398  1  0.23586600  0.42250900  0.81185100  1
  H  400  1  0.26821800  0.38995600  0.69339400  1
  H  407  1  0.25773300  0.59415500  0.22947600  1
  H  409  1  0.24824600  0.49425800  0.27497800  1
  H  411  1  0.19793200  0.49156000  0.24140200  1
  H  412  1  0.30823500  0.59655000  0.26310800  1
  H  414  1  0.26859700  0.53003200  0.31184900  1
  H  416  1  0.23624400  0.56258200  0.19339200  1
  H  423  1  0.86968900  0.97076700  0.97948600  1
  H  425  1  0.76978000  0.98026700  0.02497800  1
  H  427  1  0.76701800  0.03047400  0.99131000  1
  H  428  1  0.87216400  0.92038600  0.01319900  1
  H  430  1  0.80558100  0.96002700  0.06188700  1
  H  432  1  0.83799600  0.99205800  0.94335100  1
  H  439  1  0.63477500  0.98177400  0.47948600  1
  H  441  1  0.73468200  0.97227200  0.52497800  1
  H  443  1  0.73744700  0.92206500  0.49131000  1
  H  444  1  0.63229800  0.03215400  0.51319800  1
  H  446  1  0.69888100  0.99251400  0.56188800  1
  H  448  1  0.66646600  0.96048000  0.44335100  1
  H  455  1  0.75773100  0.59373700  0.27502300  1
  H  457  1  0.74822400  0.49387100  0.22947600  1
  H  459  1  0.69805100  0.49105300  0.26317200  1
  H  460  1  0.80807500  0.59627000  0.24128400  1
  H  462  1  0.76844700  0.52964800  0.19258700  1
  H  464  1  0.73649100  0.56196400  0.31115800  1
  H  471  1  0.74673200  0.35880400  0.77502500  1
  H  473  1  0.75623800  0.45867000  0.72947600  1
  H  475  1  0.80641100  0.46148500  0.76317200  1
  H  476  1  0.69638700  0.35626800  0.74128500  1
  H  478  1  0.73601500  0.42289100  0.69258600  1
  H  480  1  0.76797100  0.39057700  0.81115900  1
  H  487  1  0.13515800  0.98162900  0.02491000  1
  H  489  1  0.23522600  0.97246700  0.97957100  1
  H  491  1  0.23810200  0.92232500  0.01330600  1
  H  492  1  0.13254100  0.03192500  0.99114800  1
  H  494  1  0.19948900  0.99254600  0.94259600  1
  H  496  1  0.16696700  0.96061600  0.06113100  1
  H  503  1  0.36930500  0.97091200  0.52490900  1
  H  505  1  0.26923700  0.98007100  0.47957200  1
  H  507  1  0.26636100  0.03021400  0.51330600  1
  H  508  1  0.37192100  0.92061600  0.49114800  1
  H  510  1  0.30497200  0.95999500  0.44259700  1
  H  512  1  0.33749600  0.99192300  0.56113100  1
  H  519  1  0.74691000  0.85883800  0.22960900  1
  H  521  1  0.75595800  0.95896900  0.27487000  1
  H  523  1  0.80630300  0.96171000  0.24130500  1
  H  524  1  0.69638900  0.85638200  0.26321800  1
  H  526  1  0.73570100  0.92330600  0.31181300  1
  H  528  1  0.76822700  0.89040500  0.19345600  1
  H  535  1  0.75755200  0.09370100  0.72960900  1
  H  537  1  0.74850600  0.99357200  0.77487200  1
  H  539  1  0.69815900  0.99083100  0.74130500  1
  H  540  1  0.80807300  0.09615700  0.76321700  1
  H  542  1  0.76876100  0.02923300  0.81181200  1
  H  544  1  0.73623500  0.06213500  0.69345600  1
  H  551  1  0.37004400  0.47078400  0.47948600  1
  H  553  1  0.27013800  0.48021600  0.52498000  1
  H  555  1  0.26747200  0.53059700  0.49145700  1
  H  556  1  0.37240800  0.42021300  0.51306700  1
  H  558  1  0.30584200  0.45979200  0.56182600  1
  H  560  1  0.33851300  0.49234800  0.44343000  1
  H  567  1  0.13441700  0.48175700  0.97948600  1
  H  569  1  0.23432400  0.47232200  0.02497900  1
  H  571  1  0.23699200  0.42194200  0.99145900  1
  H  572  1  0.13205400  0.53232800  0.01306700  1
  H  574  1  0.19862200  0.49274600  0.06182500  1
  H  576  1  0.16594900  0.46019100  0.94342900  1
  H  583  1  0.25758100  0.09328900  0.77489000  1
  H  585  1  0.24844900  0.99320700  0.72957100  1
  H  587  1  0.19824400  0.99037000  0.76325600  1
  H  588  1  0.30794500  0.09585600  0.74117400  1
  H  590  1  0.26858500  0.02892400  0.69260600  1
  H  592  1  0.23649100  0.06153500  0.81109000  1
  H  599  1  0.24688100  0.85925000  0.27489000  1
  H  601  1  0.25601400  0.95933300  0.22957100  1
  H  603  1  0.30621800  0.96216800  0.26325600  1
  H  604  1  0.19651700  0.85668400  0.24117400  1
  H  606  1  0.23587700  0.92361500  0.19260700  1
  H  608  1  0.26797200  0.89100400  0.31109100  1
  H  615  1  0.63477300  0.48159700  0.52489100  1
  H  617  1  0.73486600  0.47251800  0.47958600  1
  H  619  1  0.73764700  0.42221400  0.51318200  1
  H  620  1  0.63227400  0.53207500  0.49125200  1
  H  622  1  0.69917600  0.49274100  0.44264900  1
  H  624  1  0.66640300  0.46032800  0.56104900  1
  H  631  1  0.86969200  0.47094100  0.02489100  1
  H  633  1  0.76959700  0.48002100  0.97958600  1
  H  635  1  0.76681500  0.53032600  0.01318200  1
  H  636  1  0.87218900  0.42046400  0.99125100  1
  H  638  1  0.80528900  0.45980000  0.94264900  1
  H  640  1  0.83805900  0.49221000  0.06105000  1
  H  647  1  0.16530300  0.25713700  0.91310900  1
  H  649  1  0.25105900  0.19745200  0.95285800  1
  H  651  1  0.27521600  0.26350700  0.94336700  1
  H  652  1  0.14107400  0.19237100  0.92295800  1
  H  654  1  0.21638000  0.14898200  0.94946000  1
  H  656  1  0.21967900  0.30600300  0.94840700  1
  H  663  1  0.33916000  0.69540400  0.41310900  1
  H  665  1  0.25340600  0.75508900  0.45285800  1
  H  667  1  0.22924800  0.68903400  0.44336600  1
  H  668  1  0.36338700  0.76016700  0.42295800  1
  H  670  1  0.28808400  0.80355700  0.44946100  1
  H  672  1  0.28478300  0.64653500  0.44840700  1
  H  679  1  0.97127900  0.88964000  0.16301600  1
  H  681  1  0.03099900  0.97538400  0.20274400  1
  H  683  1  0.96501300  0.99961800  0.19316900  1
  H  684  1  0.03599300  0.86534800  0.17294400  1
  H  686  1  0.07944200  0.94066500  0.19941400  1
  H  688  1  0.92241000  0.94422700  0.19818500  1
  H  695  1  0.53318300  0.06289900  0.66301500  1
  H  697  1  0.47346500  0.97715400  0.70274400  1
  H  699  1  0.53945200  0.95292200  0.69316800  1
  H  700  1  0.46846800  0.08719100  0.67294400  1
  H  702  1  0.42502000  0.01187500  0.69941400  1
  H  704  1  0.58205500  0.00831200  0.69818500  1
  H  711  1  0.33961600  0.25494700  0.59090200  1
  H  713  1  0.25276800  0.19580600  0.55202500  1
  H  715  1  0.22927600  0.26212100  0.56171500  1
  H  716  1  0.36316700  0.18991400  0.58085900  1
  H  718  1  0.28766100  0.14709600  0.55498400  1
  H  720  1  0.28488400  0.30413400  0.55613300  1
  H  727  1  0.16484600  0.69759400  0.09090200  1
  H  729  1  0.25169400  0.75673300  0.05202400  1
  H  731  1  0.27518700  0.69041800  0.06171600  1
  H  732  1  0.14129500  0.76262500  0.08086000  1
  H  734  1  0.21680200  0.80544300  0.05498400  1
  H  736  1  0.21957700  0.64840400  0.05613300  1
  H  743  1  0.53096600  0.88924600  0.34112000  1
  H  745  1  0.47180800  0.97591500  0.30203700  1
  H  747  1  0.53804900  0.99952900  0.31177800  1
  H  748  1  0.46599300  0.86558400  0.33103500  1
  H  750  1  0.42312700  0.94099100  0.30499200  1
  H  752  1  0.58017400  0.94408200  0.30638000  1
  H  759  1  0.97349800  0.06329400  0.84112000  1
  H  761  1  0.03265500  0.97662500  0.80203700  1
  H  763  1  0.96641300  0.95301200  0.81178000  1
  H  764  1  0.03847000  0.08695400  0.83103500  1
  H  766  1  0.08133500  0.01154700  0.80499200  1
  H  768  1  0.92428900  0.00845700  0.80638200  1
  H  775  1  0.83893500  0.69528300  0.09150000  1
  H  777  1  0.75353900  0.75508700  0.05142000  1
  H  779  1  0.72913800  0.68915500  0.06094800  1
  H  780  1  0.86338400  0.75995500  0.08161700  1
  H  782  1  0.78837100  0.80347300  0.05482900  1
  H  784  1  0.78445400  0.64645100  0.05618600  1
  H  791  1  0.66552700  0.25725700  0.59150100  1
  H  793  1  0.75092600  0.19745200  0.55142100  1
  H  795  1  0.77532400  0.26338400  0.56094800  1
  H  796  1  0.64107800  0.19258500  0.58161800  1
  H  798  1  0.71609100  0.14906600  0.55482900  1
  H  800  1  0.72001000  0.30608800  0.55618600  1
  H  807  1  0.66501700  0.69747100  0.41325500  1
  H  809  1  0.75131200  0.75673600  0.45271600  1
  H  811  1  0.77509700  0.69054100  0.44306000  1
  H  812  1  0.64119100  0.76240600  0.42325800  1
  H  814  1  0.71628400  0.80535100  0.44964800  1
  H  816  1  0.71971800  0.64832400  0.44818900  1
  H  823  1  0.83944500  0.25507000  0.91325500  1
  H  825  1  0.75315000  0.19580300  0.95271600  1
  H  827  1  0.72936500  0.26200000  0.94306000  1
  H  828  1  0.86327100  0.19013400  0.92325900  1
  H  830  1  0.78817800  0.14718800  0.94964800  1
  H  832  1  0.78474700  0.30421400  0.94819100  1
  H  839  1  0.47130300  0.38921000  0.66302300  1
  H  841  1  0.53101000  0.47460700  0.70318800  1
  H  843  1  0.46502000  0.49893000  0.69369400  1
  H  844  1  0.53602000  0.36482900  0.67287900  1
  H  846  1  0.57943700  0.43982500  0.69973800  1
  H  848  1  0.42242700  0.44348300  0.69843400  1
  H  855  1  0.03315900  0.56332800  0.16302200  1
  H  857  1  0.97345200  0.47793200  0.20318800  1
  H  859  1  0.03944300  0.45360800  0.19369400  1
  H  860  1  0.96844200  0.58771000  0.17287800  1
  H  862  1  0.92502500  0.51271300  0.19973800  1
  H  864  1  0.08203600  0.50905500  0.19843400  1
  H  871  1  0.03099700  0.38875100  0.84102100  1
  H  873  1  0.97182000  0.47522200  0.80170200  1
  H  875  1  0.03808300  0.49887900  0.81135200  1
  H  876  1  0.96600300  0.36504800  0.83101500  1
  H  878  1  0.92315400  0.44023300  0.80475200  1
  H  880  1  0.08017900  0.44333600  0.80608500  1
  H  887  1  0.47346700  0.56378700  0.34102200  1
  H  889  1  0.53264200  0.47731600  0.30170200  1
  H  891  1  0.46638000  0.45366100  0.31135200  1
  H  892  1  0.53846200  0.58749000  0.33101500  1
  H  894  1  0.58130900  0.51230500  0.30475200  1
  H  896  1  0.42428400  0.50920200  0.30608500  1
  H  903  1  0.36563500  0.62817100  0.90541600  1
  H  904  1  0.39183100  0.55218700  0.95203900  1
  H  911  1  0.32519600  0.61231100  0.80139500  1
  H  912  1  0.40249700  0.58851400  0.84736700  1
  H  915  1  0.39407000  0.52449500  0.86664900  1
  H  916  1  0.30035200  0.61997600  0.88731600  1
  H  927  1  0.52518300  0.71072300  0.40541600  1
  H  928  1  0.49898800  0.78670700  0.45203900  1
  H  935  1  0.56562300  0.72658300  0.30139300  1
  H  936  1  0.48832200  0.75038000  0.34736500  1
  H  939  1  0.49674700  0.81440200  0.36664900  1
  H  940  1  0.59046800  0.71891900  0.38731600  1
  H  951  1  0.98657700  0.08989990  0.15545000  1
  H  952  1  0.06262590  0.11624200  0.20197000  1
  H  959  1  0.00227692  0.04941990  0.05142300  1
  H  960  1  0.02607690  0.12666700  0.09740400  1
  H  963  1  0.09020690  0.11814000  0.11655700  1
  H  964  1  0.99483200  0.02446790  0.13737100  1
  H  975  1  0.90424400  0.24899400  0.65545100  1
  H  976  1  0.82819200  0.22265400  0.70197100  1
  H  983  1  0.88854100  0.28947500  0.55142300  1
  H  984  1  0.86474400  0.21222900  0.59740400  1
  H  987  1  0.80061100  0.22075500  0.61655800  1
  H  988  1  0.89598600  0.31442600  0.63737100  1
  H  999  1  0.52631100  0.62643700  0.59732800  1
  H  1000  1  0.50235200  0.54915400  0.55138800  1
  H  1007  1  0.56261100  0.61570200  0.70202900  1
  H  1008  1  0.48662000  0.58962300  0.65538000  1
  H  1011  1  0.49474800  0.52434000  0.63730900  1
  H  1012  1  0.59034000  0.61796700  0.61664300  1
  H  1023  1  0.36450700  0.71245700  0.09732800  1
  H  1024  1  0.38846600  0.78974300  0.05138700  1
  H  1031  1  0.32820700  0.72319300  0.20203000  1
  H  1032  1  0.40419800  0.74927200  0.15538000  1
  H  1035  1  0.39607000  0.81455400  0.13730900  1
  H  1036  1  0.30047900  0.72092800  0.11664300  1
  H  1047  1  0.90249800  0.08876790  0.34729800  1
  H  1048  1  0.82512800  0.11286700  0.30148000  1
  H  1055  1  0.89198500  0.05237490  0.45199800  1
  H  1056  1  0.86584500  0.12833800  0.40537100  1
  H  1059  1  0.80045900  0.12013200  0.38744100  1
  H  1060  1  0.89395700  0.02457890  0.36659700  1
  H  1071  1  0.98832000  0.25012900  0.84729800  1
  H  1072  1  0.06568990  0.22602900  0.80148200  1
  H  1079  1  0.99883400  0.28652000  0.95199700  1
  H  1080  1  0.02497290  0.21055700  0.90537000  1
  H  1083  1  0.09036090  0.21876200  0.88744100  1
  H  1084  1  0.99686100  0.31431700  0.86659600  1
  H  1095  1  0.02494890  0.71061900  0.09904300  1
  H  1096  1  0.99869100  0.78664000  0.05247000  1
  H  1103  1  0.06539290  0.72648400  0.20308100  1
  H  1104  1  0.98815600  0.75013400  0.15704700  1
  H  1107  1  0.99674000  0.81429600  0.13787400  1
  H  1108  1  0.09041190  0.71897400  0.11713800  1
  H  1119  1  0.86586900  0.62827500  0.59904300  1
  H  1120  1  0.89212900  0.55225500  0.55247000  1
  H  1127  1  0.82542500  0.61241000  0.70308100  1
  H  1128  1  0.90266200  0.58876300  0.65704600  1
  H  1131  1  0.89407800  0.52459900  0.63787500  1
  H  1132  1  0.80040900  0.61992200  0.61713800  1
  H  1143  1  0.40433600  0.24872500  0.84904900  1
  H  1144  1  0.32833900  0.22241600  0.80249900  1
  H  1151  1  0.38874000  0.28943000  0.95298000  1
  H  1152  1  0.36494400  0.21210100  0.90707600  1
  H  1155  1  0.30062100  0.22075400  0.88791900  1
  H  1156  1  0.39590600  0.31429200  0.86699800  1
  H  1167  1  0.48648200  0.09017090  0.34904800  1
  H  1168  1  0.56248100  0.11647900  0.30249900  1
  H  1175  1  0.50207900  0.04946590  0.45298000  1
  H  1176  1  0.52587400  0.12679500  0.40707500  1
  H  1179  1  0.59019700  0.11814000  0.38791800  1
  H  1180  1  0.49491200  0.02460390  0.36699700  1
  H  1191  1  0.86470300  0.71231200  0.40714900  1
  H  1192  1  0.88865900  0.78967800  0.45301300  1
  H  1199  1  0.82834700  0.72293500  0.30243900  1
  H  1200  1  0.90428300  0.74898000  0.34912200  1
  H  1203  1  0.89597400  0.81440700  0.36705700  1
  H  1204  1  0.80047400  0.72092600  0.38783200  1
  H  1215  1  0.02611490  0.62658200  0.90714900  1
  H  1216  1  0.00215892  0.54921700  0.95301200  1
  H  1223  1  0.06247090  0.61596200  0.80243900  1
  H  1224  1  0.98653500  0.58991700  0.84912200  1
  H  1227  1  0.99484500  0.52448800  0.86705700  1
  H  1228  1  0.09034690  0.61796900  0.88783200  1
  H  1239  1  0.48814900  0.24988300  0.65710600  1
  H  1240  1  0.56546300  0.22593100  0.70297900  1
  H  1247  1  0.49853200  0.28647000  0.55250300  1
  H  1248  1  0.52471500  0.21046600  0.59908300  1
  H  1251  1  0.59029400  0.21884100  0.61699800  1
  H  1252  1  0.49686100  0.31422600  0.63792000  1
  H  1263  1  0.40267100  0.08901190  0.15710700  1
  H  1264  1  0.32535400  0.11296600  0.20297900  1
  H  1271  1  0.39228600  0.05242590  0.05250300  1
  H  1272  1  0.36610300  0.12842900  0.09908300  1
  H  1275  1  0.30052400  0.12005500  0.11699700  1
  H  1276  1  0.39395600  0.02466890  0.13792100  1
  H  1287  1  0.43990700  0.55156200  0.72947800  1
  H  1289  1  0.44939500  0.65146100  0.77497900  1
  H  1291  1  0.49970800  0.65415600  0.74140100  1
  H  1292  1  0.38940700  0.54916600  0.76311000  1
  H  1294  1  0.42904400  0.61568700  0.81185100  1
  H  1296  1  0.46139600  0.58313400  0.69339400  1
  H  1303  1  0.45091100  0.78733300  0.22947600  1
  H  1305  1  0.44142400  0.68743600  0.27497800  1
  H  1307  1  0.39111000  0.68473800  0.24140200  1
  H  1308  1  0.50141300  0.78972800  0.26310800  1
  H  1310  1  0.46177500  0.72321000  0.31184900  1
  H  1312  1  0.42942200  0.75576000  0.19339200  1
  H  1319  1  0.06286690  0.16394500  0.97948600  1
  H  1321  1  0.96295800  0.17344500  0.02497800  1
  H  1323  1  0.96019600  0.22365200  0.99131000  1
  H  1324  1  0.06534190  0.11356400  0.01319900  1
  H  1326  1  0.99875900  0.15320500  0.06188700  1
  H  1328  1  0.03117390  0.18523600  0.94335100  1
  H  1335  1  0.82795300  0.17495200  0.47948600  1
  H  1337  1  0.92786000  0.16545000  0.52497800  1
  H  1339  1  0.93062500  0.11524300  0.49131000  1
  H  1340  1  0.82547600  0.22533200  0.51319800  1
  H  1342  1  0.89205900  0.18569200  0.56188800  1
  H  1344  1  0.85964400  0.15365800  0.44335100  1
  H  1351  1  0.95090900  0.78691500  0.27502300  1
  H  1353  1  0.94140200  0.68704900  0.22947600  1
  H  1355  1  0.89122900  0.68423100  0.26317200  1
  H  1356  1  0.00125292  0.78944800  0.24128400  1
  H  1358  1  0.96162500  0.72282600  0.19258700  1
  H  1360  1  0.92966900  0.75514200  0.31115800  1
  H  1367  1  0.93991000  0.55198200  0.77502500  1
  H  1369  1  0.94941600  0.65184800  0.72947600  1
  H  1371  1  0.99958900  0.65466300  0.76317200  1
  H  1372  1  0.88956500  0.54944600  0.74128500  1
  H  1374  1  0.92919300  0.61606900  0.69258600  1
  H  1376  1  0.96114900  0.58375500  0.81115900  1
  H  1383  1  0.32833600  0.17480700  0.02491000  1
  H  1385  1  0.42840400  0.16564500  0.97957100  1
  H  1387  1  0.43128000  0.11550300  0.01330600  1
  H  1388  1  0.32571900  0.22510300  0.99114800  1
  H  1390  1  0.39266700  0.18572400  0.94259600  1
  H  1392  1  0.36014500  0.15379400  0.06113100  1
  H  1399  1  0.56248300  0.16409000  0.52490900  1
  H  1401  1  0.46241500  0.17324900  0.47957200  1
  H  1403  1  0.45953900  0.22339200  0.51330600  1
  H  1404  1  0.56509900  0.11379400  0.49114800  1
  H  1406  1  0.49815000  0.15317300  0.44259700  1
  H  1408  1  0.53067400  0.18510100  0.56113100  1
  H  1415  1  0.94008800  0.05201590  0.22960900  1
  H  1417  1  0.94913600  0.15214700  0.27487000  1
  H  1419  1  0.99948100  0.15488800  0.24130500  1
  H  1420  1  0.88956700  0.04955990  0.26321800  1
  H  1422  1  0.92887900  0.11648400  0.31181300  1
  H  1424  1  0.96140500  0.08358290  0.19345600  1
  H  1431  1  0.95073000  0.28687900  0.72960900  1
  H  1433  1  0.94168400  0.18675000  0.77487200  1
  H  1435  1  0.89133700  0.18400900  0.74130500  1
  H  1436  1  0.00125092  0.28933500  0.76321700  1
  H  1438  1  0.96193900  0.22241100  0.81181200  1
  H  1440  1  0.92941300  0.25531300  0.69345600  1
  H  1447  1  0.56322200  0.66396200  0.47948600  1
  H  1449  1  0.46331600  0.67339400  0.52498000  1
  H  1451  1  0.46065000  0.72377500  0.49145700  1
  H  1452  1  0.56558600  0.61339100  0.51306700  1
  H  1454  1  0.49902000  0.65297000  0.56182600  1
  H  1456  1  0.53169100  0.68552600  0.44343000  1
  H  1463  1  0.32759500  0.67493500  0.97948600  1
  H  1465  1  0.42750200  0.66550000  0.02497900  1
  H  1467  1  0.43017000  0.61512000  0.99145900  1
  H  1468  1  0.32523200  0.72550600  0.01306700  1
  H  1470  1  0.39180000  0.68592400  0.06182500  1
  H  1472  1  0.35912700  0.65336900  0.94342900  1
  H  1479  1  0.45075900  0.28646700  0.77489000  1
  H  1481  1  0.44162700  0.18638500  0.72957100  1
  H  1483  1  0.39142200  0.18354800  0.76325600  1
  H  1484  1  0.50112300  0.28903400  0.74117400  1
  H  1486  1  0.46176300  0.22210200  0.69260600  1
  H  1488  1  0.42966900  0.25471300  0.81109000  1
  H  1495  1  0.44005900  0.05242790  0.27489000  1
  H  1497  1  0.44919200  0.15251100  0.22957100  1
  H  1499  1  0.49939600  0.15534600  0.26325600  1
  H  1500  1  0.38969500  0.04986190  0.24117400  1
  H  1502  1  0.42905500  0.11679300  0.19260700  1
  H  1504  1  0.46115000  0.08418190  0.31109100  1
  H  1511  1  0.82795100  0.67477500  0.52489100  1
  H  1513  1  0.92804400  0.66569600  0.47958600  1
  H  1515  1  0.93082500  0.61539200  0.51318200  1
  H  1516  1  0.82545200  0.72525300  0.49125200  1
  H  1518  1  0.89235400  0.68591900  0.44264900  1
  H  1520  1  0.85958100  0.65350600  0.56104900  1
  H  1527  1  0.06286990  0.66411900  0.02489100  1
  H  1529  1  0.96277500  0.67319900  0.97958600  1
  H  1531  1  0.95999300  0.72350400  0.01318200  1
  H  1532  1  0.06536690  0.61364200  0.99125100  1
  H  1534  1  0.99846700  0.65297800  0.94264900  1
  H  1536  1  0.03123690  0.68538800  0.06105000  1
  H  1543  1  0.35848100  0.45031500  0.91310900  1
  H  1545  1  0.44423700  0.39063000  0.95285800  1
  H  1547  1  0.46839400  0.45668500  0.94336700  1
  H  1548  1  0.33425200  0.38554900  0.92295800  1
  H  1550  1  0.40955800  0.34216000  0.94946000  1
  H  1552  1  0.41285700  0.49918100  0.94840700  1
  H  1559  1  0.53233800  0.88858200  0.41310900  1
  H  1561  1  0.44658400  0.94826700  0.45285800  1
  H  1563  1  0.42242600  0.88221200  0.44336600  1
  H  1564  1  0.55656500  0.95334500  0.42295800  1
  H  1566  1  0.48126200  0.99673500  0.44946100  1
  H  1568  1  0.47796100  0.83971300  0.44840700  1
  H  1575  1  0.16445700  0.08281790  0.16301600  1
  H  1577  1  0.22417700  0.16856200  0.20274400  1
  H  1579  1  0.15819100  0.19279600  0.19316900  1
  H  1580  1  0.22917100  0.05852590  0.17294400  1
  H  1582  1  0.27262000  0.13384300  0.19941400  1
  H  1584  1  0.11558800  0.13740500  0.19818500  1
  H  1591  1  0.72636100  0.25607700  0.66301500  1
  H  1593  1  0.66666667  0.17033200  0.70274400  1
  H  1595  1  0.73263000  0.14610000  0.69316800  1
  H  1596  1  0.66164600  0.28036900  0.67294400  1
  H  1598  1  0.61819800  0.20505300  0.69941400  1
  H  1600  1  0.77523300  0.20149000  0.69818500  1
  H  1607  1  0.53279400  0.44812500  0.59090200  1
  H  1609  1  0.44594600  0.38898400  0.55202500  1
  H  1611  1  0.42245400  0.45529900  0.56171500  1
  H  1612  1  0.55634500  0.38309200  0.58085900  1
  H  1614  1  0.48083900  0.34027400  0.55498400  1
  H  1616  1  0.47806200  0.49731200  0.55613300  1
  H  1623  1  0.35802400  0.89077200  0.09090200  1
  H  1625  1  0.44487200  0.94991100  0.05202400  1
  H  1627  1  0.46836500  0.88359600  0.06171600  1
  H  1628  1  0.33447300  0.95580300  0.08086000  1
  H  1630  1  0.40998000  0.99862100  0.05498400  1
  H  1632  1  0.41275500  0.84158200  0.05613300  1
  H  1639  1  0.72414400  0.08242390  0.34112000  1
  H  1641  1  0.66498600  0.16909300  0.30203700  1
  H  1643  1  0.73122700  0.19270700  0.31177800  1
  H  1644  1  0.65917100  0.05876190  0.33103500  1
  H  1646  1  0.61630500  0.13416900  0.30499200  1
  H  1648  1  0.77335200  0.13726000  0.30638000  1
  H  1655  1  0.16667600  0.25647200  0.84112000  1
  H  1657  1  0.22583300  0.16980300  0.80203700  1
  H  1659  1  0.15959100  0.14619000  0.81178000  1
  H  1660  1  0.23164800  0.28013200  0.83103500  1
  H  1662  1  0.27451300  0.20472500  0.80499200  1
  H  1664  1  0.11746700  0.20163500  0.80638200  1
  H  1671  1  0.03211290  0.88846100  0.09150000  1
  H  1673  1  0.94671700  0.94826500  0.05142000  1
  H  1675  1  0.92231600  0.88233300  0.06094800  1
  H  1676  1  0.05656190  0.95313300  0.08161700  1
  H  1678  1  0.98154900  0.99665100  0.05482900  1
  H  1680  1  0.97763200  0.83962900  0.05618600  1
  H  1687  1  0.85870500  0.45043500  0.59150100  1
  H  1689  1  0.94410400  0.39063000  0.55142100  1
  H  1691  1  0.96850200  0.45656200  0.56094800  1
  H  1692  1  0.83425600  0.38576300  0.58161800  1
  H  1694  1  0.90926900  0.34224400  0.55482900  1
  H  1696  1  0.91318800  0.49926600  0.55618600  1
  H  1703  1  0.85819500  0.89064900  0.41325500  1
  H  1705  1  0.94449000  0.94991400  0.45271600  1
  H  1707  1  0.96827500  0.88371900  0.44306000  1
  H  1708  1  0.83436900  0.95558400  0.42325800  1
  H  1710  1  0.90946200  0.99852900  0.44964800  1
  H  1712  1  0.91289600  0.84150200  0.44818900  1
  H  1719  1  0.03262290  0.44824800  0.91325500  1
  H  1721  1  0.94632800  0.38898100  0.95271600  1
  H  1723  1  0.92254300  0.45517800  0.94306000  1
  H  1724  1  0.05644890  0.38331200  0.92325900  1
  H  1726  1  0.98135600  0.34036600  0.94964800  1
  H  1728  1  0.97792500  0.49739200  0.94819100  1
  H  1735  1  0.66448100  0.58238800  0.66302300  1
  H  1737  1  0.72418800  0.66778500  0.70318800  1
  H  1739  1  0.65819800  0.69210800  0.69369400  1
  H  1740  1  0.72919800  0.55800700  0.67287900  1
  H  1742  1  0.77261500  0.63300300  0.69973800  1
  H  1744  1  0.61560500  0.63666100  0.69843400  1
  H  1751  1  0.22633700  0.75650600  0.16302200  1
  H  1753  1  0.16663000  0.67111000  0.20318800  1
  H  1755  1  0.23262100  0.64678600  0.19369400  1
  H  1756  1  0.16162000  0.78088800  0.17287800  1
  H  1758  1  0.11820300  0.70589100  0.19973800  1
  H  1760  1  0.27521400  0.70223300  0.19843400  1
  H  1767  1  0.22417500  0.58192900  0.84102100  1
  H  1769  1  0.16499800  0.66840000  0.80170200  1
  H  1771  1  0.23126100  0.69205700  0.81135200  1
  H  1772  1  0.15918100  0.55822600  0.83101500  1
  H  1774  1  0.11633200  0.63341100  0.80475200  1
  H  1776  1  0.27335700  0.63651400  0.80608500  1
  H  1783  1  0.66666667  0.75696500  0.34102200  1
  H  1785  1  0.72582000  0.67049400  0.30170200  1
  H  1787  1  0.65955800  0.64683900  0.31135200  1
  H  1788  1  0.73164000  0.78066800  0.33101500  1
  H  1790  1  0.77448700  0.70548300  0.30475200  1
  H  1792  1  0.61746200  0.70238000  0.30608500  1
  C  1  1  0.17595800  0.38955800  0.88828700  1
  C  2  1  0.17778800  0.41115300  0.90814700  1
  C  3  1  0.18638200  0.40026500  0.93166700  1
  C  4  1  0.19335900  0.36719300  0.93493800  1
  C  5  1  0.19159900  0.34499600  0.91539900  1
  C  6  1  0.18292600  0.35643000  0.89204400  1
  C  9  1  0.16449300  0.40051100  0.86535800  1
  C  10  1  0.13128400  0.40747700  0.86195700  1
  C  11  1  0.11914500  0.41475300  0.83852800  1
  C  12  1  0.14070900  0.41511800  0.81855300  1
  C  13  1  0.17397200  0.40906900  0.82162600  1
  C  14  1  0.18554700  0.40144100  0.84512600  1
  C  25  1  0.32850400  0.56298100  0.38828500  1
  C  26  1  0.32667300  0.54138600  0.40814800  1
  C  27  1  0.31807900  0.55227400  0.43166800  1
  C  28  1  0.31110300  0.58534600  0.43493800  1
  C  29  1  0.31286400  0.60754400  0.41539700  1
  C  30  1  0.32153700  0.59610800  0.39204500  1
  C  33  1  0.33996900  0.55202800  0.36535800  1
  C  34  1  0.37317900  0.54506400  0.36195700  1
  C  35  1  0.38531700  0.53778600  0.33852800  1
  C  36  1  0.36375400  0.53742100  0.31855100  1
  C  37  1  0.33049100  0.54347000  0.32162700  1
  C  38  1  0.31891500  0.55109800  0.34512600  1
  C  49  1  0.83881700  0.90011700  0.13829100  1
  C  50  1  0.81724600  0.90204400  0.15816000  1
  C  51  1  0.82816300  0.91073200  0.18165300  1
  C  52  1  0.86124300  0.91770600  0.18488600  1
  C  53  1  0.88341900  0.91585900  0.16533600  1
  C  54  1  0.87195200  0.90708900  0.14201100  1
  C  57  1  0.82781100  0.88864000  0.11538200  1
  C  58  1  0.82085900  0.85542600  0.11197600  1
  C  59  1  0.81360000  0.84327200  0.08854300  1
  C  60  1  0.81315600  0.86487400  0.06858700  1
  C  61  1  0.81915200  0.89814200  0.07167400  1
  C  62  1  0.82681300  0.90971100  0.09516400  1
  C  73  1  0.66564500  0.05242200  0.63829100  1
  C  74  1  0.68721800  0.05049500  0.65815900  1
  C  75  1  0.67630100  0.04180700  0.68165200  1
  C  76  1  0.64322000  0.03483400  0.68488600  1
  C  77  1  0.62104500  0.03668100  0.66533600  1
  C  78  1  0.63251000  0.04545000  0.64201100  1
  C  81  1  0.67665100  0.06390000  0.61538300  1
  C  82  1  0.68360300  0.09711300  0.61197600  1
  C  83  1  0.69086200  0.10926600  0.58854300  1
  C  84  1  0.69130600  0.08766500  0.56858600  1
  C  85  1  0.68531300  0.05439800  0.57167500  1
  C  86  1  0.67764900  0.04282900  0.59516500  1
  C  97  1  0.32792400  0.38844900  0.61533200  1
  C  98  1  0.32702800  0.40948900  0.59509100  1
  C  99  1  0.31928200  0.39793700  0.57160700  1
  C  100  1  0.31320200  0.36467400  0.56854300  1
  C  101  1  0.31357400  0.34311500  0.58852200  1
  C  102  1  0.32090500  0.35524900  0.61194200  1
  C  105  1  0.33889200  0.39990200  0.63826100  1
  C  106  1  0.37202400  0.40683000  0.64202700  1
  C  107  1  0.38346300  0.41546000  0.66539100  1
  C  108  1  0.36126200  0.41721800  0.68492600  1
  C  109  1  0.32818000  0.41030000  0.68164300  1
  C  110  1  0.31728700  0.40175400  0.65811600  1
  C  121  1  0.17653800  0.56408900  0.11533100  1
  C  122  1  0.17743500  0.54305200  0.09509100  1
  C  123  1  0.18518000  0.55460400  0.07160700  1
  C  124  1  0.19126000  0.58786400  0.06854200  1
  C  125  1  0.19088900  0.60942600  0.08852100  1
  C  126  1  0.18355800  0.59728900  0.11194100  1
  C  129  1  0.16557100  0.55263800  0.13826000  1
  C  130  1  0.13243700  0.54570800  0.14202700  1
  C  131  1  0.12099900  0.53707800  0.16539000  1
  C  132  1  0.14320200  0.53532300  0.18492600  1
  C  133  1  0.17628200  0.54223800  0.18164400  1
  C  134  1  0.18717500  0.55078400  0.15811600  1
  C  145  1  0.66453200  0.90069200  0.36535100  1
  C  146  1  0.68554000  0.90168700  0.34509700  1
  C  147  1  0.67394500  0.90953000  0.32164500  1
  C  148  1  0.64067400  0.91560000  0.31862000  1
  C  149  1  0.61914500  0.91514400  0.33861500  1
  C  150  1  0.63132200  0.90771600  0.36200800  1
  C  153  1  0.67604300  0.88970300  0.38825600  1
  C  154  1  0.68295600  0.85656300  0.39201700  1
  C  155  1  0.69157400  0.84510300  0.41538100  1
  C  156  1  0.69342900  0.86732800  0.43490000  1
  C  157  1  0.68656400  0.90041700  0.43161700  1
  C  158  1  0.67796700  0.91131200  0.40810200  1
  C  169  1  0.83993300  0.05184700  0.86535200  1
  C  170  1  0.81892500  0.05085300  0.84509700  1
  C  171  1  0.83051800  0.04301000  0.82164400  1
  C  172  1  0.86378800  0.03693900  0.81862000  1
  C  173  1  0.88531700  0.03739600  0.83861700  1
  C  174  1  0.87314000  0.04482300  0.86200800  1
  C  177  1  0.82841900  0.06283600  0.88825600  1
  C  178  1  0.82150600  0.09597600  0.89201900  1
  C  179  1  0.81289000  0.10743600  0.91538100  1
  C  180  1  0.81103300  0.08521100  0.93490100  1
  C  181  1  0.81789800  0.05212200  0.93161700  1
  C  182  1  0.82649500  0.04122700  0.90810200  1
  C  193  1  0.82838100  0.56287900  0.11617700  1
  C  194  1  0.82645800  0.54128900  0.09632000  1
  C  195  1  0.81779400  0.55218900  0.07281800  1
  C  196  1  0.81084700  0.58527100  0.06956200  1
  C  197  1  0.81269200  0.60746500  0.08909900  1
  C  198  1  0.82143300  0.59601700  0.11243600  1
  C  201  1  0.83984800  0.55189700  0.13909400  1
  C  202  1  0.87306700  0.54499300  0.14251900  1
  C  203  1  0.88520900  0.53777800  0.16596200  1
  C  204  1  0.86359200  0.53732900  0.18590800  1
  C  205  1  0.83032000  0.54327700  0.18280000  1
  C  206  1  0.81876000  0.55089700  0.15930100  1
  C  217  1  0.67608200  0.38965900  0.61617700  1
  C  218  1  0.67800400  0.41125200  0.59632000  1
  C  219  1  0.68666800  0.40034900  0.57281900  1
  C  220  1  0.69361500  0.36727000  0.56956300  1
  C  221  1  0.69177000  0.34507600  0.58910000  1
  C  222  1  0.68302900  0.35652400  0.61243600  1
  C  225  1  0.66461400  0.40064400  0.63909400  1
  C  226  1  0.63139500  0.40754700  0.64252000  1
  C  227  1  0.61925300  0.41476000  0.66596200  1
  C  228  1  0.64087000  0.41521200  0.68591000  1
  C  229  1  0.67414300  0.40926200  0.68280200  1
  C  230  1  0.68570200  0.40164100  0.65930200  1
  C  241  1  0.16571300  0.05224100  0.86617800  1
  C  242  1  0.18730800  0.05024700  0.84633000  1
  C  243  1  0.17640400  0.04153200  0.82284100  1
  C  244  1  0.14331400  0.03463900  0.81958600  1
  C  245  1  0.12110000  0.03658200  0.83910600  1
  C  246  1  0.13257100  0.04531100  0.86244200  1
  C  249  1  0.17672000  0.06376900  0.88907100  1
  C  250  1  0.18362800  0.09699700  0.89244600  1
  C  251  1  0.19094200  0.10918200  0.91586100  1
  C  252  1  0.19148000  0.08759900  0.93582500  1
  C  253  1  0.18553700  0.05431900  0.93276100  1
  C  254  1  0.17781600  0.04271500  0.90929100  1
  C  265  1  0.33875000  0.90029800  0.36617700  1
  C  266  1  0.31715500  0.90229300  0.34633100  1
  C  267  1  0.32805700  0.91100800  0.32284100  1
  C  268  1  0.36114800  0.91789900  0.31958400  1
  C  269  1  0.38336400  0.91595800  0.33910600  1
  C  270  1  0.37189200  0.90722900  0.36244300  1
  C  273  1  0.32774300  0.88877000  0.38906900  1
  C  274  1  0.32083500  0.85554100  0.39244700  1
  C  275  1  0.31352000  0.84335700  0.41585900  1
  C  276  1  0.31298200  0.86494200  0.43582500  1
  C  277  1  0.31892700  0.89821900  0.43276100  1
  C  278  1  0.32664700  0.90982400  0.40929200  1
  C  289  1  0.67659300  0.56394400  0.38911800  1
  C  290  1  0.67759300  0.54292200  0.40936300  1
  C  291  1  0.68539800  0.55451000  0.43282400  1
  C  292  1  0.69142200  0.58778500  0.43586700  1
  C  293  1  0.69095600  0.60932900  0.41588100  1
  C  294  1  0.68357000  0.59715900  0.39247900  1
  C  297  1  0.66562600  0.55244000  0.36620800  1
  C  298  1  0.63248600  0.54556100  0.36242300  1
  C  299  1  0.62104500  0.53696900  0.33904800  1
  C  300  1  0.64328700  0.53510800  0.31954200  1
  C  301  1  0.67637900  0.54194400  0.32285100  1
  C  302  1  0.68725700  0.55051400  0.34637400  1
  C  313  1  0.82786900  0.38859400  0.88911800  1
  C  314  1  0.82686900  0.40961900  0.90936400  1
  C  315  1  0.81906500  0.39803100  0.93282400  1
  C  316  1  0.81304000  0.36475600  0.93586700  1
  C  317  1  0.81350600  0.34321200  0.91588100  1
  C  318  1  0.82089500  0.35538000  0.89248100  1
  C  321  1  0.83883600  0.40009800  0.86620700  1
  C  322  1  0.87197800  0.40698000  0.86242200  1
  C  323  1  0.88341700  0.41556900  0.83905000  1
  C  324  1  0.86117500  0.41743100  0.81954400  1
  C  325  1  0.82808400  0.41059700  0.82285000  1
  C  326  1  0.81720500  0.40202500  0.84637400  1
  C  337  1  0.33980200  0.05172900  0.63909000  1
  C  338  1  0.31876300  0.05065900  0.65932200  1
  C  339  1  0.33034600  0.04281900  0.68277200  1
  C  340  1  0.36362600  0.03685100  0.68582800  1
  C  341  1  0.38520600  0.03739900  0.66586000  1
  C  342  1  0.37302200  0.04477000  0.64245600  1
  C  345  1  0.32828400  0.06274800  0.61619900  1
  C  346  1  0.32140200  0.09589800  0.61245300  1
  C  347  1  0.31271400  0.10737000  0.58910700  1
  C  348  1  0.31076800  0.08514900  0.56959000  1
  C  349  1  0.31759700  0.05205000  0.57286200  1
  C  350  1  0.32626300  0.04114200  0.59635900  1
  C  361  1  0.16466000  0.90081000  0.13909000  1
  C  362  1  0.18570000  0.90188000  0.15932100  1
  C  363  1  0.17411700  0.90972100  0.18277300  1
  C  364  1  0.14083700  0.91569000  0.18582800  1
  C  365  1  0.11925700  0.91513900  0.16586000  1
  C  366  1  0.13144000  0.90776900  0.14245600  1
  C  369  1  0.17617800  0.88979200  0.11619800  1
  C  370  1  0.18306000  0.85664300  0.11245200  1
  C  371  1  0.19174800  0.84517000  0.08910700  1
  C  372  1  0.19369500  0.86739000  0.06959000  1
  C  373  1  0.18686500  0.90048900  0.07286100  1
  C  374  1  0.17820100  0.91139600  0.09635800  1
  C  385  1  0.25416200  0.43704800  0.76554000  1
  C  386  1  0.26939900  0.43444700  0.74264700  1
  C  387  1  0.26677600  0.40556500  0.72890900  1
  C  388  1  0.24879600  0.37967700  0.73884400  1
  C  389  1  0.23351400  0.38228200  0.76169500  1
  C  390  1  0.23614100  0.41116500  0.77538100  1
  C  397  1  0.22233700  0.41428700  0.79824300  1
  C  399  1  0.28052800  0.40197700  0.70599600  1
  C  401  1  0.25030100  0.51549000  0.26553800  1
  C  402  1  0.23506300  0.51809100  0.24264800  1
  C  403  1  0.23768500  0.54697400  0.22890900  1
  C  404  1  0.25566600  0.57286400  0.23884500  1
  C  405  1  0.27094900  0.57025600  0.26169300  1
  C  406  1  0.26832200  0.54137600  0.27538100  1
  C  413  1  0.28212400  0.53825200  0.29824100  1
  C  415  1  0.22393300  0.55056200  0.20599600  1
  C  417  1  0.79101800  0.97821400  0.01554300  1
  C  418  1  0.79359400  0.99338100  0.99262300  1
  C  419  1  0.82247900  0.99074400  0.97888900  1
  C  420  1  0.84839600  0.97283400  0.98885400  1
  C  421  1  0.84581300  0.95762900  0.01173100  1
  C  422  1  0.81693000  0.96026300  0.02541400  1
  C  429  1  0.81382200  0.94649700  0.04828700  1
  C  431  1  0.82605000  0.00443300  0.95595900  1
  C  433  1  0.71344700  0.97432400  0.51554300  1
  C  434  1  0.71086800  0.95916000  0.49262300  1
  C  435  1  0.68198300  0.96179400  0.47888800  1
  C  436  1  0.65606600  0.97970400  0.48885300  1
  C  437  1  0.65865000  0.99491200  0.51173100  1
  C  438  1  0.68753200  0.99227500  0.52541500  1
  C  445  1  0.69064000  0.00604300  0.54828700  1
  C  447  1  0.67841200  0.94810700  0.45595900  1
  C  449  1  0.75027600  0.51509700  0.23892500  1
  C  450  1  0.73513400  0.51764400  0.26185500  1
  C  451  1  0.73777500  0.54651700  0.27560300  1
  C  452  1  0.75566400  0.57245100  0.26564600  1
  C  453  1  0.77084500  0.56989900  0.24275700  1
  C  454  1  0.76820600  0.54102800  0.22905800  1
  C  461  1  0.78195500  0.53795700  0.20617600  1
  C  463  1  0.72409800  0.55006200  0.29853800  1
  C  465  1  0.75418600  0.43744200  0.73892400  1
  C  466  1  0.76932900  0.43489400  0.76185500  1
  C  467  1  0.76668700  0.40602100  0.77560300  1
  C  468  1  0.74879900  0.38008700  0.76564500  1
  C  469  1  0.73361700  0.38264000  0.74275600  1
  C  470  1  0.73625600  0.41151000  0.72905800  1
  C  477  1  0.72250700  0.41458400  0.70617600  1
  C  479  1  0.78036400  0.40247900  0.79853700  1
  C  481  1  0.21395700  0.97444700  0.98897400  1
  C  482  1  0.21138300  0.95931200  0.01190700  1
  C  483  1  0.18245200  0.96185700  0.02559300  1
  C  484  1  0.15648300  0.97963400  0.01557500  1
  C  485  1  0.15906100  0.99480600  0.99268600  1
  C  486  1  0.18799200  0.99227000  0.97904800  1
  C  493  1  0.19108500  0.00602100  0.95617100  1
  C  495  1  0.17887700  0.94820200  0.04852800  1
  C  497  1  0.29050600  0.97809300  0.48897500  1
  C  498  1  0.29308000  0.99322900  0.51190700  1
  C  499  1  0.32201100  0.99068100  0.52559300  1
  C  500  1  0.34797900  0.97290700  0.51557500  1
  C  501  1  0.34540200  0.95773500  0.49268500  1
  C  502  1  0.31647100  0.96027000  0.47904800  1
  C  509  1  0.31337800  0.94651900  0.45617000  1
  C  511  1  0.32558700  0.00433700  0.54852700  1
  C  513  1  0.75399500  0.93768500  0.26548200  1
  C  514  1  0.76926800  0.93504600  0.24260600  1
  C  515  1  0.76677400  0.90609400  0.22893800  1
  C  516  1  0.74888500  0.88017900  0.23892600  1
  C  517  1  0.73356900  0.88282300  0.26175900  1
  C  518  1  0.73606300  0.91177300  0.27537600  1
  C  525  1  0.72223200  0.91492400  0.29822700  1
  C  527  1  0.78054000  0.90246400  0.20603600  1
  C  529  1  0.75046700  0.01485300  0.76548200  1
  C  530  1  0.73519400  0.01749200  0.74260600  1
  C  531  1  0.73768800  0.04644500  0.72893800  1
  C  532  1  0.75557900  0.07236100  0.73892600  1
  C  533  1  0.77089300  0.06971600  0.76176100  1
  C  534  1  0.76839900  0.04076500  0.77537600  1
  C  541  1  0.78223000  0.03761400  0.79822600  1
  C  543  1  0.72392200  0.05007500  0.70603600  1
  C  545  1  0.29137300  0.47816800  0.51554100  1
  C  546  1  0.29398500  0.49345400  0.49266700  1
  C  547  1  0.32287300  0.49085300  0.47893000  1
  C  548  1  0.34875100  0.47283900  0.48885300  1
  C  549  1  0.34613100  0.45751000  0.51168300  1
  C  550  1  0.31724600  0.46011800  0.52536900  1
  C  557  1  0.31411700  0.44628900  0.54822200  1
  C  559  1  0.32647100  0.50464100  0.45603000  1
  C  561  1  0.21308900  0.47437000  0.01554100  1
  C  562  1  0.21047600  0.45908500  0.99266800  1
  C  563  1  0.18158900  0.46168800  0.97893100  1
  C  564  1  0.15571100  0.47969900  0.98885200  1
  C  565  1  0.15833100  0.49502800  0.01168400  1
  C  566  1  0.18721500  0.49242000  0.02536900  1
  C  573  1  0.19034400  0.50624900  0.04822200  1
  C  575  1  0.17799200  0.44789700  0.95603000  1
  C  577  1  0.25042100  0.01447900  0.73897000  1
  C  578  1  0.23524500  0.01707100  0.76188600  1
  C  579  1  0.23777900  0.04600800  0.77556700  1
  C  580  1  0.25559100  0.07196100  0.76556000  1
  C  581  1  0.27080400  0.06936300  0.74268600  1
  C  582  1  0.26828100  0.04042700  0.72905400  1
  C  589  1  0.28206100  0.03731300  0.70618700  1
  C  591  1  0.22409200  0.04959800  0.79849200  1
  C  593  1  0.25404100  0.93806000  0.23897000  1
  C  594  1  0.26921800  0.93546900  0.26188600  1
  C  595  1  0.26668400  0.90653100  0.27556700  1
  C  596  1  0.24887300  0.88057700  0.26555800  1
  C  597  1  0.23365800  0.88317600  0.24268600  1
  C  598  1  0.23618300  0.91211100  0.22905400  1
  C  605  1  0.22240200  0.91522600  0.20618700  1
  C  607  1  0.28037100  0.90294200  0.29849200  1
  C  609  1  0.71359200  0.47448600  0.48898400  1
  C  610  1  0.71097700  0.45923900  0.51187200  1
  C  611  1  0.68203400  0.46174800  0.52555100  1
  C  612  1  0.65610500  0.47961700  0.51556500  1
  C  613  1  0.65872700  0.49490200  0.49271900  1
  C  614  1  0.68766500  0.49239800  0.47909000  1
  C  621  1  0.69079900  0.50621300  0.45623500  1
  C  623  1  0.67842400  0.44799900  0.54845800  1
  C  625  1  0.79087000  0.47805500  0.98898300  1
  C  626  1  0.79348800  0.49330100  0.01187200  1
  C  627  1  0.82242800  0.49079300  0.02555100  1
  C  628  1  0.84836000  0.47292100  0.01556400  1
  C  629  1  0.84573800  0.45763600  0.99271900  1
  C  630  1  0.81679700  0.46014200  0.97909100  1
  C  637  1  0.81366300  0.44632500  0.95623500  1
  C  639  1  0.82603800  0.50454200  0.04845800  1
  C  641  1  0.23297400  0.20975200  0.94413300  1
  C  642  1  0.23409700  0.24375900  0.94403500  1
  C  643  1  0.20919400  0.26191500  0.93277500  1
  C  644  1  0.18391400  0.24482600  0.92113900  1
  C  645  1  0.18278600  0.21077900  0.92121500  1
  C  646  1  0.20749900  0.19266000  0.93281300  1
  C  653  1  0.20675100  0.15915900  0.93477400  1
  C  655  1  0.20895100  0.29548500  0.93431400  1
  C  657  1  0.27148700  0.74278800  0.44413300  1
  C  658  1  0.27036500  0.70877900  0.44403500  1
  C  659  1  0.29526800  0.69062500  0.43277500  1
  C  660  1  0.32055000  0.70771400  0.42113700  1
  C  661  1  0.32167700  0.74176000  0.42121500  1
  C  662  1  0.29696300  0.75988000  0.43281200  1
  C  669  1  0.29771100  0.79337900  0.43477200  1
  C  671  1  0.29551100  0.65705400  0.43431400  1
  C  673  1  0.01869100  0.95730300  0.19402500  1
  C  674  1  0.98468300  0.95846700  0.19389300  1
  C  675  1  0.96651500  0.93356600  0.18264000  1
  C  676  1  0.98359400  0.90825000  0.17104100  1
  C  677  1  0.01764100  0.90708100  0.17115100  1
  C  678  1  0.03577200  0.93178600  0.18274500  1
  C  685  1  0.06927100  0.93099900  0.18473900  1
  C  687  1  0.93293600  0.93336300  0.18415700  1
  C  689  1  0.48577200  0.99523800  0.69402500  1
  C  690  1  0.51977900  0.99407200  0.69389200  1
  C  691  1  0.53795000  0.01897300  0.68264000  1
  C  692  1  0.52086800  0.04429000  0.67104200  1
  C  693  1  0.48682000  0.04545900  0.67115100  1
  C  694  1  0.46869100  0.02075300  0.68274500  1
  C  701  1  0.43519100  0.02154000  0.68473900  1
  C  703  1  0.57152600  0.01917700  0.68415700  1
  C  705  1  0.27107900  0.20799800  0.56056400  1
  C  706  1  0.27020500  0.24201300  0.56065300  1
  C  707  1  0.29542900  0.26000500  0.57165800  1
  C  708  1  0.32078400  0.24275700  0.58306400  1
  C  709  1  0.32165800  0.20870400  0.58300400  1
  C  710  1  0.29661700  0.19075100  0.57166000  1
  C  717  1  0.29712900  0.15724900  0.56973400  1
  C  719  1  0.29588800  0.29357000  0.57009200  1
  C  721  1  0.23338200  0.74454100  0.06056400  1
  C  722  1  0.23425700  0.71052500  0.06065200  1
  C  723  1  0.20903200  0.69253300  0.07165900  1
  C  724  1  0.18367900  0.70978100  0.08306400  1
  C  725  1  0.18280400  0.74383600  0.08300300  1
  C  726  1  0.20784500  0.76178700  0.07166000  1
  C  733  1  0.20733200  0.79529200  0.06973400  1
  C  735  1  0.20857500  0.65896800  0.07009100  1
  C  737  1  0.48400200  0.95764100  0.31061900  1
  C  738  1  0.51801900  0.95856100  0.31075200  1
  C  739  1  0.53602300  0.93338500  0.32181600  1
  C  740  1  0.51877400  0.90804200  0.33323700  1
  C  741  1  0.48472200  0.90712500  0.33313400  1
  C  742  1  0.46676100  0.93211000  0.32172700  1
  C  749  1  0.43326200  0.93155500  0.31976000  1
  C  751  1  0.56959500  0.93296500  0.32028100  1
  C  753  1  0.02046000  0.99489800  0.81061900  1
  C  754  1  0.98644400  0.99397800  0.81075200  1
  C  755  1  0.96844200  0.01915400  0.82181500  1
  C  756  1  0.98568800  0.04449600  0.83323700  1
  C  757  1  0.01974000  0.04541400  0.83313300  1
  C  758  1  0.03770100  0.02042900  0.82172800  1
  C  765  1  0.07120000  0.02098500  0.81976000  1
  C  767  1  0.93486800  0.01957500  0.82028000  1
  C  769  1  0.77154500  0.74275900  0.06021300  1
  C  770  1  0.77032600  0.70875500  0.06036400  1
  C  771  1  0.79512500  0.69056000  0.07172000  1
  C  772  1  0.82039500  0.70761500  0.08339900  1
  C  773  1  0.82161700  0.74166100  0.08327200  1
  C  774  1  0.79701100  0.75981200  0.07157600  1
  C  781  1  0.79786300  0.79330400  0.06957000  1
  C  783  1  0.79528700  0.65698100  0.07022700  1
  C  785  1  0.73291900  0.20977900  0.56021300  1
  C  786  1  0.73413600  0.24378300  0.56036400  1
  C  787  1  0.70933700  0.26197800  0.57172000  1
  C  788  1  0.68406700  0.24492300  0.58340000  1
  C  789  1  0.68284500  0.21087900  0.58327300  1
  C  790  1  0.70745100  0.19272700  0.57157600  1
  C  797  1  0.70659900  0.15923500  0.56957000  1
  C  799  1  0.70917500  0.29556000  0.57022700  1
  C  801  1  0.73312200  0.74451700  0.44405300  1
  C  802  1  0.73409000  0.71050300  0.44391500  1
  C  803  1  0.70902300  0.69246800  0.43274300  1
  C  804  1  0.68374100  0.70968500  0.42121900  1
  C  805  1  0.68277300  0.74373500  0.42132600  1
  C  806  1  0.70764900  0.76172500  0.43284100  1
  C  813  1  0.70702900  0.79521700  0.43481400  1
  C  815  1  0.70864400  0.65889600  0.43426700  1
  C  817  1  0.77134200  0.20802200  0.94405300  1
  C  818  1  0.77037200  0.24203500  0.94391700  1
  C  819  1  0.79543900  0.26007100  0.93274200  1
  C  820  1  0.82072400  0.24285600  0.92121900  1
  C  821  1  0.82168900  0.20880500  0.92132600  1
  C  822  1  0.79681500  0.19081600  0.93284100  1
  C  829  1  0.79743600  0.15732200  0.93481600  1
  C  831  1  0.79582000  0.29364500  0.93426600  1
  C  833  1  0.51870400  0.45660300  0.69437600  1
  C  834  1  0.48469800  0.45777800  0.69423100  1
  C  835  1  0.46653700  0.43297900  0.68284700  1
  C  836  1  0.48361800  0.40775000  0.67114000  1
  C  837  1  0.51766400  0.40657200  0.67126300  1
  C  838  1  0.53578400  0.43118000  0.68298300  1
  C  845  1  0.56927600  0.43036900  0.68498200  1
  C  847  1  0.43296000  0.43277200  0.68434200  1
  C  849  1  0.98576000  0.49593600  0.19437600  1
  C  850  1  0.01976500  0.49476200  0.19423100  1
  C  851  1  0.03792700  0.51956200  0.18284700  1
  C  852  1  0.02084500  0.54479100  0.17114000  1
  C  853  1  0.98680100  0.54596900  0.17126400  1
  C  854  1  0.96867800  0.52136100  0.18298200  1
  C  861  1  0.93518600  0.52217200  0.18498100  1
  C  863  1  0.07150300  0.51976900  0.18434200  1
  C  865  1  0.98401900  0.45699400  0.81033400  1
  C  866  1  0.01803500  0.45791400  0.81045400  1
  C  867  1  0.03603800  0.43279600  0.82159000  1
  C  868  1  0.01880100  0.40750900  0.83308800  1
  C  869  1  0.98474800  0.40659100  0.83299700  1
  C  870  1  0.96679000  0.43152300  0.82152600  1
  C  877  1  0.93329300  0.43095800  0.81957700  1
  C  879  1  0.06960600  0.43236800  0.82005500  1
  C  881  1  0.52044300  0.49554500  0.31033400  1
  C  882  1  0.48642700  0.49462500  0.31045400  1
  C  883  1  0.46842500  0.51974300  0.32159000  1
  C  884  1  0.48566100  0.54503000  0.33308800  1
  C  885  1  0.51971400  0.54594700  0.33299700  1
  C  886  1  0.53767400  0.52101500  0.32152600  1
  C  893  1  0.57116900  0.52158300  0.31957500  1
  C  895  1  0.43485600  0.52017000  0.32005500  1
  C  897  1  0.36913600  0.58273600  0.88828700  1
  C  898  1  0.37096600  0.60433100  0.90814700  1
  C  899  1  0.37956000  0.59344300  0.93166700  1
  C  900  1  0.38653700  0.56037100  0.93493800  1
  C  901  1  0.38477700  0.53817400  0.91539900  1
  C  902  1  0.37610400  0.54960800  0.89204400  1
  C  905  1  0.35767100  0.59368900  0.86535800  1
  C  906  1  0.32446200  0.60065500  0.86195700  1
  C  907  1  0.31232300  0.60793100  0.83852800  1
  C  908  1  0.33388700  0.60829600  0.81855300  1
  C  909  1  0.36715000  0.60224700  0.82162600  1
  C  910  1  0.37872500  0.59461900  0.84512600  1
  C  921  1  0.52168200  0.75615900  0.38828500  1
  C  922  1  0.51985100  0.73456400  0.40814800  1
  C  923  1  0.51125700  0.74545200  0.43166800  1
  C  924  1  0.50428100  0.77852400  0.43493800  1
  C  925  1  0.50604200  0.80072200  0.41539700  1
  C  926  1  0.51471500  0.78928600  0.39204500  1
  C  929  1  0.53314700  0.74520600  0.36535800  1
  C  930  1  0.56635700  0.73824200  0.36195700  1
  C  931  1  0.57849500  0.73096400  0.33852800  1
  C  932  1  0.55693200  0.73059900  0.31855100  1
  C  933  1  0.52366900  0.73664800  0.32162700  1
  C  934  1  0.51209300  0.74427600  0.34512600  1
  C  945  1  0.03199490  0.09329490  0.13829100  1
  C  946  1  0.01042390  0.09522190  0.15816000  1
  C  947  1  0.02134090  0.10391000  0.18165300  1
  C  948  1  0.05442090  0.11088400  0.18488600  1
  C  949  1  0.07659690  0.10903700  0.16533600  1
  C  950  1  0.06512990  0.10026700  0.14201100  1
  C  953  1  0.02098890  0.08181790  0.11538200  1
  C  954  1  0.01403690  0.04860390  0.11197600  1
  C  955  1  0.00677792  0.03644990  0.08854300  1
  C  956  1  0.00633392  0.05805190  0.06858700  1
  C  957  1  0.01232990  0.09131990  0.07167400  1
  C  958  1  0.01999090  0.10288900  0.09516400  1
  C  969  1  0.85882300  0.24560000  0.63829100  1
  C  970  1  0.88039600  0.24367300  0.65815900  1
  C  971  1  0.86947900  0.23498500  0.68165200  1
  C  972  1  0.83639800  0.22801200  0.68488600  1
  C  973  1  0.81422300  0.22985900  0.66533600  1
  C  974  1  0.82568800  0.23862800  0.64201100  1
  C  977  1  0.86982900  0.25707800  0.61538300  1
  C  978  1  0.87678100  0.29029100  0.61197600  1
  C  979  1  0.88404000  0.30244400  0.58854300  1
  C  980  1  0.88448400  0.28084300  0.56858600  1
  C  981  1  0.87849100  0.24757600  0.57167500  1
  C  982  1  0.87082700  0.23600700  0.59516500  1
  C  993  1  0.52110200  0.58162700  0.61533200  1
  C  994  1  0.52020600  0.60266700  0.59509100  1
  C  995  1  0.51246000  0.59111500  0.57160700  1
  C  996  1  0.50638000  0.55785200  0.56854300  1
  C  997  1  0.50675200  0.53629300  0.58852200  1
  C  998  1  0.51408300  0.54842700  0.61194200  1
  C  1001  1  0.53207000  0.59308000  0.63826100  1
  C  1002  1  0.56520200  0.60000800  0.64202700  1
  C  1003  1  0.57664100  0.60863800  0.66539100  1
  C  1004  1  0.55444000  0.61039600  0.68492600  1
  C  1005  1  0.52135800  0.60347800  0.68164300  1
  C  1006  1  0.51046500  0.59493200  0.65811600  1
  C  1017  1  0.36971600  0.75726700  0.11533100  1
  C  1018  1  0.37061300  0.73623000  0.09509100  1
  C  1019  1  0.37835800  0.74778200  0.07160700  1
  C  1020  1  0.38443800  0.78104200  0.06854200  1
  C  1021  1  0.38406700  0.80260400  0.08852100  1
  C  1022  1  0.37673600  0.79046700  0.11194100  1
  C  1025  1  0.35874900  0.74581600  0.13826000  1
  C  1026  1  0.32561500  0.73888600  0.14202700  1
  C  1027  1  0.31417700  0.73025600  0.16539000  1
  C  1028  1  0.33638000  0.72850100  0.18492600  1
  C  1029  1  0.36946000  0.73541600  0.18164400  1
  C  1030  1  0.38035300  0.74396200  0.15811600  1
  C  1041  1  0.85771000  0.09386990  0.36535100  1
  C  1042  1  0.87871800  0.09486490  0.34509700  1
  C  1043  1  0.86712300  0.10270800  0.32164500  1
  C  1044  1  0.83385200  0.10877800  0.31862000  1
  C  1045  1  0.81232300  0.10832200  0.33861500  1
  C  1046  1  0.82450000  0.10089400  0.36200800  1
  C  1049  1  0.86922100  0.08288090  0.38825600  1
  C  1050  1  0.87613400  0.04974090  0.39201700  1
  C  1051  1  0.88475200  0.03828090  0.41538100  1
  C  1052  1  0.88660700  0.06050590  0.43490000  1
  C  1053  1  0.87974200  0.09359490  0.43161700  1
  C  1054  1  0.87114500  0.10449000  0.40810200  1
  C  1065  1  0.03311090  0.24502500  0.86535200  1
  C  1066  1  0.01210290  0.24403100  0.84509700  1
  C  1067  1  0.02369590  0.23618800  0.82164400  1
  C  1068  1  0.05696590  0.23011700  0.81862000  1
  C  1069  1  0.07849490  0.23057400  0.83861700  1
  C  1070  1  0.06631790  0.23800100  0.86200800  1
  C  1073  1  0.02159690  0.25601400  0.88825600  1
  C  1074  1  0.01468390  0.28915400  0.89201900  1
  C  1075  1  0.00606792  0.30061400  0.91538100  1
  C  1076  1  0.00421092  0.27838900  0.93490100  1
  C  1077  1  0.01107590  0.24530000  0.93161700  1
  C  1078  1  0.01967290  0.23440500  0.90810200  1
  C  1089  1  0.02155890  0.75605700  0.11617700  1
  C  1090  1  0.01963590  0.73446700  0.09632000  1
  C  1091  1  0.01097190  0.74536700  0.07281800  1
  C  1092  1  0.00402492  0.77844900  0.06956200  1
  C  1093  1  0.00586992  0.80064300  0.08909900  1
  C  1094  1  0.01461090  0.78919500  0.11243600  1
  C  1097  1  0.03302590  0.74507500  0.13909400  1
  C  1098  1  0.06624490  0.73817100  0.14251900  1
  C  1099  1  0.07838690  0.73095600  0.16596200  1
  C  1100  1  0.05676990  0.73050700  0.18590800  1
  C  1101  1  0.02349790  0.73645500  0.18280000  1
  C  1102  1  0.01193790  0.74407500  0.15930100  1
  C  1113  1  0.86926000  0.58283700  0.61617700  1
  C  1114  1  0.87118200  0.60443000  0.59632000  1
  C  1115  1  0.87984600  0.59352700  0.57281900  1
  C  1116  1  0.88679300  0.56044800  0.56956300  1
  C  1117  1  0.88494800  0.53825400  0.58910000  1
  C  1118  1  0.87620700  0.54970200  0.61243600  1
  C  1121  1  0.85779200  0.59382200  0.63909400  1
  C  1122  1  0.82457300  0.60072500  0.64252000  1
  C  1123  1  0.81243100  0.60793800  0.66596200  1
  C  1124  1  0.83404800  0.60839000  0.68591000  1
  C  1125  1  0.86732100  0.60244000  0.68280200  1
  C  1126  1  0.87888000  0.59481900  0.65930200  1
  C  1137  1  0.35889100  0.24541900  0.86617800  1
  C  1138  1  0.38048600  0.24342500  0.84633000  1
  C  1139  1  0.36958200  0.23471000  0.82284100  1
  C  1140  1  0.33649200  0.22781700  0.81958600  1
  C  1141  1  0.31427800  0.22976000  0.83910600  1
  C  1142  1  0.32574900  0.23848900  0.86244200  1
  C  1145  1  0.36989800  0.25694700  0.88907100  1
  C  1146  1  0.37680600  0.29017500  0.89244600  1
  C  1147  1  0.38412000  0.30236000  0.91586100  1
  C  1148  1  0.38465800  0.28077700  0.93582500  1
  C  1149  1  0.37871500  0.24749700  0.93276100  1
  C  1150  1  0.37099400  0.23589300  0.90929100  1
  C  1161  1  0.53192800  0.09347590  0.36617700  1
  C  1162  1  0.51033300  0.09547090  0.34633100  1
  C  1163  1  0.52123500  0.10418600  0.32284100  1
  C  1164  1  0.55432600  0.11107700  0.31958400  1
  C  1165  1  0.57654200  0.10913600  0.33910600  1
  C  1166  1  0.56507000  0.10040700  0.36244300  1
  C  1169  1  0.52092100  0.08194790  0.38906900  1
  C  1170  1  0.51401300  0.04871890  0.39244700  1
  C  1171  1  0.50669800  0.03653490  0.41585900  1
  C  1172  1  0.50616000  0.05811990  0.43582500  1
  C  1173  1  0.51210500  0.09139690  0.43276100  1
  C  1174  1  0.51982500  0.10300200  0.40929200  1
  C  1185  1  0.86977100  0.75712200  0.38911800  1
  C  1186  1  0.87077100  0.73610000  0.40936300  1
  C  1187  1  0.87857600  0.74768800  0.43282400  1
  C  1188  1  0.88460000  0.78096300  0.43586700  1
  C  1189  1  0.88413400  0.80250700  0.41588100  1
  C  1190  1  0.87674800  0.79033700  0.39247900  1
  C  1193  1  0.85880400  0.74561800  0.36620800  1
  C  1194  1  0.82566400  0.73873900  0.36242300  1
  C  1195  1  0.81422300  0.73014700  0.33904800  1
  C  1196  1  0.83646500  0.72828600  0.31954200  1
  C  1197  1  0.86955700  0.73512200  0.32285100  1
  C  1198  1  0.88043500  0.74369200  0.34637400  1
  C  1209  1  0.02104690  0.58177200  0.88911800  1
  C  1210  1  0.02004690  0.60279700  0.90936400  1
  C  1211  1  0.01224290  0.59120900  0.93282400  1
  C  1212  1  0.00621792  0.55793400  0.93586700  1
  C  1213  1  0.00668392  0.53639000  0.91588100  1
  C  1214  1  0.01407290  0.54855800  0.89248100  1
  C  1217  1  0.03201390  0.59327600  0.86620700  1
  C  1218  1  0.06515590  0.60015800  0.86242200  1
  C  1219  1  0.07659490  0.60874700  0.83905000  1
  C  1220  1  0.05435290  0.61060900  0.81954400  1
  C  1221  1  0.02126190  0.60377500  0.82285000  1
  C  1222  1  0.01038290  0.59520300  0.84637400  1
  C  1233  1  0.53298000  0.24490700  0.63909000  1
  C  1234  1  0.51194100  0.24383700  0.65932200  1
  C  1235  1  0.52352400  0.23599700  0.68277200  1
  C  1236  1  0.55680400  0.23002900  0.68582800  1
  C  1237  1  0.57838400  0.23057700  0.66586000  1
  C  1238  1  0.56620000  0.23794800  0.64245600  1
  C  1241  1  0.52146200  0.25592600  0.61619900  1
  C  1242  1  0.51458000  0.28907600  0.61245300  1
  C  1243  1  0.50589200  0.30054800  0.58910700  1
  C  1244  1  0.50394600  0.27832700  0.56959000  1
  C  1245  1  0.51077500  0.24522800  0.57286200  1
  C  1246  1  0.51944100  0.23432000  0.59635900  1
  C  1257  1  0.35783800  0.09398790  0.13909000  1
  C  1258  1  0.37887800  0.09505790  0.15932100  1
  C  1259  1  0.36729500  0.10289900  0.18277300  1
  C  1260  1  0.33401500  0.10886800  0.18582800  1
  C  1261  1  0.31243500  0.10831700  0.16586000  1
  C  1262  1  0.32461800  0.10094700  0.14245600  1
  C  1265  1  0.36935600  0.08296990  0.11619800  1
  C  1266  1  0.37623800  0.04982090  0.11245200  1
  C  1267  1  0.38492600  0.03834790  0.08910700  1
  C  1268  1  0.38687300  0.06056790  0.06959000  1
  C  1269  1  0.38004300  0.09366690  0.07286100  1
  C  1270  1  0.37137900  0.10457400  0.09635800  1
  C  1281  1  0.44734000  0.63022600  0.76554000  1
  C  1282  1  0.46257700  0.62762500  0.74264700  1
  C  1283  1  0.45995400  0.59874300  0.72890900  1
  C  1284  1  0.44197400  0.57285500  0.73884400  1
  C  1285  1  0.42669200  0.57546000  0.76169500  1
  C  1286  1  0.42931900  0.60434300  0.77538100  1
  C  1293  1  0.41551500  0.60746500  0.79824300  1
  C  1295  1  0.47370600  0.59515500  0.70599600  1
  C  1297  1  0.44347900  0.70866800  0.26553800  1
  C  1298  1  0.42824100  0.71126900  0.24264800  1
  C  1299  1  0.43086300  0.74015200  0.22890900  1
  C  1300  1  0.44884400  0.76604200  0.23884500  1
  C  1301  1  0.46412700  0.76343400  0.26169300  1
  C  1302  1  0.46150000  0.73455400  0.27538100  1
  C  1309  1  0.47530200  0.73143000  0.29824100  1
  C  1311  1  0.41711100  0.74374000  0.20599600  1
  C  1313  1  0.98419600  0.17139200  0.01554300  1
  C  1314  1  0.98677200  0.18655900  0.99262300  1
  C  1315  1  0.01565690  0.18392200  0.97888900  1
  C  1316  1  0.04157390  0.16601200  0.98885400  1
  C  1317  1  0.03899090  0.15080700  0.01173100  1
  C  1318  1  0.01010790  0.15344100  0.02541400  1
  C  1325  1  0.00699992  0.13967500  0.04828700  1
  C  1327  1  0.01922790  0.19761100  0.95595900  1
  C  1329  1  0.90662500  0.16750200  0.51554300  1
  C  1330  1  0.90404600  0.15233800  0.49262300  1
  C  1331  1  0.87516100  0.15497200  0.47888800  1
  C  1332  1  0.84924400  0.17288200  0.48885300  1
  C  1333  1  0.85182800  0.18809000  0.51173100  1
  C  1334  1  0.88071000  0.18545300  0.52541500  1
  C  1341  1  0.88381800  0.19922100  0.54828700  1
  C  1343  1  0.87159000  0.14128500  0.45595900  1
  C  1345  1  0.94345400  0.70827500  0.23892500  1
  C  1346  1  0.92831200  0.71082200  0.26185500  1
  C  1347  1  0.93095300  0.73969500  0.27560300  1
  C  1348  1  0.94884200  0.76562900  0.26564600  1
  C  1349  1  0.96402300  0.76307700  0.24275700  1
  C  1350  1  0.96138400  0.73420600  0.22905800  1
  C  1357  1  0.97513300  0.73113500  0.20617600  1
  C  1359  1  0.91727600  0.74324000  0.29853800  1
  C  1361  1  0.94736400  0.63062000  0.73892400  1
  C  1362  1  0.96250700  0.62807200  0.76185500  1
  C  1363  1  0.95986500  0.59919900  0.77560300  1
  C  1364  1  0.94197700  0.57326500  0.76564500  1
  C  1365  1  0.92679500  0.57581800  0.74275600  1
  C  1366  1  0.92943400  0.60468800  0.72905800  1
  C  1373  1  0.91568500  0.60776200  0.70617600  1
  C  1375  1  0.97354200  0.59565700  0.79853700  1
  C  1377  1  0.40713500  0.16762500  0.98897400  1
  C  1378  1  0.40456100  0.15249000  0.01190700  1
  C  1379  1  0.37563000  0.15503500  0.02559300  1
  C  1380  1  0.34966100  0.17281200  0.01557500  1
  C  1381  1  0.35223900  0.18798400  0.99268600  1
  C  1382  1  0.38117000  0.18544800  0.97904800  1
  C  1389  1  0.38426300  0.19919900  0.95617100  1
  C  1391  1  0.37205500  0.14138000  0.04852800  1
  C  1393  1  0.48368400  0.17127100  0.48897500  1
  C  1394  1  0.48625800  0.18640700  0.51190700  1
  C  1395  1  0.51518900  0.18385900  0.52559300  1
  C  1396  1  0.54115700  0.16608500  0.51557500  1
  C  1397  1  0.53858000  0.15091300  0.49268500  1
  C  1398  1  0.50964900  0.15344800  0.47904800  1
  C  1405  1  0.50655600  0.13969700  0.45617000  1
  C  1407  1  0.51876500  0.19751500  0.54852700  1
  C  1409  1  0.94717300  0.13086300  0.26548200  1
  C  1410  1  0.96244600  0.12822400  0.24260600  1
  C  1411  1  0.95995200  0.09927190  0.22893800  1
  C  1412  1  0.94206300  0.07335690  0.23892600  1
  C  1413  1  0.92674700  0.07600090  0.26175900  1
  C  1414  1  0.92924100  0.10495100  0.27537600  1
  C  1421  1  0.91541000  0.10810200  0.29822700  1
  C  1423  1  0.97371800  0.09564190  0.20603600  1
  C  1425  1  0.94364500  0.20803100  0.76548200  1
  C  1426  1  0.92837200  0.21067000  0.74260600  1
  C  1427  1  0.93086600  0.23962300  0.72893800  1
  C  1428  1  0.94875700  0.26553900  0.73892600  1
  C  1429  1  0.96407100  0.26289400  0.76176100  1
  C  1430  1  0.96157700  0.23394300  0.77537600  1
  C  1437  1  0.97540800  0.23079200  0.79822600  1
  C  1439  1  0.91710000  0.24325300  0.70603600  1
  C  1441  1  0.48455100  0.67134600  0.51554100  1
  C  1442  1  0.48716300  0.68663200  0.49266700  1
  C  1443  1  0.51605100  0.68403100  0.47893000  1
  C  1444  1  0.54192900  0.66601700  0.48885300  1
  C  1445  1  0.53930900  0.65068800  0.51168300  1
  C  1446  1  0.51042400  0.65329600  0.52536900  1
  C  1453  1  0.50729500  0.63946700  0.54822200  1
  C  1455  1  0.51964900  0.69781900  0.45603000  1
  C  1457  1  0.40626700  0.66754800  0.01554100  1
  C  1458  1  0.40365400  0.65226300  0.99266800  1
  C  1459  1  0.37476700  0.65486600  0.97893100  1
  C  1460  1  0.34888900  0.67287700  0.98885200  1
  C  1461  1  0.35150900  0.68820600  0.01168400  1
  C  1462  1  0.38039300  0.68559800  0.02536900  1
  C  1469  1  0.38352200  0.69942700  0.04822200  1
  C  1471  1  0.37117000  0.64107500  0.95603000  1
  C  1473  1  0.44359900  0.20765700  0.73897000  1
  C  1474  1  0.42842300  0.21024900  0.76188600  1
  C  1475  1  0.43095700  0.23918600  0.77556700  1
  C  1476  1  0.44876900  0.26513900  0.76556000  1
  C  1477  1  0.46398200  0.26254100  0.74268600  1
  C  1478  1  0.46145900  0.23360500  0.72905400  1
  C  1485  1  0.47523900  0.23049100  0.70618700  1
  C  1487  1  0.41727000  0.24277600  0.79849200  1
  C  1489  1  0.44721900  0.13123800  0.23897000  1
  C  1490  1  0.46239600  0.12864700  0.26188600  1
  C  1491  1  0.45986200  0.09970890  0.27556700  1
  C  1492  1  0.44205100  0.07375490  0.26555800  1
  C  1493  1  0.42683600  0.07635390  0.24268600  1
  C  1494  1  0.42936100  0.10528900  0.22905400  1
  C  1501  1  0.41558000  0.10840400  0.20618700  1
  C  1503  1  0.47354900  0.09611990  0.29849200  1
  C  1505  1  0.90677000  0.66766400  0.48898400  1
  C  1506  1  0.90415500  0.65241700  0.51187200  1
  C  1507  1  0.87521200  0.65492600  0.52555100  1
  C  1508  1  0.84928300  0.67279500  0.51556500  1
  C  1509  1  0.85190500  0.68808000  0.49271900  1
  C  1510  1  0.88084300  0.68557600  0.47909000  1
  C  1517  1  0.88397700  0.69939100  0.45623500  1
  C  1519  1  0.87160200  0.64117700  0.54845800  1
  C  1521  1  0.98404800  0.67123300  0.98898300  1
  C  1522  1  0.98666600  0.68647900  0.01187200  1
  C  1523  1  0.01560590  0.68397100  0.02555100  1
  C  1524  1  0.04153790  0.66609900  0.01556400  1
  C  1525  1  0.03891590  0.65081400  0.99271900  1
  C  1526  1  0.00997492  0.65332000  0.97909100  1
  C  1533  1  0.00684092  0.63950300  0.95623500  1
  C  1535  1  0.01921590  0.69772000  0.04845800  1
  C  1537  1  0.42615200  0.40293000  0.94413300  1
  C  1538  1  0.42727500  0.43693700  0.94403500  1
  C  1539  1  0.40237200  0.45509300  0.93277500  1
  C  1540  1  0.37709200  0.43800400  0.92113900  1
  C  1541  1  0.37596400  0.40395700  0.92121500  1
  C  1542  1  0.40067700  0.38583800  0.93281300  1
  C  1549  1  0.39992900  0.35233700  0.93477400  1
  C  1551  1  0.40212900  0.48866300  0.93431400  1
  C  1553  1  0.46466500  0.93596600  0.44413300  1
  C  1554  1  0.46354300  0.90195700  0.44403500  1
  C  1555  1  0.48844600  0.88380300  0.43277500  1
  C  1556  1  0.51372800  0.90089200  0.42113700  1
  C  1557  1  0.51485500  0.93493800  0.42121500  1
  C  1558  1  0.49014100  0.95305800  0.43281200  1
  C  1565  1  0.49088900  0.98655700  0.43477200  1
  C  1567  1  0.48868900  0.85023200  0.43431400  1
  C  1569  1  0.21186900  0.15048100  0.19402500  1
  C  1570  1  0.17786100  0.15164500  0.19389300  1
  C  1571  1  0.15969300  0.12674400  0.18264000  1
  C  1572  1  0.17677200  0.10142800  0.17104100  1
  C  1573  1  0.21081900  0.10025900  0.17115100  1
  C  1574  1  0.22895000  0.12496400  0.18274500  1
  C  1581  1  0.26244900  0.12417700  0.18473900  1
  C  1583  1  0.12611400  0.12654100  0.18415700  1
  C  1585  1  0.67895000  0.18841600  0.69402500  1
  C  1586  1  0.71295700  0.18725000  0.69389200  1
  C  1587  1  0.73112800  0.21215100  0.68264000  1
  C  1588  1  0.71404600  0.23746800  0.67104200  1
  C  1589  1  0.67999800  0.23863700  0.67115100  1
  C  1590  1  0.66186900  0.21393100  0.68274500  1
  C  1597  1  0.62836900  0.21471800  0.68473900  1
  C  1599  1  0.76470400  0.21235500  0.68415700  1
  C  1601  1  0.46425700  0.40117600  0.56056400  1
  C  1602  1  0.46338300  0.43519100  0.56065300  1
  C  1603  1  0.48860700  0.45318300  0.57165800  1
  C  1604  1  0.51396200  0.43593500  0.58306400  1
  C  1605  1  0.51483600  0.40188200  0.58300400  1
  C  1606  1  0.48979500  0.38392900  0.57166000  1
  C  1613  1  0.49030700  0.35042700  0.56973400  1
  C  1615  1  0.48906600  0.48674800  0.57009200  1
  C  1617  1  0.42656000  0.93771900  0.06056400  1
  C  1618  1  0.42743500  0.90370300  0.06065200  1
  C  1619  1  0.40221000  0.88571100  0.07165900  1
  C  1620  1  0.37685700  0.90295900  0.08306400  1
  C  1621  1  0.37598200  0.93701400  0.08300300  1
  C  1622  1  0.40102300  0.95496500  0.07166000  1
  C  1629  1  0.40051000  0.98847000  0.06973400  1
  C  1631  1  0.40175300  0.85214600  0.07009100  1
  C  1633  1  0.67718000  0.15081900  0.31061900  1
  C  1634  1  0.71119700  0.15173900  0.31075200  1
  C  1635  1  0.72920100  0.12656300  0.32181600  1
  C  1636  1  0.71195200  0.10122000  0.33323700  1
  C  1637  1  0.67790000  0.10030300  0.33313400  1
  C  1638  1  0.65993900  0.12528800  0.32172700  1
  C  1645  1  0.62644000  0.12473300  0.31976000  1
  C  1647  1  0.76277300  0.12614300  0.32028100  1
  C  1649  1  0.21363800  0.18807600  0.81061900  1
  C  1650  1  0.17962200  0.18715600  0.81075200  1
  C  1651  1  0.16162000  0.21233200  0.82181500  1
  C  1652  1  0.17886600  0.23767400  0.83323700  1
  C  1653  1  0.21291800  0.23859200  0.83313300  1
  C  1654  1  0.23087900  0.21360700  0.82172800  1
  C  1661  1  0.26437800  0.21416300  0.81976000  1
  C  1663  1  0.12804600  0.21275300  0.82028000  1
  C  1665  1  0.96472300  0.93593700  0.06021300  1
  C  1666  1  0.96350400  0.90193300  0.06036400  1
  C  1667  1  0.98830300  0.88373800  0.07172000  1
  C  1668  1  0.01357290  0.90079300  0.08339900  1
  C  1669  1  0.01479490  0.93483900  0.08327200  1
  C  1670  1  0.99018900  0.95299000  0.07157600  1
  C  1677  1  0.99104100  0.98648200  0.06957000  1
  C  1679  1  0.98846500  0.85015900  0.07022700  1
  C  1681  1  0.92609700  0.40295700  0.56021300  1
  C  1682  1  0.92731400  0.43696100  0.56036400  1
  C  1683  1  0.90251500  0.45515600  0.57172000  1
  C  1684  1  0.87724500  0.43810100  0.58340000  1
  C  1685  1  0.87602300  0.40405700  0.58327300  1
  C  1686  1  0.90062900  0.38590500  0.57157600  1
  C  1693  1  0.89977700  0.35241300  0.56957000  1
  C  1695  1  0.90235300  0.48873800  0.57022700  1
  C  1697  1  0.92630000  0.93769500  0.44405300  1
  C  1698  1  0.92726800  0.90368100  0.44391500  1
  C  1699  1  0.90220100  0.88564600  0.43274300  1
  C  1700  1  0.87691900  0.90286300  0.42121900  1
  C  1701  1  0.87595100  0.93691300  0.42132600  1
  C  1702  1  0.90082700  0.95490300  0.43284100  1
  C  1709  1  0.90020700  0.98839500  0.43481400  1
  C  1711  1  0.90182200  0.85207400  0.43426700  1
  C  1713  1  0.96452000  0.40120000  0.94405300  1
  C  1714  1  0.96355000  0.43521300  0.94391700  1
  C  1715  1  0.98861700  0.45324900  0.93274200  1
  C  1716  1  0.01390190  0.43603400  0.92121900  1
  C  1717  1  0.01486690  0.40198300  0.92132600  1
  C  1718  1  0.98999300  0.38399400  0.93284100  1
  C  1725  1  0.99061400  0.35050000  0.93481600  1
  C  1727  1  0.98899800  0.48682300  0.93426600  1
  C  1729  1  0.71188200  0.64978100  0.69437600  1
  C  1730  1  0.67787600  0.65095600  0.69423100  1
  C  1731  1  0.65971500  0.62615700  0.68284700  1
  C  1732  1  0.67679600  0.60092800  0.67114000  1
  C  1733  1  0.71084200  0.59975000  0.67126300  1
  C  1734  1  0.72896200  0.62435800  0.68298300  1
  C  1741  1  0.76245400  0.62354700  0.68498200  1
  C  1743  1  0.62613800  0.62595000  0.68434200  1
  C  1745  1  0.17893800  0.68911400  0.19437600  1
  C  1746  1  0.21294300  0.68794000  0.19423100  1
  C  1747  1  0.23110500  0.71274000  0.18284700  1
  C  1748  1  0.21402300  0.73796900  0.17114000  1
  C  1749  1  0.17997900  0.73914700  0.17126400  1
  C  1750  1  0.16185600  0.71453900  0.18298200  1
  C  1757  1  0.12836400  0.71535000  0.18498100  1
  C  1759  1  0.26468100  0.71294700  0.18434200  1
  C  1761  1  0.17719700  0.65017200  0.81033400  1
  C  1762  1  0.21121300  0.65109200  0.81045400  1
  C  1763  1  0.22921600  0.62597400  0.82159000  1
  C  1764  1  0.21197900  0.60068700  0.83308800  1
  C  1765  1  0.17792600  0.59976900  0.83299700  1
  C  1766  1  0.15996800  0.62470100  0.82152600  1
  C  1773  1  0.12647100  0.62413600  0.81957700  1
  C  1775  1  0.26278400  0.62554600  0.82005500  1
  C  1777  1  0.71362100  0.68872300  0.31033400  1
  C  1778  1  0.67960500  0.68780300  0.31045400  1
  C  1779  1  0.66160300  0.71292100  0.32159000  1
  C  1780  1  0.67883900  0.73820800  0.33308800  1
  C  1781  1  0.71289200  0.73912500  0.33299700  1
  C  1782  1  0.73085200  0.71419300  0.32152600  1
  C  1789  1  0.76434700  0.71476100  0.31957500  1
  C  1791  1  0.62803400  0.71334800  0.32005500  1
  N  21  1  0.19228300  0.40797200  0.80172600  1
  N  22  1  0.08733200  0.41860700  0.83622200  1
  N  23  1  0.19551800  0.31323600  0.91801400  1
  N  24  1  0.18776100  0.41905800  0.95136800  1
  N  45  1  0.31218000  0.54456600  0.30172600  1
  N  46  1  0.41713100  0.53393400  0.33622200  1
  N  47  1  0.30894500  0.63930300  0.41801300  1
  N  48  1  0.31670100  0.53348200  0.45136800  1
  N  69  1  0.82019500  0.91646000  0.05177900  1
  N  70  1  0.80979900  0.81143900  0.08628300  1
  N  71  1  0.91518300  0.91978000  0.16792700  1
  N  72  1  0.80939100  0.91218800  0.20136200  1
  N  93  1  0.68426700  0.03608100  0.55177900  1
  N  94  1  0.69466300  0.14110000  0.58628300  1
  N  95  1  0.58928000  0.03276000  0.66792600  1
  N  96  1  0.69507100  0.04035100  0.70136200  1
  N  117  1  0.30938600  0.41169800  0.70134000  1
  N  118  1  0.41522100  0.41936000  0.66802200  1
  N  119  1  0.30970000  0.31130100  0.58623000  1
  N  120  1  0.32043100  0.41623300  0.55169800  1
  N  141  1  0.19507600  0.54084300  0.20134000  1
  N  142  1  0.08924000  0.53317800  0.16802200  1
  N  143  1  0.19476300  0.64123700  0.08623000  1
  N  144  1  0.18403200  0.53630800  0.05169800  1
  N  165  1  0.68800800  0.91920800  0.45131200  1
  N  166  1  0.69539900  0.81332200  0.41796900  1
  N  167  1  0.58732600  0.91901500  0.33635500  1
  N  168  1  0.69221400  0.90844300  0.30172400  1
  N  189  1  0.81645400  0.03333200  0.95131200  1
  N  190  1  0.80906300  0.13921600  0.91796900  1
  N  191  1  0.91713600  0.03352400  0.83635400  1
  N  192  1  0.81224800  0.04409700  0.80172400  1
  N  213  1  0.81199200  0.54433700  0.20268800  1
  N  214  1  0.91704700  0.53402800  0.16824000  1
  N  215  1  0.80880900  0.63922800  0.08648600  1
  N  216  1  0.81634800  0.53340800  0.05311600  1
  N  237  1  0.69247000  0.40820400  0.70268800  1
  N  238  1  0.58741800  0.41851300  0.66824100  1
  N  239  1  0.69565300  0.31331000  0.58648600  1
  N  240  1  0.68811400  0.41913100  0.55311600  1
  N  261  1  0.18454000  0.03601800  0.95265900  1
  N  262  1  0.19469500  0.14102500  0.91810700  1
  N  263  1  0.08931500  0.03277500  0.83653600  1
  N  264  1  0.19518000  0.04004000  0.80314100  1
  N  285  1  0.31992200  0.91652300  0.45266000  1
  N  286  1  0.30976800  0.81151400  0.41810700  1
  N  287  1  0.41514900  0.91976300  0.33653700  1
  N  288  1  0.30928300  0.91250000  0.30314100  1
  N  309  1  0.69518200  0.54050700  0.30316400  1
  N  310  1  0.58926500  0.53318800  0.33643700  1
  N  311  1  0.69478100  0.64115000  0.41815800  1
  N  312  1  0.68432100  0.53623000  0.45274000  1
  N  333  1  0.80928300  0.41203400  0.80316400  1
  N  334  1  0.91519700  0.41935100  0.83643600  1
  N  335  1  0.80968100  0.31138800  0.91816000  1
  N  336  1  0.82014200  0.41630800  0.95273900  1
  N  357  1  0.31608500  0.03327000  0.55316500  1
  N  358  1  0.30893300  0.13915500  0.58651900  1
  N  359  1  0.41704700  0.03363000  0.66809300  1
  N  360  1  0.31206200  0.04384500  0.70268200  1
  N  381  1  0.18837800  0.91927100  0.05316500  1
  N  382  1  0.19553000  0.81338500  0.08651800  1
  N  383  1  0.08741400  0.91890900  0.16809300  1
  N  384  1  0.19240100  0.90869400  0.20268300  1
  N  917  1  0.38546100  0.60115000  0.80172600  1
  N  918  1  0.28051000  0.61178500  0.83622200  1
  N  919  1  0.38869600  0.50641400  0.91801400  1
  N  920  1  0.38093900  0.61223600  0.95136800  1
  N  941  1  0.50535800  0.73774400  0.30172600  1
  N  942  1  0.61030900  0.72711200  0.33622200  1
  N  943  1  0.50212300  0.83248100  0.41801300  1
  N  944  1  0.50987900  0.72666000  0.45136800  1
  N  965  1  0.01337290  0.10963800  0.05177900  1
  N  966  1  0.00297692  0.00461692  0.08628300  1
  N  967  1  0.10836100  0.11295800  0.16792700  1
  N  968  1  0.00256892  0.10536600  0.20136200  1
  N  989  1  0.87744500  0.22925900  0.55177900  1
  N  990  1  0.88784100  0.33427800  0.58628300  1
  N  991  1  0.78245800  0.22593800  0.66792600  1
  N  992  1  0.88824900  0.23352900  0.70136200  1
  N  1013  1  0.50256400  0.60487600  0.70134000  1
  N  1014  1  0.60839900  0.61253800  0.66802200  1
  N  1015  1  0.50287800  0.50447900  0.58623000  1
  N  1016  1  0.51360900  0.60941100  0.55169800  1
  N  1037  1  0.38825400  0.73402100  0.20134000  1
  N  1038  1  0.28241800  0.72635600  0.16802200  1
  N  1039  1  0.38794100  0.83441500  0.08623000  1
  N  1040  1  0.37721000  0.72948600  0.05169800  1
  N  1061  1  0.88118600  0.11238600  0.45131200  1
  N  1062  1  0.88857700  0.00649992  0.41796900  1
  N  1063  1  0.78050400  0.11219300  0.33635500  1
  N  1064  1  0.88539200  0.10162100  0.30172400  1
  N  1085  1  0.00963192  0.22651000  0.95131200  1
  N  1086  1  0.00224092  0.33239400  0.91796900  1
  N  1087  1  0.11031400  0.22670200  0.83635400  1
  N  1088  1  0.00542592  0.23727500  0.80172400  1
  N  1109  1  0.00516992  0.73751500  0.20268800  1
  N  1110  1  0.11022500  0.72720600  0.16824000  1
  N  1111  1  0.00198692  0.83240600  0.08648600  1
  N  1112  1  0.00952592  0.72658600  0.05311600  1
  N  1133  1  0.88564800  0.60138200  0.70268800  1
  N  1134  1  0.78059600  0.61169100  0.66824100  1
  N  1135  1  0.88883100  0.50648800  0.58648600  1
  N  1136  1  0.88129200  0.61230900  0.55311600  1
  N  1157  1  0.37771800  0.22919600  0.95265900  1
  N  1158  1  0.38787300  0.33420300  0.91810700  1
  N  1159  1  0.28249300  0.22595300  0.83653600  1
  N  1160  1  0.38835800  0.23321800  0.80314100  1
  N  1181  1  0.51310000  0.10970100  0.45266000  1
  N  1182  1  0.50294600  0.00469192  0.41810700  1
  N  1183  1  0.60832700  0.11294100  0.33653700  1
  N  1184  1  0.50246100  0.10567800  0.30314100  1
  N  1205  1  0.88836000  0.73368500  0.30316400  1
  N  1206  1  0.78244300  0.72636600  0.33643700  1
  N  1207  1  0.88795900  0.83432800  0.41815800  1
  N  1208  1  0.87749900  0.72940800  0.45274000  1
  N  1229  1  0.00246092  0.60521200  0.80316400  1
  N  1230  1  0.10837500  0.61252900  0.83643600  1
  N  1231  1  0.00285892  0.50456600  0.91816000  1
  N  1232  1  0.01331990  0.60948600  0.95273900  1
  N  1253  1  0.50926300  0.22644800  0.55316500  1
  N  1254  1  0.50211100  0.33233300  0.58651900  1
  N  1255  1  0.61022500  0.22680800  0.66809300  1
  N  1256  1  0.50524000  0.23702300  0.70268200  1
  N  1277  1  0.38155600  0.11244900  0.05316500  1
  N  1278  1  0.38870800  0.00656292  0.08651800  1
  N  1279  1  0.28059200  0.11208700  0.16809300  1
  N  1280  1  0.38557900  0.10187200  0.20268300  1
  O  17  1  0.17919400  0.33502600  0.87335900  1
  O  18  1  0.11040200  0.40478500  0.88106600  1
  O  41  1  0.32526800  0.61751200  0.37335900  1
  O  42  1  0.39406100  0.54775600  0.38106700  1
  O  65  1  0.89332900  0.90328800  0.12331600  1
  O  66  1  0.82364500  0.83454300  0.13107800  1
  O  89  1  0.61113300  0.04925100  0.62331600  1
  O  90  1  0.68081900  0.11799700  0.63107800  1
  O  113  1  0.32358500  0.33437400  0.63105700  1
  O  114  1  0.39343300  0.40309000  0.62334700  1
  O  137  1  0.18087700  0.61816700  0.13105600  1
  O  138  1  0.11102900  0.54944900  0.12334600  1
  O  161  1  0.61048100  0.90496400  0.38113800  1
  O  162  1  0.67911200  0.83516100  0.37334400  1
  O  185  1  0.89398100  0.04757600  0.88113700  1
  O  186  1  0.82535300  0.11737800  0.87334600  1
  O  209  1  0.82523700  0.61741100  0.13111900  1
  O  210  1  0.89396200  0.54778500  0.12342600  1
  O  233  1  0.67922600  0.33513000  0.63112000  1
  O  234  1  0.61050000  0.40475400  0.62342500  1
  O  257  1  0.11118400  0.04921900  0.88111900  1
  O  258  1  0.18076300  0.11785700  0.87333700  1
  O  281  1  0.39327900  0.90331900  0.38111800  1
  O  282  1  0.32369900  0.83468300  0.37333700  1
  O  305  1  0.68080500  0.61801200  0.37335700  1
  O  306  1  0.61106500  0.54941500  0.38108300  1
  O  329  1  0.82365700  0.33452600  0.87335700  1
  O  330  1  0.89339700  0.40312400  0.88108300  1
  O  353  1  0.39387500  0.04762700  0.62334100  1
  O  354  1  0.32532400  0.11729000  0.63112200  1
  O  377  1  0.11058600  0.90491300  0.12334100  1
  O  378  1  0.17913800  0.83524800  0.13112200  1
  O  392  1  0.28510600  0.46078200  0.73368500  1
  O  394  1  0.21774300  0.35599500  0.77068500  1
  O  408  1  0.21935700  0.49175600  0.23368500  1
  O  410  1  0.28671900  0.59654300  0.27068400  1
  O  424  1  0.76724500  0.00902700  0.98362700  1
  O  426  1  0.87212100  0.94191900  0.02074500  1
  O  440  1  0.73722000  0.94351200  0.48362700  1
  O  442  1  0.63234100  0.01062200  0.52074600  1
  O  456  1  0.71950600  0.49128000  0.27084400  1
  O  458  1  0.78653600  0.59622400  0.23374800  1
  O  472  1  0.78495700  0.46125800  0.77084300  1
  O  474  1  0.71792600  0.35631400  0.73374800  1
  O  488  1  0.23776900  0.94378800  0.02096300  1
  O  490  1  0.13270400  0.01038300  0.98361800  1
  O  504  1  0.26669400  0.00875300  0.52096300  1
  O  506  1  0.37175900  0.94215800  0.48361800  1
  O  520  1  0.78488200  0.96140000  0.23358300  1
  O  522  1  0.71789700  0.85651000  0.27080400  1
  O  536  1  0.71958000  0.99113800  0.73358300  1
  O  538  1  0.78656500  0.09603000  0.77080300  1
  O  552  1  0.26765800  0.50918600  0.48372000  1
  O  554  1  0.37241100  0.44171600  0.52066100  1
  O  568  1  0.23680400  0.44335300  0.98372000  1
  O  570  1  0.13205200  0.51082500  0.02066100  1
  O  584  1  0.21969300  0.99069600  0.77093200  1
  O  586  1  0.28641500  0.09570600  0.73362800  1
  O  600  1  0.28476800  0.96184500  0.27093300  1
  O  602  1  0.21804800  0.85683300  0.23362700  1
  O  616  1  0.73733800  0.44364000  0.52089300  1
  O  618  1  0.63240200  0.51056000  0.48367700  1
  O  632  1  0.76712400  0.50889800  0.02089300  1
  O  634  1  0.87206100  0.44197900  0.98367800  1
  O  648  1  0.25909300  0.25824700  0.95588800  1
  O  650  1  0.15714300  0.19635700  0.91013400  1
  O  664  1  0.24537000  0.69429100  0.45588600  1
  O  666  1  0.34731900  0.75618300  0.41013400  1
  O  680  1  0.97021200  0.98350000  0.20570700  1
  O  682  1  0.03205000  0.88140600  0.16010300  1
  O  696  1  0.53425300  0.96903800  0.70570700  1
  O  698  1  0.47241200  0.07113400  0.66010400  1
  O  712  1  0.24510900  0.25666300  0.54903500  1
  O  714  1  0.34738200  0.19410700  0.59384500  1
  O  728  1  0.25935300  0.69587500  0.04903500  1
  O  730  1  0.15707900  0.75843300  0.09384600  1
  O  744  1  0.53265700  0.98364700  0.29911600  1
  O  746  1  0.47013500  0.88141300  0.34399900  1
  O  760  1  0.97180600  0.96889100  0.79911600  1
  O  762  1  0.03432900  0.07112600  0.84399900  1
  O  776  1  0.74534600  0.69430800  0.04846600  1
  O  778  1  0.84724200  0.75604500  0.09440200  1
  O  792  1  0.75911700  0.25823100  0.54846600  1
  O  794  1  0.65722000  0.19649400  0.59440200  1
  O  808  1  0.75911200  0.69589900  0.45565500  1
  O  810  1  0.65712100  0.75829600  0.41035800  1
  O  824  1  0.74535000  0.25664200  0.95565700  1
  O  826  1  0.84734100  0.19424400  0.91035900  1
  O  840  1  0.47021900  0.48271300  0.70616000  1
  O  842  1  0.53208000  0.38098300  0.66010700  1
  O  856  1  0.03424400  0.46982600  0.20615800  1
  O  858  1  0.97238500  0.57155800  0.16010700  1
  O  872  1  0.03267200  0.48293500  0.79873900  1
  O  874  1  0.97016100  0.38093500  0.84393700  1
  O  888  1  0.47179100  0.46960300  0.29873900  1
  O  890  1  0.53430100  0.57160600  0.34393700  1
  O  913  1  0.37237200  0.52820400  0.87335900  1
  O  914  1  0.30358000  0.59796300  0.88106600  1
  O  937  1  0.51844600  0.81069000  0.37335900  1
  O  938  1  0.58723900  0.74093400  0.38106700  1
  O  961  1  0.08650690  0.09646590  0.12331600  1
  O  962  1  0.01682290  0.02772090  0.13107800  1
  O  985  1  0.80431100  0.24242900  0.62331600  1
  O  986  1  0.87399700  0.31117500  0.63107800  1
  O  1009  1  0.51676300  0.52755200  0.63105700  1
  O  1010  1  0.58661100  0.59626800  0.62334700  1
  O  1033  1  0.37405500  0.81134500  0.13105600  1
  O  1034  1  0.30420700  0.74262700  0.12334600  1
  O  1057  1  0.80365900  0.09814190  0.38113800  1
  O  1058  1  0.87229000  0.02833890  0.37334400  1
  O  1081  1  0.08715890  0.24075400  0.88113700  1
  O  1082  1  0.01853090  0.31055600  0.87334600  1
  O  1105  1  0.01841490  0.81058900  0.13111900  1
  O  1106  1  0.08713990  0.74096300  0.12342600  1
  O  1129  1  0.87240400  0.52830800  0.63112000  1
  O  1130  1  0.80367800  0.59793200  0.62342500  1
  O  1153  1  0.30436200  0.24239700  0.88111900  1
  O  1154  1  0.37394100  0.31103500  0.87333700  1
  O  1177  1  0.58645700  0.09649690  0.38111800  1
  O  1178  1  0.51687700  0.02786090  0.37333700  1
  O  1201  1  0.87398300  0.81119000  0.37335700  1
  O  1202  1  0.80424300  0.74259300  0.38108300  1
  O  1225  1  0.01683490  0.52770400  0.87335700  1
  O  1226  1  0.08657490  0.59630200  0.88108300  1
  O  1249  1  0.58705300  0.24080500  0.62334100  1
  O  1250  1  0.51850200  0.31046800  0.63112200  1
  O  1273  1  0.30376400  0.09809090  0.12334100  1
  O  1274  1  0.37231600  0.02842590  0.13112200  1
  O  1288  1  0.47828400  0.65396000  0.73368500  1
  O  1290  1  0.41092100  0.54917300  0.77068500  1
  O  1304  1  0.41253500  0.68493400  0.23368500  1
  O  1306  1  0.47989700  0.78972100  0.27068400  1
  O  1320  1  0.96042300  0.20220500  0.98362700  1
  O  1322  1  0.06529890  0.13509700  0.02074500  1
  O  1336  1  0.93039800  0.13669000  0.48362700  1
  O  1338  1  0.82551900  0.20380000  0.52074600  1
  O  1352  1  0.91268400  0.68445800  0.27084400  1
  O  1354  1  0.97971400  0.78940200  0.23374800  1
  O  1368  1  0.97813500  0.65443600  0.77084300  1
  O  1370  1  0.91110400  0.54949200  0.73374800  1
  O  1384  1  0.43094700  0.13696600  0.02096300  1
  O  1386  1  0.32588200  0.20356100  0.98361800  1
  O  1400  1  0.45987200  0.20193100  0.52096300  1
  O  1402  1  0.56493700  0.13533600  0.48361800  1
  O  1416  1  0.97806000  0.15457800  0.23358300  1
  O  1418  1  0.91107500  0.04968790  0.27080400  1
  O  1432  1  0.91275800  0.18431600  0.73358300  1
  O  1434  1  0.97974300  0.28920800  0.77080300  1
  O  1448  1  0.46083600  0.70236400  0.48372000  1
  O  1450  1  0.56558900  0.63489400  0.52066100  1
  O  1464  1  0.42998200  0.63653100  0.98372000  1
  O  1466  1  0.32523000  0.70400300  0.02066100  1
  O  1480  1  0.41287100  0.18387400  0.77093200  1
  O  1482  1  0.47959300  0.28888400  0.73362800  1
  O  1496  1  0.47794600  0.15502300  0.27093300  1
  O  1498  1  0.41122600  0.05001090  0.23362700  1
  O  1512  1  0.93051600  0.63681800  0.52089300  1
  O  1514  1  0.82558000  0.70373800  0.48367700  1
  O  1528  1  0.96030200  0.70207600  0.02089300  1
  O  1530  1  0.06523890  0.63515700  0.98367800  1
  O  1544  1  0.45227100  0.45142500  0.95588800  1
  O  1546  1  0.35032100  0.38953500  0.91013400  1
  O  1560  1  0.43854800  0.88746900  0.45588600  1
  O  1562  1  0.54049700  0.94936100  0.41013400  1
  O  1576  1  0.16339000  0.17667800  0.20570700  1
  O  1578  1  0.22522800  0.07458390  0.16010300  1
  O  1592  1  0.72743100  0.16221600  0.70570700  1
  O  1594  1  0.66559000  0.26431200  0.66010400  1
  O  1608  1  0.43828700  0.44984100  0.54903500  1
  O  1610  1  0.54056000  0.38728500  0.59384500  1
  O  1624  1  0.45253100  0.88905300  0.04903500  1
  O  1626  1  0.35025700  0.95161100  0.09384600  1
  O  1640  1  0.72583500  0.17682500  0.29911600  1
  O  1642  1  0.66331300  0.07459090  0.34399900  1
  O  1656  1  0.16498400  0.16206900  0.79911600  1
  O  1658  1  0.22750700  0.26430400  0.84399900  1
  O  1672  1  0.93852400  0.88748600  0.04846600  1
  O  1674  1  0.04041990  0.94922300  0.09440200  1
  O  1688  1  0.95229500  0.45140900  0.54846600  1
  O  1690  1  0.85039800  0.38967200  0.59440200  1
  O  1704  1  0.95229000  0.88907700  0.45565500  1
  O  1706  1  0.85029900  0.95147400  0.41035800  1
  O  1720  1  0.93852800  0.44982000  0.95565700  1
  O  1722  1  0.04051890  0.38742200  0.91035900  1
  O  1736  1  0.66339700  0.67589100  0.70616000  1
  O  1738  1  0.72525800  0.57416100  0.66010700  1
  O  1752  1  0.22742200  0.66300400  0.20615800  1
  O  1754  1  0.16556300  0.76473600  0.16010700  1
  O  1768  1  0.22585000  0.67611300  0.79873900  1
  O  1770  1  0.16333900  0.57411300  0.84393700  1
  O  1784  1  0.66496900  0.66278100  0.29873900  1
  O  1786  1  0.72747900  0.76478400  0.34393700  1
