# generated using pymatgen
data_H5C10N2O
_symmetry_space_group_name_H-M   'P 1'
_cell_length_a   37.32304855
_cell_length_b   37.32304855
_cell_length_c   37.37890128
_cell_angle_alpha   106.76213049
_cell_angle_beta   106.76174825
_cell_angle_gamma   114.98274148
_symmetry_Int_Tables_number   1
_chemical_formula_structural   H5C10N2O
_chemical_formula_sum   'H320 C640 N128 O64'
_cell_volume   39826.13390620
_cell_formula_units_Z   64
loop_
 _symmetry_equiv_pos_site_id
 _symmetry_equiv_pos_as_xyz
  1  'x, y, z'
loop_
 _atom_site_type_symbol
 _atom_site_label
 _atom_site_symmetry_multiplicity
 _atom_site_fract_x
 _atom_site_fract_y
 _atom_site_fract_z
 _atom_site_occupancy
  C  1  1  0.98740350  0.66636300  0.50211450  1
  C  2  1  0.00436450  0.70942000  0.53428850  1
  C  3  1  0.00467300  0.71620600  0.57334500  1
  C  4  1  0.99293150  0.68043450  0.58297000  1
  C  5  1  0.97802900  0.63729000  0.55317900  1
  C  6  1  0.96963150  0.62984400  0.51134850  1
  C  9  1  0.99433300  0.66164100  0.46513900  1
  C  10  1  0.00167700  0.69308550  0.44909250  1
  C  11  1  0.01901900  0.69252650  0.41989450  1
  C  12  1  0.01857950  0.65431700  0.39871250  1
  C  13  1  0.00640550  0.61957550  0.40991200  1
  C  14  1  0.00009950  0.62706500  0.44610350  1
  C  21  1  0.16894100  0.89119500  0.90853400  1
  C  22  1  0.17983050  0.87590150  0.87638300  1
  C  23  1  0.14753150  0.83719550  0.83729000  1
  C  24  1  0.10212300  0.81589550  0.82761550  1
  C  25  1  0.08885900  0.83085600  0.85744800  1
  C  26  1  0.12316900  0.86429100  0.89928800  1
  C  29  1  0.20126350  0.93510650  0.94549500  1
  C  30  1  0.24875150  0.95835000  0.96154850  1
  C  31  1  0.27746050  0.00489100  0.99075050  1
  C  32  1  0.26057200  0.02571500  0.01204800  1
  C  33  1  0.21463750  0.00243450  0.00088900  1
  C  34  1  0.18583350  0.95996950  0.96464500  1
  C  41  1  0.94111450  0.93790400  0.22707350  1
  C  42  1  0.92591250  0.95494750  0.20105100  1
  C  43  1  0.88721000  0.95543900  0.19468800  1
  C  44  1  0.86589550  0.94380500  0.21876250  1
  C  45  1  0.88075350  0.92878350  0.24690100  1
  C  46  1  0.91415050  0.92023450  0.24587600  1
  C  49  1  0.98498000  0.94465600  0.23858500  1
  C  50  1  0.00828750  0.95183900  0.21441250  1
  C  51  1  0.05482850  0.96908950  0.23218100  1
  C  52  1  0.07564550  0.96868150  0.26990100  1
  C  53  1  0.05233800  0.95663000  0.29253500  1
  C  54  1  0.00984500  0.95044000  0.27885300  1
  C  61  1  0.71586800  0.11939800  0.18341100  1
  C  62  1  0.75892550  0.13025750  0.20953600  1
  C  63  1  0.76577900  0.09792400  0.21593100  1
  C  64  1  0.73009000  0.05252500  0.19187000  1
  C  65  1  0.68697000  0.03928750  0.16372050  1
  C  66  1  0.67938350  0.07364300  0.16461450  1
  C  69  1  0.71117350  0.15173600  0.17181150  1
  C  70  1  0.74248550  0.19922250  0.19602100  1
  C  71  1  0.74195350  0.22795900  0.17820450  1
  C  72  1  0.70382400  0.21107450  0.14050450  1
  C  73  1  0.66916200  0.16512150  0.11786350  1
  C  74  1  0.67668150  0.13631800  0.13154550  1
  C  81  1  0.20188800  0.19349350  0.18959950  1
  C  82  1  0.18406800  0.20850550  0.21484550  1
  C  83  1  0.18288300  0.24670100  0.22029300  1
  C  84  1  0.19509950  0.26798650  0.19640800  1
  C  85  1  0.20991550  0.25275400  0.16822250  1
  C  86  1  0.21841500  0.21934100  0.16951500  1
  C  89  1  0.19571250  0.15000950  0.17953700  1
  C  90  1  0.18991000  0.12887200  0.20565000  1
  C  91  1  0.17112300  0.08212550  0.18950050  1
  C  92  1  0.16726000  0.05815400  0.15031700  1
  C  93  1  0.17726750  0.07886400  0.12533450  1
  C  94  1  0.18792950  0.12306550  0.13899300  1
  C  101  1  0.00907150  0.41818950  0.22153700  1
  C  102  1  0.99883650  0.37515450  0.19616000  1
  C  103  1  0.03160550  0.36855700  0.19070450  1
  C  104  1  0.07678500  0.40464500  0.21463500  1
  C  105  1  0.08964050  0.44756550  0.24286300  1
  C  106  1  0.05499950  0.45482850  0.24169400  1
  C  109  1  0.97561900  0.42194050  0.23165650  1
  C  110  1  0.92837550  0.39000300  0.20548850  1
  C  111  1  0.89779050  0.38728300  0.22167650  1
  C  112  1  0.91289800  0.42260200  0.26080100  1
  C  113  1  0.95857150  0.45764950  0.28578800  1
  C  114  1  0.98916200  0.45469250  0.27217850  1
  C  121  1  0.24321500  0.95935400  0.49691800  1
  C  122  1  0.25810550  0.94907250  0.52972900  1
  C  123  1  0.29614450  0.98179000  0.56910250  1
  C  124  1  0.31737050  0.02697700  0.57816950  1
  C  125  1  0.30225100  0.03997850  0.54812950  1
  C  126  1  0.26901300  0.00531800  0.50626200  1
  C  129  1  0.19984867  0.92589267  0.45956400  1
  C  130  1  0.17882650  0.87866500  0.44434750  1
  C  131  1  0.13211850  0.84804850  0.41636600  1
  C  132  1  0.10814150  0.86322150  0.39610200  1
  C  133  1  0.12879250  0.90889450  0.40665500  1
  C  134  1  0.17291900  0.93947400  0.44020900  1
  C  141  1  0.46754050  0.15204000  0.91386650  1
  C  142  1  0.42447750  0.13429500  0.88110250  1
  C  143  1  0.41787550  0.13313150  0.84179000  1
  C  144  1  0.45400600  0.14534550  0.83273250  1
  C  145  1  0.49697200  0.16011350  0.86275550  1
  C  146  1  0.50420050  0.16858850  0.90459300  1
  C  149  1  0.47133100  0.14570100  0.95104200  1
  C  150  1  0.43929800  0.13981600  0.96626600  1
  C  151  1  0.43665100  0.12091100  0.99411500  1
  C  152  1  0.47209550  0.11721450  0.01436400  1
  C  153  1  0.50722050  0.12739150  0.00380900  1
  C  154  1  0.50424150  0.13806400  0.97031150  1
  C  161  1  0.19578050  0.41665600  0.40983050  1
  C  162  1  0.17863300  0.37358700  0.37754300  1
  C  163  1  0.17842650  0.36691450  0.33854000  1
  C  164  1  0.19046800  0.40282150  0.32910850  1
  C  165  1  0.20543750  0.44595350  0.35898500  1
  C  166  1  0.21384750  0.45328050  0.40079600  1
  C  169  1  0.18862400  0.42131300  0.44667200  1
  C  170  1  0.18112550  0.38982150  0.46266100  1
  C  171  1  0.16360950  0.39034900  0.49172350  1
  C  172  1  0.16391400  0.42850650  0.51277550  1
  C  173  1  0.17614000  0.46325250  0.50158250  1
  C  174  1  0.18271850  0.45583100  0.46553950  1
  C  181  1  0.01222050  0.19206600  0.00118550  1
  C  182  1  0.00138300  0.20723950  0.03341950  1
  C  183  1  0.03370600  0.24598800  0.07246700  1
  C  184  1  0.07906750  0.26742600  0.08197850  1
  C  185  1  0.09232200  0.25247750  0.05213450  1
  C  186  1  0.05791850  0.21909950  0.01029000  1
  C  189  1  0.97999950  0.14807100  0.96433850  1
  C  190  1  0.93251500  0.12468500  0.94832600  1
  C  191  1  0.90394600  0.07810500  0.91926300  1
  C  192  1  0.92094850  0.05731750  0.89810800  1
  C  193  1  0.96688150  0.08068400  0.90927250  1
  C  194  1  0.99557250  0.12327550  0.94535500  1
  C  201  1  0.24139500  0.14642050  0.68481550  1
  C  202  1  0.25663100  0.12938100  0.71082400  1
  C  203  1  0.29548950  0.12917250  0.71731900  1
  C  204  1  0.31694800  0.14111700  0.69343500  1
  C  205  1  0.30194650  0.15597550  0.66519300  1
  C  206  1  0.26846350  0.16438800  0.66620550  1
  C  209  1  0.19733950  0.13923400  0.67297150  1
  C  210  1  0.17386100  0.13189450  0.69697850  1
  C  211  1  0.12726450  0.11439300  0.67897650  1
  C  212  1  0.10645550  0.11451150  0.64107500  1
  C  213  1  0.12983750  0.12653250  0.61848800  1
  C  214  1  0.17250950  0.13312850  0.63252400  1
  C  221  1  0.46655450  0.96242200  0.72611050  1
  C  222  1  0.42350700  0.95162800  0.70004900  1
  C  223  1  0.41680700  0.98398900  0.69353100  1
  C  224  1  0.45263950  0.02933500  0.71736450  1
  C  225  1  0.49571350  0.04250850  0.74555500  1
  C  226  1  0.50315800  0.00807050  0.74466450  1
  C  229  1  0.47114250  0.93024600  0.73807050  1
  C  230  1  0.43981900  0.88276050  0.71406650  1
  C  231  1  0.44030800  0.85423700  0.73217200  1
  C  232  1  0.47834650  0.87132200  0.77004650  1
  C  233  1  0.51296550  0.91728700  0.79258550  1
  C  234  1  0.50550050  0.94590100  0.77852050  1
  C  241  1  0.97890450  0.88920800  0.72016250  1
  C  242  1  0.99694050  0.87428350  0.69512600  1
  C  243  1  0.99791800  0.83597500  0.68961000  1
  C  244  1  0.98528750  0.81450450  0.71324200  1
  C  245  1  0.97042250  0.82976850  0.74135900  1
  C  246  1  0.96197150  0.86319300  0.73997350  1
  C  249  1  0.98535750  0.93281500  0.73042850  1
  C  250  1  0.99144600  0.95415017  0.70451217  1
  C  251  1  0.01037700  0.00091800  0.72082800  1
  C  252  1  0.01428550  0.02481500  0.76006050  1
  C  253  1  0.00415400  0.00398500  0.78492600  1
  C  254  1  0.99318400  0.95966750  0.77103250  1
  C  261  1  0.17365000  0.66458550  0.69037050  1
  C  262  1  0.18381550  0.70766600  0.71549050  1
  C  263  1  0.15103600  0.71419200  0.72101200  1
  C  264  1  0.10592000  0.67796200  0.69737200  1
  C  265  1  0.09307400  0.63501550  0.66921950  1
  C  266  1  0.12781250  0.62786150  0.67051800  1
  C  269  1  0.20699200  0.66081200  0.68006300  1
  C  270  1  0.25424550  0.69281700  0.70603650  1
  C  271  1  0.28467300  0.69539650  0.68967550  1
  C  272  1  0.26940600  0.66001700  0.65052800  1
  C  273  1  0.22371550  0.62500350  0.62567300  1
  C  274  1  0.19326600  0.62797150  0.63950650  1
  C  281  1  0.93833200  0.12387950  0.41475150  1
  C  282  1  0.92341700  0.13404600  0.38185400  1
  C  283  1  0.88509850  0.10131300  0.34268250  1
  C  284  1  0.86359500  0.05620450  0.33388850  1
  C  285  1  0.87891700  0.04326950  0.36391150  1
  C  286  1  0.91234500  0.07803750  0.40568450  1
  C  289  1  0.98190450  0.15718300  0.45183250  1
  C  290  1  0.00315950  0.20442817  0.46700367  1
  C  291  1  0.04991950  0.23487700  0.49485150  1
  C  292  1  0.07383250  0.21949800  0.51483550  1
  C  293  1  0.05305800  0.17379200  0.50416600  1
  C  294  1  0.00878050  0.14339200  0.47086450  1
  C  301  1  0.71427250  0.92931550  0.99593600  1
  C  302  1  0.75732550  0.94720500  0.02881050  1
  C  303  1  0.76371700  0.94787150  0.06791650  1
  C  304  1  0.72737650  0.93502000  0.07667350  1
  C  305  1  0.68446750  0.92037050  0.04663500  1
  C  306  1  0.67744800  0.91219650  0.00489750  1
  C  309  1  0.71059450  0.93617950  0.95904600  1
  C  310  1  0.74272350  0.94246250  0.94390200  1
  C  311  1  0.74527750  0.96158800  0.91621550  1
  C  312  1  0.70982200  0.96537600  0.89620900  1
  C  313  1  0.67474350  0.95504750  0.90683300  1
  C  314  1  0.67768000  0.94393950  0.94005950  1
  C  641  1  0.04989300  0.60828200  0.63217400  1
  C  642  1  0.04904350  0.59914700  0.59232150  1
  C  643  1  0.01832750  0.60023400  0.56111950  1
  C  644  1  0.98815550  0.61039050  0.56945100  1
  C  649  1  0.98085500  0.82377450  0.77849050  1
  C  650  1  0.01158800  0.86280100  0.81827600  1
  C  651  1  0.04388150  0.86322750  0.84941000  1
  C  652  1  0.04567600  0.82468850  0.84113450  1
  C  657  1  0.87322600  0.00025250  0.34746850  1
  C  658  1  0.91227050  0.99941350  0.35575300  1
  C  659  1  0.91284150  0.96874600  0.32399050  1
  C  660  1  0.87434450  0.93864600  0.28374750  1
  C  665  1  0.65787750  0.93104200  0.06311550  1
  C  666  1  0.64876800  0.96185800  0.05491000  1
  C  667  1  0.64985300  0.99418350  0.08666550  1
  C  668  1  0.65996750  0.99598150  0.12693600  1
  C  673  1  0.13558400  0.25876000  0.06840400  1
  C  674  1  0.13698200  0.21997400  0.05990100  1
  C  675  1  0.16876250  0.21995050  0.09111500  1
  C  676  1  0.19940150  0.25868200  0.13109550  1
  C  681  1  0.19537650  0.47293150  0.34273700  1
  C  682  1  0.16510000  0.48280000  0.35124200  1
  C  683  1  0.13390050  0.48334750  0.31997400  1
  C  684  1  0.13269450  0.47409300  0.27998950  1
  C  689  1  0.30800250  0.14567150  0.62814700  1
  C  690  1  0.26929900  0.11547100  0.58804800  1
  C  691  1  0.26944550  0.08432850  0.55632000  1
  C  692  1  0.30829200  0.08315050  0.56448550  1
  C  697  1  0.52251450  0.08566650  0.78253600  1
  C  698  1  0.53238550  0.08712000  0.82266850  1
  C  699  1  0.53301500  0.11902800  0.85440400  1
  C  700  1  0.52374100  0.14979700  0.84632700  1
  C  769  1  0.97394000  0.49617750  0.32270350  1
  C  770  1  0.95471550  0.49593200  0.35008450  1
  C  771  1  0.96719600  0.53686050  0.38119050  1
  C  772  1  0.99892900  0.57777350  0.38491550  1
  C  777  1  0.17877300  0.05730950  0.08834950  1
  C  778  1  0.15104100  0.01071900  0.06091700  1
  C  779  1  0.16075950  0.99206700  0.02972650  1
  C  780  1  0.19793450  0.02003100  0.02595650  1
  C  785  1  0.10723000  0.92426800  0.38346900  1
  C  786  1  0.06062600  0.90514150  0.36462050  1
  C  787  1  0.04196000  0.91759000  0.33615700  1
  C  788  1  0.06992350  0.94919150  0.32684000  1
  C  793  1  0.54580800  0.12903650  0.02696150  1
  C  794  1  0.54558000  0.10126850  0.04578550  1
  C  795  1  0.58651050  0.11108200  0.07422650  1
  C  796  1  0.62742250  0.14838200  0.08354450  1
  C  801  1  0.20824250  0.58650600  0.58868050  1
  C  802  1  0.22732400  0.58682000  0.56118100  1
  C  803  1  0.21493850  0.54593650  0.53008900  1
  C  804  1  0.18341050  0.50498600  0.52646750  1
  C  809  1  0.00277150  0.02554900  0.82198850  1
  C  810  1  0.03065350  0.07212550  0.84949400  1
  C  811  1  0.02095000  0.09086850  0.88065350  1
  C  812  1  0.98365600  0.06300500  0.88434300  1
  C  817  1  0.07462900  0.15828600  0.52714900  1
  C  818  1  0.12121300  0.17731200  0.54580400  1
  C  819  1  0.13999300  0.16501350  0.57436250  1
  C  820  1  0.11214950  0.13363200  0.58394350  1
  C  825  1  0.63617950  0.95354100  0.88387750  1
  C  826  1  0.63645300  0.98151400  0.86529800  1
  C  827  1  0.59555700  0.97168350  0.83676650  1
  C  828  1  0.55462250  0.93417750  0.82713700  1
  C  897  1  0.10691000  0.80755250  0.41728650  1
  C  898  1  0.11207250  0.80870400  0.45662150  1
  C  899  1  0.08178650  0.77109650  0.45753800  1
  C  900  1  0.04608700  0.73250850  0.41913050  1
  C  905  1  0.39522100  0.09492300  0.99324500  1
  C  906  1  0.35695400  0.06089000  0.95392100  1
  C  907  1  0.31837350  0.02983150  0.95304000  1
  C  908  1  0.31823550  0.03256550  0.99146600  1
  C  913  1  0.14509700  0.05692450  0.20484650  1
  C  914  1  0.11097650  0.06219200  0.20904150  1
  C  915  1  0.07985600  0.03192850  0.21644050  1
  C  916  1  0.08259250  0.99615100  0.21922550  1
  C  921  1  0.85722400  0.34583850  0.20614450  1
  C  922  1  0.85831350  0.30750650  0.20180300  1
  C  923  1  0.82060300  0.26888050  0.19418550  1
  C  924  1  0.78198600  0.26875200  0.19132100  1
  C  961  1  0.07521550  0.27541350  0.49405100  1
  C  962  1  0.07017150  0.27431700  0.45475450  1
  C  963  1  0.10064800  0.31188750  0.45393150  1
  C  964  1  0.13641850  0.35035800  0.49239150  1
  C  969  1  0.78662100  0.98768750  0.91702150  1
  C  970  1  0.82486400  0.02184500  0.95631400  1
  C  971  1  0.86328850  0.05307050  0.95711700  1
  C  972  1  0.86327550  0.05035500  0.91864550  1
  C  977  1  0.03655150  0.02621800  0.70565750  1
  C  978  1  0.07088050  0.02113500  0.70181550  1
  C  979  1  0.10219850  0.05156550  0.69470300  1
  C  980  1  0.09944550  0.08732400  0.69187750  1
  C  985  1  0.32520050  0.73676850  0.70499400  1
  C  986  1  0.32405400  0.77501200  0.70899200  1
  C  987  1  0.36169500  0.81348500  0.71629800  1
  C  988  1  0.40028050  0.81352800  0.71919850  1
  C  1025  1  0.01202300  0.81917650  0.66165250  1
  C  1026  1  0.04647400  0.81180900  0.67515800  1
  C  1027  1  0.04812050  0.78057000  0.64515150  1
  C  1028  1  0.01542150  0.75759750  0.60230000  1
  C  1033  1  0.16223000  0.75625000  0.74902800  1
  C  1034  1  0.14140950  0.77723350  0.73551800  1
  C  1035  1  0.14016100  0.80887150  0.76552550  1
  C  1036  1  0.15997200  0.81894350  0.80835850  1
  C  1041  1  0.80581950  0.96208350  0.09882100  1
  C  1042  1  0.82656500  0.99666650  0.14043350  1
  C  1043  1  0.85835950  0.99858100  0.17341950  1
  C  1044  1  0.86892400  0.96610100  0.16400700  1
  C  1049  1  0.86837300  0.11250950  0.31179050  1
  C  1050  1  0.86133700  0.09166950  0.27016650  1
  C  1051  1  0.83021700  0.09044000  0.23718800  1
  C  1052  1  0.80711600  0.11034800  0.24666000  1
  C  1057  1  0.16707150  0.32538900  0.30922350  1
  C  1058  1  0.13406350  0.30283350  0.26655200  1
  C  1059  1  0.13519050  0.27160500  0.23598250  1
  C  1060  1  0.16939450  0.26376950  0.24876600  1
  C  1065  1  0.02145600  0.26395700  0.10173900  1
  C  1066  1  0.04146050  0.27349700  0.14438350  1
  C  1067  1  0.04076250  0.30515900  0.17495350  1
  C  1068  1  0.02021350  0.32663250  0.16216500  1
  C  1073  1  0.37527700  0.97178700  0.66337900  1
  C  1074  1  0.35254450  0.99175000  0.67388550  1
  C  1075  1  0.32111300  0.99096650  0.64160550  1
  C  1076  1  0.31320150  0.97033600  0.59960650  1
  C  1081  1  0.31349400  0.11785750  0.74751050  1
  C  1082  1  0.32301950  0.08466500  0.73704150  1
  C  1083  1  0.35457750  0.08558900  0.76933750  1
  C  1084  1  0.37592250  0.11973100  0.81129950  1
  C  1153  1  0.53871350  0.21767300  0.50211450  1
  C  1154  1  0.55567450  0.26073000  0.53428850  1
  C  1155  1  0.55598300  0.26751600  0.57334500  1
  C  1156  1  0.54424150  0.23174450  0.58297000  1
  C  1157  1  0.52933900  0.18860000  0.55317900  1
  C  1158  1  0.52094150  0.18115400  0.51134850  1
  C  1161  1  0.54564300  0.21295100  0.46513900  1
  C  1162  1  0.55298700  0.24439550  0.44909250  1
  C  1163  1  0.57032900  0.24383650  0.41989450  1
  C  1164  1  0.56988950  0.20562700  0.39871250  1
  C  1165  1  0.55771550  0.17088550  0.40991200  1
  C  1166  1  0.55140950  0.17837500  0.44610350  1
  C  1173  1  0.72025100  0.44250500  0.90853400  1
  C  1174  1  0.73114050  0.42721150  0.87638300  1
  C  1175  1  0.69884150  0.38850550  0.83729000  1
  C  1176  1  0.65343300  0.36720550  0.82761550  1
  C  1177  1  0.64016900  0.38216600  0.85744800  1
  C  1178  1  0.67447900  0.41560100  0.89928800  1
  C  1181  1  0.75257350  0.48641650  0.94549500  1
  C  1182  1  0.80006150  0.50966000  0.96154850  1
  C  1183  1  0.82877050  0.55620100  0.99075050  1
  C  1184  1  0.81188200  0.57702500  0.01204800  1
  C  1185  1  0.76594750  0.55374450  0.00088900  1
  C  1186  1  0.73714350  0.51127950  0.96464500  1
  C  1193  1  0.49242450  0.48921400  0.22707350  1
  C  1194  1  0.47722250  0.50625750  0.20105100  1
  C  1195  1  0.43852000  0.50674900  0.19468800  1
  C  1196  1  0.41720550  0.49511500  0.21876250  1
  C  1197  1  0.43206350  0.48009350  0.24690100  1
  C  1198  1  0.46546050  0.47154450  0.24587600  1
  C  1201  1  0.53629000  0.49596600  0.23858500  1
  C  1202  1  0.55959760  0.50314910  0.21441250  1
  C  1203  1  0.60613860  0.52039960  0.23218100  1
  C  1204  1  0.62695560  0.51999160  0.26990100  1
  C  1205  1  0.60364810  0.50794010  0.29253500  1
  C  1206  1  0.56115500  0.50175000  0.27885300  1
  C  1213  1  0.26717800  0.67070800  0.18341100  1
  C  1214  1  0.31023550  0.68156750  0.20953600  1
  C  1215  1  0.31708900  0.64923400  0.21593100  1
  C  1216  1  0.28140000  0.60383500  0.19187000  1
  C  1217  1  0.23828000  0.59059750  0.16372050  1
  C  1218  1  0.23069350  0.62495300  0.16461450  1
  C  1221  1  0.26248350  0.70304600  0.17181150  1
  C  1222  1  0.29379560  0.75053260  0.19602100  1
  C  1223  1  0.29326360  0.77926910  0.17820450  1
  C  1224  1  0.25513410  0.76238460  0.14050450  1
  C  1225  1  0.22047210  0.71643160  0.11786350  1
  C  1226  1  0.22799150  0.68762800  0.13154550  1
  C  1233  1  0.75319800  0.74480350  0.18959950  1
  C  1234  1  0.73537800  0.75981550  0.21484550  1
  C  1235  1  0.73419300  0.79801100  0.22029300  1
  C  1236  1  0.74640950  0.81929650  0.19640800  1
  C  1237  1  0.76122550  0.80406400  0.16822250  1
  C  1238  1  0.76972500  0.77065100  0.16951500  1
  C  1241  1  0.74702250  0.70131950  0.17953700  1
  C  1242  1  0.74122000  0.68018200  0.20565000  1
  C  1243  1  0.72243300  0.63343550  0.18950050  1
  C  1244  1  0.71857000  0.60946400  0.15031700  1
  C  1245  1  0.72857750  0.63017400  0.12533450  1
  C  1246  1  0.73923950  0.67437550  0.13899300  1
  C  1253  1  0.56038150  0.96949950  0.22153700  1
  C  1254  1  0.55014650  0.92646450  0.19616000  1
  C  1255  1  0.58291550  0.91986700  0.19070450  1
  C  1256  1  0.62809500  0.95595500  0.21463500  1
  C  1257  1  0.64095050  0.99887550  0.24286300  1
  C  1258  1  0.60630950  0.00613850  0.24169400  1
  C  1261  1  0.52692900  0.97325050  0.23165650  1
  C  1262  1  0.47968550  0.94131300  0.20548850  1
  C  1263  1  0.44910050  0.93859300  0.22167650  1
  C  1264  1  0.46420800  0.97391200  0.26080100  1
  C  1265  1  0.50988150  0.00895950  0.28578800  1
  C  1266  1  0.54047200  0.00600250  0.27217850  1
  C  1273  1  0.79452510  0.51066410  0.49691800  1
  C  1274  1  0.80941550  0.50038250  0.52972900  1
  C  1275  1  0.84745460  0.53310010  0.56910250  1
  C  1276  1  0.86868060  0.57828710  0.57816950  1
  C  1277  1  0.85356110  0.59128860  0.54812950  1
  C  1278  1  0.82032310  0.55662810  0.50626200  1
  C  1281  1  0.75117900  0.47722300  0.45956400  1
  C  1282  1  0.73013650  0.42997500  0.44434750  1
  C  1283  1  0.68342850  0.39935850  0.41636600  1
  C  1284  1  0.65945150  0.41453150  0.39610200  1
  C  1285  1  0.68010250  0.46020450  0.40665500  1
  C  1286  1  0.72422900  0.49078400  0.44020900  1
  C  1293  1  0.01885060  0.70335010  0.91386650  1
  C  1294  1  0.97578750  0.68560500  0.88110250  1
  C  1295  1  0.96918560  0.68444160  0.84179000  1
  C  1296  1  0.00531610  0.69665560  0.83273250  1
  C  1297  1  0.04828210  0.71142360  0.86275550  1
  C  1298  1  0.05551060  0.71989860  0.90459300  1
  C  1301  1  0.02264100  0.69701100  0.95104200  1
  C  1302  1  0.99060800  0.69112600  0.96626600  1
  C  1303  1  0.98796100  0.67222100  0.99411500  1
  C  1304  1  0.02340550  0.66852450  0.01436400  1
  C  1305  1  0.05853050  0.67870150  0.00380900  1
  C  1306  1  0.05555150  0.68937400  0.97031150  1
  C  1313  1  0.74709050  0.96796600  0.40983050  1
  C  1314  1  0.72994300  0.92489700  0.37754300  1
  C  1315  1  0.72973650  0.91822450  0.33854000  1
  C  1316  1  0.74177800  0.95413150  0.32910850  1
  C  1317  1  0.75674750  0.99726350  0.35898500  1
  C  1318  1  0.76515750  0.00459050  0.40079600  1
  C  1321  1  0.73993400  0.97262300  0.44667200  1
  C  1322  1  0.73243550  0.94113150  0.46266100  1
  C  1323  1  0.71491950  0.94165900  0.49172350  1
  C  1324  1  0.71522400  0.97981650  0.51277550  1
  C  1325  1  0.72745000  0.01456250  0.50158250  1
  C  1326  1  0.73402850  0.00714100  0.46553950  1
  C  1333  1  0.56353050  0.74337600  0.00118550  1
  C  1334  1  0.55269300  0.75854950  0.03341950  1
  C  1335  1  0.58501600  0.79729800  0.07246700  1
  C  1336  1  0.63037750  0.81873600  0.08197850  1
  C  1337  1  0.64363200  0.80378750  0.05213450  1
  C  1338  1  0.60922850  0.77040950  0.01029000  1
  C  1341  1  0.53130950  0.69938100  0.96433850  1
  C  1342  1  0.48382500  0.67599500  0.94832600  1
  C  1343  1  0.45525600  0.62941500  0.91926300  1
  C  1344  1  0.47225850  0.60862750  0.89810800  1
  C  1345  1  0.51819150  0.63199400  0.90927250  1
  C  1346  1  0.54688250  0.67458550  0.94535500  1
  C  1353  1  0.79270510  0.69773060  0.68481550  1
  C  1354  1  0.80794100  0.68069100  0.71082400  1
  C  1355  1  0.84679960  0.68048260  0.71731900  1
  C  1356  1  0.86825810  0.69242710  0.69343500  1
  C  1357  1  0.85325660  0.70728560  0.66519300  1
  C  1358  1  0.81977360  0.71569810  0.66620550  1
  C  1361  1  0.74864950  0.69054400  0.67297150  1
  C  1362  1  0.72517100  0.68320450  0.69697850  1
  C  1363  1  0.67857450  0.66570300  0.67897650  1
  C  1364  1  0.65776550  0.66582150  0.64107500  1
  C  1365  1  0.68114750  0.67784250  0.61848800  1
  C  1366  1  0.72381950  0.68443850  0.63252400  1
  C  1373  1  0.01786460  0.51373210  0.72611050  1
  C  1374  1  0.97481700  0.50293800  0.70004900  1
  C  1375  1  0.96811710  0.53529910  0.69353100  1
  C  1376  1  0.00394960  0.58064510  0.71736450  1
  C  1377  1  0.04702360  0.59381860  0.74555500  1
  C  1378  1  0.05446810  0.55938060  0.74466450  1
  C  1381  1  0.02245250  0.48155600  0.73807050  1
  C  1382  1  0.99112900  0.43407050  0.71406650  1
  C  1383  1  0.99161800  0.40554700  0.73217200  1
  C  1384  1  0.02965650  0.42263200  0.77004650  1
  C  1385  1  0.06427550  0.46859700  0.79258550  1
  C  1386  1  0.05681050  0.49721100  0.77852050  1
  C  1393  1  0.53021450  0.44051800  0.72016250  1
  C  1394  1  0.54825050  0.42559350  0.69512600  1
  C  1395  1  0.54922800  0.38728500  0.68961000  1
  C  1396  1  0.53659750  0.36581450  0.71324200  1
  C  1397  1  0.52173250  0.38107850  0.74135900  1
  C  1398  1  0.51328150  0.41450300  0.73997350  1
  C  1401  1  0.53666750  0.48412500  0.73042850  1
  C  1402  1  0.54275600  0.50546017  0.70451217  1
  C  1403  1  0.56168700  0.55222800  0.72082800  1
  C  1404  1  0.56559550  0.57612500  0.76006050  1
  C  1405  1  0.55546400  0.55529500  0.78492600  1
  C  1406  1  0.54449400  0.51097750  0.77103250  1
  C  1413  1  0.72496000  0.21589550  0.69037050  1
  C  1414  1  0.73512550  0.25897600  0.71549050  1
  C  1415  1  0.70234600  0.26550200  0.72101200  1
  C  1416  1  0.65723000  0.22927200  0.69737200  1
  C  1417  1  0.64438400  0.18632550  0.66921950  1
  C  1418  1  0.67912250  0.17917150  0.67051800  1
  C  1421  1  0.75830200  0.21212200  0.68006300  1
  C  1422  1  0.80555550  0.24412700  0.70603650  1
  C  1423  1  0.83598300  0.24670650  0.68967550  1
  C  1424  1  0.82071600  0.21132700  0.65052800  1
  C  1425  1  0.77502550  0.17631350  0.62567300  1
  C  1426  1  0.74457600  0.17928150  0.63950650  1
  C  1433  1  0.48964200  0.67518950  0.41475150  1
  C  1434  1  0.47472700  0.68535600  0.38185400  1
  C  1435  1  0.43640850  0.65262300  0.34268250  1
  C  1436  1  0.41490500  0.60751450  0.33388850  1
  C  1437  1  0.43022700  0.59457950  0.36391150  1
  C  1438  1  0.46365500  0.62934750  0.40568450  1
  C  1441  1  0.53321450  0.70849300  0.45183250  1
  C  1442  1  0.55446960  0.75573827  0.46700367  1
  C  1443  1  0.60122960  0.78618710  0.49485150  1
  C  1444  1  0.62514260  0.77080810  0.51483550  1
  C  1445  1  0.60436810  0.72510210  0.50416600  1
  C  1446  1  0.56009050  0.69470200  0.47086450  1
  C  1453  1  0.26558250  0.48062550  0.99593600  1
  C  1454  1  0.30863550  0.49851500  0.02881050  1
  C  1455  1  0.31502700  0.49918150  0.06791650  1
  C  1456  1  0.27868650  0.48633000  0.07667350  1
  C  1457  1  0.23577750  0.47168050  0.04663500  1
  C  1458  1  0.22875800  0.46350650  0.00489750  1
  C  1461  1  0.26190450  0.48748950  0.95904600  1
  C  1462  1  0.29403360  0.49377260  0.94390200  1
  C  1463  1  0.29658760  0.51289810  0.91621550  1
  C  1464  1  0.26113210  0.51668610  0.89620900  1
  C  1465  1  0.22605360  0.50635760  0.90683300  1
  C  1466  1  0.22899000  0.49524950  0.94005950  1
  C  1793  1  0.60120300  0.15959200  0.63217400  1
  C  1794  1  0.60035350  0.15045700  0.59232150  1
  C  1795  1  0.56963750  0.15154400  0.56111950  1
  C  1796  1  0.53946550  0.16170050  0.56945100  1
  C  1801  1  0.53216500  0.37508450  0.77849050  1
  C  1802  1  0.56289800  0.41411100  0.81827600  1
  C  1803  1  0.59519150  0.41453750  0.84941000  1
  C  1804  1  0.59698600  0.37599850  0.84113450  1
  C  1809  1  0.42453600  0.55156250  0.34746850  1
  C  1810  1  0.46358050  0.55072350  0.35575300  1
  C  1811  1  0.46415150  0.52005600  0.32399050  1
  C  1812  1  0.42565450  0.48995600  0.28374750  1
  C  1817  1  0.20918750  0.48235200  0.06311550  1
  C  1818  1  0.20007800  0.51316800  0.05491000  1
  C  1819  1  0.20116300  0.54549350  0.08666550  1
  C  1820  1  0.21127750  0.54729150  0.12693600  1
  C  1825  1  0.68689400  0.81007000  0.06840400  1
  C  1826  1  0.68829200  0.77128400  0.05990100  1
  C  1827  1  0.72007250  0.77126050  0.09111500  1
  C  1828  1  0.75071150  0.80999200  0.13109550  1
  C  1833  1  0.74668650  0.02424150  0.34273700  1
  C  1834  1  0.71641000  0.03411000  0.35124200  1
  C  1835  1  0.68521050  0.03465750  0.31997400  1
  C  1836  1  0.68400450  0.02540300  0.27998950  1
  C  1841  1  0.85931260  0.69698160  0.62814700  1
  C  1842  1  0.82060910  0.66678110  0.58804800  1
  C  1843  1  0.82075560  0.63563860  0.55632000  1
  C  1844  1  0.85960210  0.63446060  0.56448550  1
  C  1849  1  0.07382460  0.63697660  0.78253600  1
  C  1850  1  0.08369560  0.63843010  0.82266850  1
  C  1851  1  0.08432510  0.67033810  0.85440400  1
  C  1852  1  0.07505110  0.70110710  0.84632700  1
  C  1921  1  0.52525000  0.04748750  0.32270350  1
  C  1922  1  0.50602550  0.04724200  0.35008450  1
  C  1923  1  0.51850600  0.08817050  0.38119050  1
  C  1924  1  0.55023900  0.12908350  0.38491550  1
  C  1929  1  0.73008300  0.60861950  0.08834950  1
  C  1930  1  0.70235100  0.56202900  0.06091700  1
  C  1931  1  0.71206950  0.54337700  0.02972650  1
  C  1932  1  0.74924450  0.57134100  0.02595650  1
  C  1937  1  0.65854000  0.47557800  0.38346900  1
  C  1938  1  0.61193600  0.45645150  0.36462050  1
  C  1939  1  0.59327000  0.46890000  0.33615700  1
  C  1940  1  0.62123350  0.50050150  0.32684000  1
  C  1945  1  0.09711800  0.68034650  0.02696150  1
  C  1946  1  0.09689000  0.65257850  0.04578550  1
  C  1947  1  0.13782050  0.66239200  0.07422650  1
  C  1948  1  0.17873250  0.69969200  0.08354450  1
  C  1953  1  0.75955250  0.13781600  0.58868050  1
  C  1954  1  0.77863400  0.13813000  0.56118100  1
  C  1955  1  0.76624850  0.09724650  0.53008900  1
  C  1956  1  0.73472050  0.05629600  0.52646750  1
  C  1961  1  0.55408150  0.57685900  0.82198850  1
  C  1962  1  0.58196350  0.62343550  0.84949400  1
  C  1963  1  0.57226000  0.64217850  0.88065350  1
  C  1964  1  0.53496600  0.61431500  0.88434300  1
  C  1969  1  0.62593910  0.70959610  0.52714900  1
  C  1970  1  0.67252310  0.72862210  0.54580400  1
  C  1971  1  0.69130310  0.71632360  0.57436250  1
  C  1972  1  0.66345950  0.68494200  0.58394350  1
  C  1977  1  0.18748960  0.50485110  0.88387750  1
  C  1978  1  0.18776310  0.53282410  0.86529800  1
  C  1979  1  0.14686710  0.52299360  0.83676650  1
  C  1980  1  0.10593250  0.48548750  0.82713700  1
  C  2049  1  0.65822000  0.35886250  0.41728650  1
  C  2050  1  0.66338250  0.36001400  0.45662150  1
  C  2051  1  0.63309650  0.32240650  0.45753800  1
  C  2052  1  0.59739700  0.28381850  0.41913050  1
  C  2057  1  0.94653100  0.64623300  0.99324500  1
  C  2058  1  0.90826400  0.61220000  0.95392100  1
  C  2059  1  0.86968350  0.58114150  0.95304000  1
  C  2060  1  0.86954550  0.58387550  0.99146600  1
  C  2065  1  0.69640700  0.60823450  0.20484650  1
  C  2066  1  0.66228650  0.61350200  0.20904150  1
  C  2067  1  0.63116609  0.58323858  0.21644050  1
  C  2068  1  0.63390260  0.54746110  0.21922550  1
  C  2073  1  0.40853400  0.89714850  0.20614450  1
  C  2074  1  0.40962350  0.85881650  0.20180300  1
  C  2075  1  0.37191309  0.82019059  0.19418550  1
  C  2076  1  0.33329610  0.82006210  0.19132100  1
  C  2113  1  0.62652560  0.82672360  0.49405100  1
  C  2114  1  0.62148158  0.82562708  0.45475450  1
  C  2115  1  0.65195800  0.86319750  0.45393150  1
  C  2116  1  0.68772850  0.90166800  0.49239150  1
  C  2121  1  0.33793110  0.53899760  0.91702150  1
  C  2122  1  0.37617408  0.57315509  0.95631400  1
  C  2123  1  0.41459850  0.60438050  0.95711700  1
  C  2124  1  0.41458550  0.60166500  0.91864550  1
  C  2129  1  0.58786150  0.57752800  0.70565750  1
  C  2130  1  0.62219050  0.57244500  0.70181550  1
  C  2131  1  0.65350850  0.60287550  0.69470300  1
  C  2132  1  0.65075550  0.63863400  0.69187750  1
  C  2137  1  0.87651050  0.28807850  0.70499400  1
  C  2138  1  0.87536400  0.32632200  0.70899200  1
  C  2139  1  0.91300500  0.36479500  0.71629800  1
  C  2140  1  0.95159050  0.36483800  0.71919850  1
  C  2177  1  0.56333300  0.37048650  0.66165250  1
  C  2178  1  0.59778400  0.36311900  0.67515800  1
  C  2179  1  0.59943050  0.33188000  0.64515150  1
  C  2180  1  0.56673150  0.30890750  0.60230000  1
  C  2185  1  0.71354000  0.30756000  0.74902800  1
  C  2186  1  0.69271950  0.32854350  0.73551800  1
  C  2187  1  0.69147100  0.36018150  0.76552550  1
  C  2188  1  0.71128200  0.37025350  0.80835850  1
  C  2193  1  0.35712950  0.51339350  0.09882100  1
  C  2194  1  0.37787500  0.54797650  0.14043350  1
  C  2195  1  0.40966950  0.54989100  0.17341950  1
  C  2196  1  0.42023400  0.51741100  0.16400700  1
  C  2201  1  0.41968300  0.66381950  0.31179050  1
  C  2202  1  0.41264700  0.64297950  0.27016650  1
  C  2203  1  0.38152700  0.64175000  0.23718800  1
  C  2204  1  0.35842600  0.66165800  0.24666000  1
  C  2209  1  0.71838150  0.87669900  0.30922350  1
  C  2210  1  0.68537350  0.85414350  0.26655200  1
  C  2211  1  0.68650050  0.82291500  0.23598250  1
  C  2212  1  0.72070450  0.81507950  0.24876600  1
  C  2217  1  0.57276600  0.81526700  0.10173900  1
  C  2218  1  0.59277050  0.82480700  0.14438350  1
  C  2219  1  0.59207250  0.85646900  0.17495350  1
  C  2220  1  0.57152350  0.87794250  0.16216500  1
  C  2225  1  0.92658700  0.52309700  0.66337900  1
  C  2226  1  0.90385450  0.54306000  0.67388550  1
  C  2227  1  0.87242300  0.54227650  0.64160550  1
  C  2228  1  0.86451150  0.52164600  0.59960650  1
  C  2233  1  0.86480400  0.66916750  0.74751050  1
  C  2234  1  0.87432950  0.63597500  0.73704150  1
  C  2235  1  0.90588750  0.63689900  0.76933750  1
  C  2236  1  0.92723250  0.67104100  0.81129950  1
  H  7  1  0.01910800  0.73742050  0.53100450  1
  H  8  1  0.99790850  0.68684950  0.61314700  1
  H  15  1  0.02866800  0.65253900  0.37586600  1
  H  16  1  0.00051900  0.60651650  0.45893850  1
  H  19  1  0.91734000  0.57974300  0.46143500  1
  H  20  1  0.96024050  0.70997700  0.44718850  1
  H  27  1  0.21110100  0.89393000  0.87963900  1
  H  28  1  0.07835300  0.79067750  0.79744750  1
  H  35  1  0.28171150  0.05864850  0.03488500  1
  H  36  1  0.15247100  0.94763250  0.95186950  1
  H  39  1  0.12291600  0.86195200  0.94919700  1
  H  40  1  0.26735300  0.91867100  0.96341200  1
  H  47  1  0.94390700  0.96960200  0.18773900  1
  H  48  1  0.84069150  0.94884850  0.21736000  1
  H  55  1  0.10858400  0.97871450  0.28168450  1
  H  56  1  0.99748100  0.95096800  0.29984400  1
  H  59  1  0.91170500  0.86784100  0.24367800  1
  H  60  1  0.96863100  0.91038400  0.15625100  1
  H  67  1  0.78690600  0.16153600  0.22276300  1
  H  68  1  0.73651950  0.02872950  0.19334400  1
  H  75  1  0.70210000  0.23222800  0.12870900  1
  H  76  1  0.65621900  0.10295850  0.11057050  1
  H  79  1  0.62917600  0.07344450  0.16672150  1
  H  80  1  0.75909400  0.21774400  0.25416500  1
  H  87  1  0.16909250  0.19048350  0.22801300  1
  H  88  1  0.18969400  0.29289900  0.19735600  1
  H  95  1  0.15573700  0.02488800  0.13936100  1
  H  96  1  0.18813450  0.13463400  0.11741050  1
  H  99  1  0.27035100  0.22148650  0.17058650  1
  H  100  1  0.23418100  0.17107350  0.26265350  1
  H  107  1  0.96768250  0.34698050  0.18304000  1
  H  108  1  0.10075050  0.39831650  0.21362400  1
  H  115  1  0.89055050  0.42194750  0.27172700  1
  H  116  1  0.02230750  0.47656100  0.29374750  1
  H  119  1  0.05602050  0.50572250  0.24078300  1
  H  120  1  0.91359550  0.37744550  0.14852500  1
  H  127  1  0.24010800  0.91785800  0.52666200  1
  H  128  1  0.34218500  0.05091100  0.60844700  1
  H  135  1  0.07491050  0.84089650  0.37434900  1
  H  136  1  0.18439800  0.97261500  0.45144300  1
  H  139  1  0.27149300  0.00652650  0.45669050  1
  H  140  1  0.22123500  0.86393450  0.44256650  1
  H  147  1  0.39629550  0.11920300  0.88407750  1
  H  148  1  0.44770150  0.14003450  0.80249500  1
  H  155  1  0.47148300  0.10562500  0.03603400  1
  H  156  1  0.52620350  0.13845200  0.95911150  1
  H  159  1  0.55496100  0.22047000  0.95431800  1
  H  160  1  0.42645700  0.18411850  0.96836150  1
  H  167  1  0.16364150  0.34553450  0.38069100  1
  H  168  1  0.18550200  0.39648050  0.29894650  1
  H  175  1  0.15364450  0.43021700  0.53549350  1
  H  176  1  0.18236600  0.47635400  0.45265700  1
  H  179  1  0.26603350  0.50319950  0.45091100  1
  H  180  1  0.22248450  0.37281350  0.46466500  1
  H  187  1  0.97018850  0.18907400  0.03027650  1
  H  188  1  0.10286500  0.29263300  0.11214400  1
  H  195  1  0.89989700  0.02432400  0.87540800  1
  H  196  1  0.02896850  0.13576050  0.95818500  1
  H  199  1  0.05784650  0.22125600  0.96023350  1
  H  200  1  0.91364950  0.16415400  0.94635550  1
  H  207  1  0.23851250  0.11445300  0.72392350  1
  H  208  1  0.34218500  0.13612500  0.69484200  1
  H  215  1  0.07344450  0.10423850  0.62910300  1
  H  216  1  0.18504950  0.13264800  0.61166750  1
  H  219  1  0.27035600  0.21651400  0.66823800  1
  H  220  1  0.21318800  0.17339600  0.75517500  1
  H  227  1  0.39546000  0.92045600  0.68708500  1
  H  228  1  0.44626200  0.05316650  0.71591050  1
  H  235  1  0.47999850  0.85030400  0.78206750  1
  H  236  1  0.52587700  0.97930900  0.79933600  1
  H  239  1  0.55321800  0.00780950  0.74267550  1
  H  240  1  0.42317800  0.86381450  0.65587650  1
  H  247  1  0.01224500  0.89245950  0.68222150  1
  H  248  1  0.99061300  0.78954800  0.71230700  1
  H  255  1  0.02595700  0.05812450  0.77114550  1
  H  256  1  0.99279600  0.94793000  0.79248700  1
  H  259  1  0.91011300  0.86136150  0.73872850  1
  H  260  1  0.94735750  0.91220650  0.64738400  1
  H  267  1  0.21487150  0.73587450  0.72832300  1
  H  268  1  0.08192000  0.68423650  0.69837250  1
  H  275  1  0.29165200  0.66062000  0.63946800  1
  H  276  1  0.16007600  0.60606550  0.61806950  1
  H  279  1  0.12719500  0.57722900  0.67174000  1
  H  280  1  0.26940600  0.70577050  0.76313050  1
  H  287  1  0.94160800  0.16512000  0.38469700  1
  H  288  1  0.83864300  0.03222350  0.30367550  1
  H  295  1  0.10711750  0.24170500  0.53646850  1
  H  296  1  0.99709500  0.11019600  0.45957100  1
  H  299  1  0.91048450  0.07738050  0.45560800  1
  H  300  1  0.96115100  0.21966750  0.46915150  1
  H  307  1  0.78559100  0.96278800  0.02608600  1
  H  308  1  0.73356950  0.94013300  0.10684850  1
  H  315  1  0.71040950  0.97716600  0.87467650  1
  H  316  1  0.65568100  0.94330650  0.95128950  1
  H  319  1  0.62696800  0.86053350  0.95480450  1
  H  320  1  0.75589650  0.89833900  0.94148250  1
  H  646  1  0.02395250  0.60161800  0.53617450  1
  H  647  1  0.07529050  0.59998200  0.58821950  1
  H  654  1  0.07023750  0.89379800  0.87433550  1
  H  655  1  0.01655900  0.89315450  0.82234650  1
  H  662  1  0.94346600  0.97442950  0.32824450  1
  H  663  1  0.94254750  0.02565100  0.38115950  1
  H  670  1  0.65126300  0.02053350  0.08237350  1
  H  671  1  0.64957900  0.96675200  0.02950900  1
  H  678  1  0.16362150  0.18951650  0.08693900  1
  H  679  1  0.11063900  0.18948950  0.03484850  1
  H  686  1  0.10762700  0.48237200  0.32412100  1
  H  687  1  0.15961400  0.48144850  0.37625850  1
  H  694  1  0.23903900  0.05808550  0.53108050  1
  H  695  1  0.23880100  0.11008100  0.58393700  1
  H  702  1  0.53203000  0.11385050  0.87964250  1
  H  703  1  0.53109300  0.06074500  0.82681500  1
  H  774  1  0.95053500  0.53602600  0.39868500  1
  H  775  1  0.93063600  0.46659200  0.34669100  1
  H  782  1  0.14236050  0.95791450  0.01219200  1
  H  783  1  0.12509950  0.99005800  0.06433450  1
  H  790  1  0.00780350  0.90099600  0.32043150  1
  H  791  1  0.03997600  0.88115500  0.36999100  1
  H  798  1  0.58566350  0.09263700  0.08993450  1
  H  799  1  0.51624000  0.07522650  0.04041850  1
  H  806  1  0.23156150  0.54685300  0.51255950  1
  H  807  1  0.25129250  0.61619100  0.56451850  1
  H  814  1  0.03943750  0.12502400  0.89818950  1
  H  815  1  0.05666000  0.09272850  0.84611150  1
  H  822  1  0.17415150  0.18162650  0.59000300  1
  H  823  1  0.14179800  0.20121300  0.54031000  1
  H  830  1  0.59649100  0.99025150  0.82118350  1
  H  831  1  0.66581250  0.00767150  0.87083000  1
  H  902  1  0.08656000  0.77200350  0.48624850  1
  H  903  1  0.13668650  0.83705900  0.48472150  1
  H  910  1  0.29050850  0.00599150  0.92434700  1
  H  911  1  0.35718100  0.05739650  0.92581250  1
  H  918  1  0.05595250  0.03677300  0.22042950  1
  H  919  1  0.10746850  0.08686650  0.20537900  1
  H  926  1  0.82146600  0.24097800  0.19010500  1
  H  927  1  0.88668950  0.30772100  0.20552250  1
  H  966  1  0.09597000  0.31104300  0.42525600  1
  H  967  1  0.04550900  0.24602150  0.42662550  1
  H  974  1  0.89116050  0.07700600  0.98578150  1
  H  975  1  0.82471350  0.02529900  0.98444550  1
  H  982  1  0.12623800  0.04684450  0.69092550  1
  H  983  1  0.07437050  0.99646400  0.70550850  1
  H  990  1  0.36082150  0.84134850  0.72015800  1
  H  991  1  0.29568650  0.77482450  0.70524600  1
  H  1030  1  0.07029000  0.77190900  0.65499600  1
  H  1031  1  0.06736800  0.82563150  0.70671850  1
  H  1038  1  0.12170000  0.82123950  0.75568950  1
  H  1039  1  0.12372150  0.76661300  0.70395950  1
  H  1046  1  0.87054400  0.02081300  0.20412000  1
  H  1047  1  0.81565500  0.01743250  0.14731250  1
  H  1054  1  0.82175000  0.07195250  0.20648050  1
  H  1055  1  0.87526250  0.07392800  0.26327750  1
  H  1062  1  0.11404950  0.25807800  0.20455450  1
  H  1063  1  0.11208100  0.31184950  0.25723950  1
  H  1070  1  0.05858350  0.31537900  0.20637950  1
  H  1071  1  0.05973650  0.26077650  0.15368800  1
  H  1078  1  0.30745450  0.00879100  0.64921550  1
  H  1079  1  0.36154900  0.01006550  0.70482950  1
  H  1086  1  0.36483200  0.06435150  0.76175450  1
  H  1087  1  0.31039200  0.06270350  0.70610650  1
  H  1159  1  0.57041800  0.28873050  0.53100450  1
  H  1160  1  0.54921850  0.23815950  0.61314700  1
  H  1167  1  0.57997800  0.20384900  0.37586600  1
  H  1168  1  0.55182900  0.15782650  0.45893850  1
  H  1171  1  0.46865000  0.13105300  0.46143500  1
  H  1172  1  0.51155050  0.26128700  0.44718850  1
  H  1179  1  0.76241100  0.44524000  0.87963900  1
  H  1180  1  0.62966300  0.34198750  0.79744750  1
  H  1187  1  0.83302150  0.60995850  0.03488500  1
  H  1188  1  0.70378100  0.49894250  0.95186950  1
  H  1191  1  0.67422600  0.41326200  0.94919700  1
  H  1192  1  0.81866300  0.46998100  0.96341200  1
  H  1199  1  0.49521710  0.52091210  0.18773900  1
  H  1200  1  0.39200150  0.50015850  0.21736000  1
  H  1207  1  0.65989410  0.53002460  0.28168450  1
  H  1208  1  0.54879100  0.50227800  0.29984400  1
  H  1211  1  0.46301500  0.41915100  0.24367800  1
  H  1212  1  0.51994110  0.46169410  0.15625100  1
  H  1219  1  0.33821610  0.71284610  0.22276300  1
  H  1220  1  0.28782950  0.58003950  0.19334400  1
  H  1227  1  0.25341010  0.78353810  0.12870900  1
  H  1228  1  0.20752900  0.65426850  0.11057050  1
  H  1231  1  0.18048600  0.62475450  0.16672150  1
  H  1232  1  0.31040410  0.76905410  0.25416500  1
  H  1239  1  0.72040250  0.74179350  0.22801300  1
  H  1240  1  0.74100400  0.84420900  0.19735600  1
  H  1247  1  0.70704700  0.57619800  0.13936100  1
  H  1248  1  0.73944450  0.68594400  0.11741050  1
  H  1251  1  0.82166100  0.77279650  0.17058650  1
  H  1252  1  0.78549100  0.72238350  0.26265350  1
  H  1259  1  0.51899250  0.89829050  0.18304000  1
  H  1260  1  0.65206050  0.94962650  0.21362400  1
  H  1267  1  0.44186050  0.97325750  0.27172700  1
  H  1268  1  0.57361750  0.02787100  0.29374750  1
  H  1271  1  0.60733050  0.05703250  0.24078300  1
  H  1272  1  0.46490550  0.92875550  0.14852500  1
  H  1279  1  0.79141800  0.46916800  0.52666200  1
  H  1280  1  0.89349510  0.60222110  0.60844700  1
  H  1287  1  0.62622050  0.39220650  0.37434900  1
  H  1288  1  0.73570810  0.52392510  0.45144300  1
  H  1291  1  0.82280310  0.55783660  0.45669050  1
  H  1292  1  0.77254500  0.41524450  0.44256650  1
  H  1299  1  0.94760550  0.67051300  0.88407750  1
  H  1300  1  0.99901160  0.69134460  0.80249500  1
  H  1307  1  0.02279300  0.65693500  0.03603400  1
  H  1308  1  0.07751360  0.68976210  0.95911150  1
  H  1311  1  0.10627110  0.77178010  0.95431800  1
  H  1312  1  0.97776700  0.73542850  0.96836150  1
  H  1319  1  0.71495150  0.89684450  0.38069100  1
  H  1320  1  0.73681200  0.94779050  0.29894650  1
  H  1327  1  0.70495450  0.98152700  0.53549350  1
  H  1328  1  0.73367600  0.02766400  0.45265700  1
  H  1331  1  0.81734350  0.05450950  0.45091100  1
  H  1332  1  0.77379450  0.92412350  0.46466500  1
  H  1339  1  0.52149850  0.74038400  0.03027650  1
  H  1340  1  0.65417500  0.84394300  0.11214400  1
  H  1347  1  0.45120700  0.57563400  0.87540800  1
  H  1348  1  0.58027850  0.68707050  0.95818500  1
  H  1351  1  0.60915650  0.77256600  0.96023350  1
  H  1352  1  0.46495950  0.71546400  0.94635550  1
  H  1359  1  0.78982250  0.66576300  0.72392350  1
  H  1360  1  0.89349510  0.68743510  0.69484200  1
  H  1367  1  0.62475450  0.65554850  0.62910300  1
  H  1368  1  0.73635960  0.68395810  0.61166750  1
  H  1371  1  0.82166610  0.76782410  0.66823800  1
  H  1372  1  0.76449800  0.72470600  0.75517500  1
  H  1379  1  0.94677000  0.47176600  0.68708500  1
  H  1380  1  0.99757210  0.60447660  0.71591050  1
  H  1387  1  0.03130850  0.40161400  0.78206750  1
  H  1388  1  0.07718710  0.53061910  0.79933600  1
  H  1391  1  0.10452810  0.55911960  0.74267550  1
  H  1392  1  0.97448800  0.41512450  0.65587650  1
  H  1399  1  0.56355500  0.44376950  0.68222150  1
  H  1400  1  0.54192300  0.34085800  0.71230700  1
  H  1407  1  0.57726700  0.60943450  0.77114550  1
  H  1408  1  0.54410600  0.49924000  0.79248700  1
  H  1411  1  0.46142300  0.41267150  0.73872850  1
  H  1412  1  0.49866750  0.46351650  0.64738400  1
  H  1419  1  0.76618150  0.28718450  0.72832300  1
  H  1420  1  0.63323000  0.23554650  0.69837250  1
  H  1427  1  0.84296200  0.21193000  0.63946800  1
  H  1428  1  0.71138600  0.15737550  0.61806950  1
  H  1431  1  0.67850500  0.12853900  0.67174000  1
  H  1432  1  0.82071600  0.25708050  0.76313050  1
  H  1439  1  0.49291810  0.71643010  0.38469700  1
  H  1440  1  0.38995300  0.58353350  0.30367550  1
  H  1447  1  0.65842760  0.79301510  0.53646850  1
  H  1448  1  0.54840500  0.66150600  0.45957100  1
  H  1451  1  0.46179450  0.62869050  0.45560800  1
  H  1452  1  0.51246110  0.77097760  0.46915150  1
  H  1459  1  0.33690110  0.51409810  0.02608600  1
  H  1460  1  0.28487950  0.49144300  0.10684850  1
  H  1467  1  0.26171960  0.52847610  0.87467650  1
  H  1468  1  0.20699100  0.49461650  0.95128950  1
  H  1471  1  0.17827800  0.41184350  0.95480450  1
  H  1472  1  0.30720660  0.44964910  0.94148250  1
  H  1798  1  0.57526250  0.15292800  0.53617450  1
  H  1799  1  0.62660050  0.15129200  0.58821950  1
  H  1806  1  0.62154750  0.44510800  0.87433550  1
  H  1807  1  0.56786900  0.44446450  0.82234650  1
  H  1814  1  0.49477600  0.52573950  0.32824450  1
  H  1815  1  0.49385750  0.57696100  0.38115950  1
  H  1822  1  0.20257300  0.57184350  0.08237350  1
  H  1823  1  0.20088900  0.51806200  0.02950900  1
  H  1830  1  0.71493150  0.74082650  0.08693900  1
  H  1831  1  0.66194900  0.74079950  0.03484850  1
  H  1838  1  0.65893700  0.03368200  0.32412100  1
  H  1839  1  0.71092400  0.03275850  0.37625850  1
  H  1846  1  0.79034910  0.60939560  0.53108050  1
  H  1847  1  0.79011110  0.66139110  0.58393700  1
  H  1854  1  0.08334010  0.66516060  0.87964250  1
  H  1855  1  0.08240310  0.61205510  0.82681500  1
  H  1926  1  0.50184500  0.08733600  0.39868500  1
  H  1927  1  0.48194600  0.01790200  0.34669100  1
  H  1934  1  0.69367050  0.50922450  0.01219200  1
  H  1935  1  0.67640950  0.54136800  0.06433450  1
  H  1942  1  0.55911350  0.45230600  0.32043150  1
  H  1943  1  0.59128600  0.43246500  0.36999100  1
  H  1950  1  0.13697350  0.64394700  0.08993450  1
  H  1951  1  0.06755000  0.62653650  0.04041850  1
  H  1958  1  0.78287150  0.09816300  0.51255950  1
  H  1959  1  0.80260250  0.16750100  0.56451850  1
  H  1966  1  0.59074750  0.67633400  0.89818950  1
  H  1967  1  0.60797000  0.64403850  0.84611150  1
  H  1974  1  0.72546160  0.73293660  0.59000300  1
  H  1975  1  0.69310810  0.75252310  0.54031000  1
  H  1982  1  0.14780110  0.54156160  0.82118350  1
  H  1983  1  0.21712260  0.55898160  0.87083000  1
  H  2054  1  0.63787000  0.32331350  0.48624850  1
  H  2055  1  0.68799650  0.38836900  0.48472150  1
  H  2062  1  0.84181850  0.55730150  0.92434700  1
  H  2063  1  0.90849100  0.60870650  0.92581250  1
  H  2070  1  0.60726260  0.58808310  0.22042950  1
  H  2071  1  0.65877850  0.63817650  0.20537900  1
  H  2078  1  0.37277610  0.79228810  0.19010500  1
  H  2079  1  0.43799950  0.85903100  0.20552250  1
  H  2118  1  0.64728000  0.86235300  0.42525600  1
  H  2119  1  0.59681910  0.79733160  0.42662550  1
  H  2126  1  0.44247050  0.62831600  0.98578150  1
  H  2127  1  0.37602360  0.57660910  0.98444550  1
  H  2134  1  0.67754800  0.59815450  0.69092550  1
  H  2135  1  0.62568050  0.54777400  0.70550850  1
  H  2142  1  0.91213150  0.39265850  0.72015800  1
  H  2143  1  0.84699650  0.32613450  0.70524600  1
  H  2182  1  0.62160000  0.32321900  0.65499600  1
  H  2183  1  0.61867800  0.37694150  0.70671850  1
  H  2190  1  0.67301000  0.37254950  0.75568950  1
  H  2191  1  0.67503150  0.31792300  0.70395950  1
  H  2198  1  0.42185400  0.57212300  0.20412000  1
  H  2199  1  0.36696500  0.56874250  0.14731250  1
  H  2206  1  0.37306000  0.62326250  0.20648050  1
  H  2207  1  0.42657250  0.62523800  0.26327750  1
  H  2214  1  0.66535950  0.80938800  0.20455450  1
  H  2215  1  0.66339100  0.86315950  0.25723950  1
  H  2222  1  0.60989350  0.86668900  0.20637950  1
  H  2223  1  0.61104650  0.81208650  0.15368800  1
  H  2230  1  0.85876450  0.56010100  0.64921550  1
  H  2231  1  0.91285900  0.56137550  0.70482950  1
  H  2238  1  0.91614200  0.61566150  0.76175450  1
  H  2239  1  0.86170200  0.61401350  0.70610650  1
  N  645  1  0.98747800  0.61322000  0.60639300  1
  N  648  1  0.01608150  0.61213350  0.63541200  1
  N  653  1  0.01146750  0.78710300  0.80418550  1
  N  656  1  0.98133250  0.78665150  0.77515800  1
  N  661  1  0.83667600  0.93796800  0.28023000  1
  N  664  1  0.83616950  0.96651950  0.30987800  1
  N  669  1  0.66276100  0.96177600  0.13035600  1
  N  672  1  0.66167750  0.93163300  0.10071250  1
  N  677  1  0.19931900  0.29605000  0.13461700  1
  N  680  1  0.16967200  0.29607000  0.10556600  1
  N  685  1  0.16662450  0.47054350  0.27661600  1
  N  688  1  0.19568400  0.46991550  0.30565150  1
  N  693  1  0.34557550  0.11692950  0.60188400  1
  N  696  1  0.34544900  0.14592350  0.63148550  1
  N  701  1  0.52016950  0.14960550  0.80891400  1
  N  704  1  0.51952100  0.11984950  0.77930350  1
  N  773  1  0.01639650  0.57482550  0.35774900  1
  N  776  1  0.00480500  0.53676500  0.32879700  1
  N  781  1  0.22226100  0.06465600  0.05320200  1
  N  784  1  0.21326150  0.08205150  0.08223800  1
  N  789  1  0.11456450  0.96656550  0.34713800  1
  N  792  1  0.13197100  0.95500550  0.37362150  1
  N  797  1  0.62444450  0.17274050  0.06328000  1
  N  800  1  0.58638200  0.16365350  0.03682050  1
  N  805  1  0.16602100  0.50787850  0.55370850  1
  N  808  1  0.17753750  0.54589550  0.58266600  1
  N  813  1  0.95923750  0.01837600  0.85707050  1
  N  816  1  0.96820100  0.00089150  0.82804750  1
  N  821  1  0.06750200  0.11626900  0.56373800  1
  N  824  1  0.04998700  0.12770300  0.53718500  1
  N  829  1  0.55756800  0.90969350  0.84726450  1
  N  832  1  0.59559100  0.91876900  0.87378500  1
  N  901  1  0.04359300  0.73363250  0.38242650  1
  N  904  1  0.07147700  0.76923900  0.38160900  1
  N  909  1  0.35615250  0.06664050  0.02816000  1
  N  912  1  0.39262850  0.09520500  0.02894550  1
  N  917  1  0.11675300  0.99355750  0.21543750  1
  N  920  1  0.14537800  0.02142300  0.20764200  1
  N  925  1  0.78317000  0.30672550  0.19525950  1
  N  928  1  0.81887450  0.34324550  0.20326000  1
  N  965  1  0.13878450  0.34918800  0.52904950  1
  N  968  1  0.11072600  0.31361100  0.52977700  1
  N  973  1  0.82539550  0.01615150  0.88199000  1
  N  976  1  0.78905700  0.98744000  0.88127500  1
  N  981  1  0.06509050  0.08973400  0.69533150  1
  N  984  1  0.03628450  0.06172400  0.70287050  1
  N  989  1  0.39914800  0.77564800  0.71560000  1
  N  992  1  0.36350500  0.73926200  0.70787300  1
  N  1029  1  0.98402600  0.76744200  0.59173500  1
  N  1032  1  0.98236700  0.79640300  0.61969300  1
  N  1037  1  0.18035900  0.79810000  0.81893300  1
  N  1040  1  0.18137850  0.76849900  0.79097650  1
  N  1045  1  0.84822650  0.93457400  0.12292050  1
  N  1048  1  0.81845400  0.93261750  0.09218750  1
  N  1053  1  0.81668400  0.13075600  0.28773900  1
  N  1056  1  0.84551150  0.13173900  0.31844850  1
  N  1061  1  0.19934950  0.28613050  0.29060700  1
  N  1064  1  0.19822700  0.31514150  0.31908350  1
  N  1069  1  0.00081150  0.31484000  0.12034450  1
  N  1072  1  0.00138200  0.28527350  0.09186750  1
  N  1077  1  0.33577550  0.95101050  0.59201100  1
  N  1080  1  0.36498500  0.95164550  0.62204950  1
  N  1085  1  0.36413900  0.14984950  0.81890250  1
  N  1088  1  0.33467400  0.14892700  0.78883200  1
  N  1797  1  0.53878800  0.16453000  0.60639300  1
  N  1800  1  0.56739150  0.16344350  0.63541200  1
  N  1805  1  0.56277750  0.33841300  0.80418550  1
  N  1808  1  0.53264250  0.33796150  0.77515800  1
  N  1813  1  0.38798600  0.48927800  0.28023000  1
  N  1816  1  0.38747950  0.51782950  0.30987800  1
  N  1821  1  0.21407100  0.51308600  0.13035600  1
  N  1824  1  0.21298750  0.48294300  0.10071250  1
  N  1829  1  0.75062900  0.84736000  0.13461700  1
  N  1832  1  0.72098200  0.84738000  0.10556600  1
  N  1837  1  0.71793450  0.02185350  0.27661600  1
  N  1840  1  0.74699400  0.02122550  0.30565150  1
  N  1845  1  0.89688560  0.66823960  0.60188400  1
  N  1848  1  0.89675910  0.69723360  0.63148550  1
  N  1853  1  0.07147960  0.70091560  0.80891400  1
  N  1856  1  0.07083110  0.67115960  0.77930350  1
  N  1925  1  0.56770650  0.12613550  0.35774900  1
  N  1928  1  0.55611500  0.08807500  0.32879700  1
  N  1933  1  0.77357100  0.61596600  0.05320200  1
  N  1936  1  0.76457150  0.63336150  0.08223800  1
  N  1941  1  0.66587460  0.51787560  0.34713800  1
  N  1944  1  0.68328110  0.50631560  0.37362150  1
  N  1949  1  0.17575460  0.72405060  0.06328000  1
  N  1952  1  0.13769210  0.71496360  0.03682050  1
  N  1957  1  0.71733100  0.05918850  0.55370850  1
  N  1960  1  0.72884750  0.09720550  0.58266600  1
  N  1965  1  0.51054750  0.56968600  0.85707050  1
  N  1968  1  0.51951100  0.55220150  0.82804750  1
  N  1973  1  0.61881200  0.66757900  0.56373800  1
  N  1976  1  0.60129700  0.67901300  0.53718500  1
  N  1981  1  0.10887800  0.46100350  0.84726450  1
  N  1984  1  0.14690100  0.47007900  0.87378500  1
  N  2053  1  0.59490300  0.28494250  0.38242650  1
  N  2056  1  0.62278700  0.32054900  0.38160900  1
  N  2061  1  0.90746250  0.61795050  0.02816000  1
  N  2064  1  0.94393850  0.64651500  0.02894550  1
  N  2069  1  0.66806309  0.54486758  0.21543750  1
  N  2072  1  0.69668800  0.57273300  0.20764200  1
  N  2077  1  0.33448009  0.85803558  0.19525950  1
  N  2080  1  0.37018450  0.89455550  0.20326000  1
  N  2117  1  0.69009450  0.90049800  0.52904950  1
  N  2120  1  0.66203608  0.86492109  0.52977700  1
  N  2125  1  0.37670550  0.56746150  0.88199000  1
  N  2128  1  0.34036709  0.53875009  0.88127500  1
  N  2133  1  0.61640050  0.64104400  0.69533150  1
  N  2136  1  0.58759450  0.61303400  0.70287050  1
  N  2141  1  0.95045800  0.32695800  0.71560000  1
  N  2144  1  0.91481500  0.29057200  0.70787300  1
  N  2181  1  0.53533600  0.31875200  0.59173500  1
  N  2184  1  0.53367700  0.34771300  0.61969300  1
  N  2189  1  0.73166900  0.34941000  0.81893300  1
  N  2192  1  0.73268850  0.31980900  0.79097650  1
  N  2197  1  0.39953650  0.48588400  0.12292050  1
  N  2200  1  0.36976400  0.48392750  0.09218750  1
  N  2205  1  0.36799400  0.68206600  0.28773900  1
  N  2208  1  0.39682150  0.68304900  0.31844850  1
  N  2213  1  0.75065950  0.83744050  0.29060700  1
  N  2216  1  0.74953700  0.86645150  0.31908350  1
  N  2221  1  0.55212150  0.86615000  0.12034450  1
  N  2224  1  0.55269200  0.83658350  0.09186750  1
  N  2229  1  0.88708550  0.50232050  0.59201100  1
  N  2232  1  0.91629500  0.50295550  0.62204950  1
  N  2237  1  0.91544900  0.70115950  0.81890250  1
  N  2240  1  0.88598400  0.70023700  0.78883200  1
  O  17  1  0.94568200  0.58597550  0.48140750  1
  O  18  1  0.99307200  0.72543700  0.46095400  1
  O  37  1  0.10920200  0.87031050  0.92919550  1
  O  38  1  0.26915150  0.93777350  0.94967400  1
  O  57  1  0.92015300  0.89623700  0.26575700  1
  O  58  1  0.98775550  0.94322000  0.17353150  1
  O  77  1  0.63550450  0.05975200  0.14468150  1
  O  78  1  0.77469700  0.21957900  0.23692700  1
  O  97  1  0.24135800  0.21221150  0.14879250  1
  O  98  1  0.20122450  0.15197900  0.24703050  1
  O  117  1  0.06861350  0.49848800  0.26250850  1
  O  118  1  0.91012500  0.36003500  0.16407500  1
  O  137  1  0.26203500  0.01898450  0.47625150  1
  O  138  1  0.20197700  0.86039400  0.45626300  1
  O  157  1  0.54786650  0.19153000  0.93459750  1
  O  158  1  0.40917700  0.15116100  0.95449900  1
  O  177  1  0.23782150  0.49710500  0.43084250  1
  O  178  1  0.18965800  0.35741650  0.45079350  1
  O  197  1  0.07175950  0.21306250  0.98028900  1
  O  198  1  0.91202200  0.14515000  0.96018600  1
  O  217  1  0.26227150  0.18826200  0.64624450  1
  O  218  1  0.19429450  0.14055850  0.73789200  1
  O  237  1  0.54698900  0.02182000  0.76464200  1
  O  238  1  0.40759850  0.86225150  0.67313500  1
  O  257  1  0.93893950  0.87036100  0.76056750  1
  O  258  1  0.98031250  0.93117250  0.66314800  1
  O  277  1  0.11434250  0.58422300  0.64991350  1
  O  278  1  0.27262650  0.72299600  0.74739950  1
  O  297  1  0.91951500  0.06454300  0.43580600  1
  O  298  1  0.98014450  0.22285950  0.45518700  1
  O  317  1  0.63383750  0.88924050  0.97475900  1
  O  318  1  0.77300900  0.93129700  0.95561300  1
  O  1169  1  0.49699200  0.13728550  0.48140750  1
  O  1170  1  0.54438200  0.27674700  0.46095400  1
  O  1189  1  0.66051200  0.42162050  0.92919550  1
  O  1190  1  0.82046150  0.48908350  0.94967400  1
  O  1209  1  0.47146300  0.44754700  0.26575700  1
  O  1210  1  0.53906560  0.49453010  0.17353150  1
  O  1229  1  0.18681450  0.61106200  0.14468150  1
  O  1230  1  0.32600710  0.77088910  0.23692700  1
  O  1249  1  0.79266800  0.76352150  0.14879250  1
  O  1250  1  0.75253450  0.70328900  0.24703050  1
  O  1269  1  0.61992350  0.04979800  0.26250850  1
  O  1270  1  0.46143500  0.91134500  0.16407500  1
  O  1289  1  0.81334510  0.57029460  0.47625150  1
  O  1290  1  0.75328700  0.41170400  0.45626300  1
  O  1309  1  0.09917660  0.74284010  0.93459750  1
  O  1310  1  0.96048700  0.70247100  0.95449900  1
  O  1329  1  0.78913150  0.04841500  0.43084250  1
  O  1330  1  0.74096800  0.90872650  0.45079350  1
  O  1349  1  0.62306950  0.76437250  0.98028900  1
  O  1350  1  0.46333200  0.69646000  0.96018600  1
  O  1369  1  0.81358160  0.73957210  0.64624450  1
  O  1370  1  0.74560450  0.69186850  0.73789200  1
  O  1389  1  0.09829910  0.57313010  0.76464200  1
  O  1390  1  0.95890850  0.41356150  0.67313500  1
  O  1409  1  0.49024950  0.42167100  0.76056750  1
  O  1410  1  0.53162250  0.48248250  0.66314800  1
  O  1429  1  0.66565250  0.13553300  0.64991350  1
  O  1430  1  0.82393650  0.27430600  0.74739950  1
  O  1449  1  0.47082500  0.61585300  0.43580600  1
  O  1450  1  0.53145460  0.77416960  0.45518700  1
  O  1469  1  0.18514750  0.44055050  0.97475900  1
  O  1470  1  0.32431910  0.48260710  0.95561300  1
