# generated using pymatgen
data_H10C16N5O
_symmetry_space_group_name_H-M   'P 1'
_cell_length_a   26.84380000
_cell_length_b   56.56590000
_cell_length_c   96.59520000
_cell_angle_alpha   90.00000000
_cell_angle_beta   90.00000000
_cell_angle_gamma   90.00000000
_symmetry_Int_Tables_number   1
_chemical_formula_structural   H10C16N5O
_chemical_formula_sum   'H640 C1024 N320 O64'
_cell_volume   146674.37351038
_cell_formula_units_Z   64
loop_
 _symmetry_equiv_pos_site_id
 _symmetry_equiv_pos_as_xyz
  1  'x, y, z'
loop_
 _atom_site_type_symbol
 _atom_site_label
 _atom_site_symmetry_multiplicity
 _atom_site_fract_x
 _atom_site_fract_y
 _atom_site_fract_z
 _atom_site_occupancy
  H  7  1  0.24050300  0.21903300  0.30686900  1
  H  8  1  0.12630800  0.20807000  0.27803700  1
  H  15  1  0.33275700  0.30370200  0.32728400  1
  H  16  1  0.25978200  0.28299500  0.29100700  1
  H  19  1  0.16491100  0.29348200  0.30031800  1
  H  20  1  0.12147800  0.28929800  0.28858600  1
  H  21  1  0.21722700  0.24558600  0.34117900  1
  H  22  1  0.18506500  0.23919200  0.32720000  1
  H  27  1  0.34896900  0.30871100  0.29371300  1
  H  28  1  0.11271400  0.26431500  0.26757100  1
  H  29  1  0.18344300  0.17658000  0.28503300  1
  H  30  1  0.26218100  0.27832100  0.35112200  1
  H  37  1  0.24244000  0.53196200  0.44339400  1
  H  38  1  0.12832000  0.54420900  0.47205600  1
  H  45  1  0.33253100  0.44653600  0.42352600  1
  H  46  1  0.25922900  0.46807000  0.45959000  1
  H  49  1  0.16416700  0.45818900  0.45020300  1
  H  50  1  0.12065000  0.46288500  0.46184600  1
  H  51  1  0.21876200  0.50509700  0.40918800  1
  H  52  1  0.18647200  0.51186600  0.42308500  1
  H  57  1  0.34783300  0.44176200  0.45713700  1
  H  58  1  0.11266300  0.48812400  0.48270700  1
  H  59  1  0.18757400  0.57511300  0.46509000  1
  H  60  1  0.26364400  0.47197700  0.39944500  1
  H  67  1  0.50970800  0.53391000  0.30759600  1
  H  68  1  0.62479600  0.54465600  0.27903600  1
  H  75  1  0.41431900  0.45013300  0.32740700  1
  H  76  1  0.49004600  0.47046200  0.29155300  1
  H  79  1  0.58456300  0.45926800  0.30117200  1
  H  80  1  0.62853600  0.46333900  0.28958200  1
  H  81  1  0.53170100  0.50730500  0.34191400  1
  H  82  1  0.56467000  0.51330000  0.32804100  1
  H  87  1  0.39914600  0.43066200  0.30590800  1
  H  88  1  0.63796800  0.48815200  0.26868500  1
  H  89  1  0.56676700  0.57597600  0.28566800  1
  H  90  1  0.48700200  0.47658700  0.35176800  1
  H  97  1  0.51091100  0.21741500  0.44487700  1
  H  98  1  0.64073600  0.20964000  0.46835300  1
  H  105  1  0.40946900  0.29951600  0.42392600  1
  H  106  1  0.48865600  0.28057200  0.45950000  1
  H  109  1  0.57815500  0.29400400  0.44866000  1
  H  110  1  0.62487700  0.29208200  0.45946000  1
  H  111  1  0.52783800  0.24303300  0.40916500  1
  H  112  1  0.56207300  0.23758100  0.42286800  1
  H  117  1  0.39692600  0.31946600  0.44505100  1
  H  118  1  0.68411600  0.26802900  0.46651900  1
  H  119  1  0.57932100  0.17744400  0.46540000  1
  H  120  1  0.48286300  0.27379200  0.39946700  1
  H  127  1  0.76059600  0.78197100  0.69407900  1
  H  128  1  0.87473800  0.79289800  0.72293300  1
  H  135  1  0.66822500  0.69726100  0.67371100  1
  H  136  1  0.74121300  0.71802400  0.70997300  1
  H  139  1  0.83606200  0.70749500  0.70065000  1
  H  140  1  0.87947200  0.71166900  0.71239000  1
  H  141  1  0.78374500  0.75535700  0.65978000  1
  H  142  1  0.81592000  0.76176900  0.67375400  1
  H  147  1  0.65194900  0.69232000  0.70726800  1
  H  148  1  0.88823400  0.73666600  0.73340700  1
  H  149  1  0.81778600  0.82454000  0.71587600  1
  H  150  1  0.73884800  0.72261200  0.64985900  1
  H  157  1  0.75732900  0.46867800  0.55687800  1
  H  158  1  0.88451300  0.45634700  0.53275800  1
  H  165  1  0.66751300  0.55405800  0.57715600  1
  H  166  1  0.74481900  0.53226400  0.54175100  1
  H  169  1  0.83813700  0.54256200  0.55294300  1
  H  170  1  0.88563000  0.53811900  0.54253900  1
  H  171  1  0.77836900  0.49492000  0.59246300  1
  H  172  1  0.81177300  0.48782400  0.57883000  1
  H  177  1  0.65694800  0.55851100  0.54307300  1
  H  178  1  0.94374000  0.50690600  0.53635800  1
  H  179  1  0.81830000  0.42605500  0.53642100  1
  H  180  1  0.73459700  0.52872600  0.60175500  1
  H  187  1  0.49073500  0.46724400  0.69351900  1
  H  188  1  0.37574800  0.45632800  0.72209000  1
  H  195  1  0.58541200  0.55118700  0.67365400  1
  H  196  1  0.51046800  0.53059900  0.70958900  1
  H  199  1  0.41567100  0.54181200  0.70003200  1
  H  200  1  0.37169900  0.53767300  0.71161400  1
  H  201  1  0.46799600  0.49397200  0.65922600  1
  H  202  1  0.43533700  0.48786400  0.67313700  1
  H  207  1  0.60126700  0.57041600  0.69520000  1
  H  208  1  0.36235000  0.51284200  0.73247300  1
  H  209  1  0.43380200  0.42506000  0.71540900  1
  H  210  1  0.51233800  0.52479100  0.64936200  1
  H  217  1  0.49041800  0.78303500  0.55614400  1
  H  218  1  0.36055400  0.79092000  0.53269800  1
  H  225  1  0.59199100  0.70095900  0.57701600  1
  H  226  1  0.51294900  0.71991200  0.54141600  1
  H  229  1  0.42344200  0.70642500  0.55211700  1
  H  230  1  0.37670500  0.70841600  0.54132500  1
  H  231  1  0.47329300  0.75728100  0.59176700  1
  H  232  1  0.43908800  0.76272200  0.57805800  1
  H  237  1  0.60455300  0.68097000  0.55590100  1
  H  238  1  0.31732100  0.73252400  0.53438000  1
  H  239  1  0.42187400  0.82317000  0.53578300  1
  H  240  1  0.51844300  0.72655000  0.60145500  1
  H  247  1  0.74102700  0.21964600  0.80700700  1
  H  248  1  0.62697900  0.20841900  0.77816500  1
  H  255  1  0.83312300  0.30439900  0.82730400  1
  H  256  1  0.76050300  0.28351900  0.79100100  1
  H  259  1  0.66553900  0.29405000  0.80016400  1
  H  260  1  0.62216200  0.28975200  0.78843100  1
  H  261  1  0.71728600  0.24644300  0.84121300  1
  H  262  1  0.68526400  0.23997700  0.82722100  1
  H  267  1  0.84966700  0.30915400  0.79370400  1
  H  268  1  0.61339600  0.26456200  0.76751100  1
  H  269  1  0.68447000  0.17704300  0.78523200  1
  H  270  1  0.76243200  0.27917500  0.85113700  1
  H  277  1  0.74255800  0.53180400  0.94346400  1
  H  278  1  0.62852800  0.54429600  0.97212600  1
  H  285  1  0.83152800  0.44608500  0.92355500  1
  H  286  1  0.75945600  0.46805900  0.95972600  1
  H  289  1  0.66406700  0.45811900  0.95043600  1
  H  290  1  0.62056700  0.46291800  0.96206900  1
  H  291  1  0.71768800  0.50468200  0.90930300  1
  H  292  1  0.68591200  0.51165200  0.92325600  1
  H  297  1  0.84765500  0.44165800  0.95722400  1
  H  298  1  0.61270000  0.48835900  0.98289600  1
  H  299  1  0.68796100  0.57510600  0.96511500  1
  H  300  1  0.76203400  0.47141300  0.89956200  1
  H  307  1  0.00771800  0.53418700  0.80698200  1
  H  308  1  0.13565100  0.54551600  0.78301100  1
  H  315  1  0.91392700  0.44991600  0.82699900  1
  H  316  1  0.99313400  0.47109500  0.79185100  1
  H  319  1  0.08604600  0.45970800  0.80321800  1
  H  320  1  0.13386700  0.46373900  0.79287100  1
  H  321  1  0.02741200  0.50802300  0.84261500  1
  H  322  1  0.06138300  0.51459400  0.82902300  1
  H  327  1  0.90103000  0.43087800  0.80519200  1
  H  328  1  0.19300600  0.49421800  0.78661500  1
  H  329  1  0.07008200  0.57594400  0.78635200  1
  H  330  1  0.98411800  0.47629000  0.85195900  1
  H  337  1  0.01093100  0.21741700  0.94484800  1
  H  338  1  0.14080900  0.20968800  0.96830700  1
  H  345  1  0.90893200  0.29946500  0.92407300  1
  H  346  1  0.98832100  0.28038600  0.95958800  1
  H  349  1  0.07782200  0.29406000  0.94872300  1
  H  350  1  0.12459900  0.29214400  0.95950600  1
  H  351  1  0.02778200  0.24331300  0.90915200  1
  H  352  1  0.06203600  0.23779900  0.92284300  1
  H  357  1  0.89599800  0.31919000  0.94536600  1
  H  358  1  0.18399500  0.26810800  0.96651000  1
  H  359  1  0.07941900  0.17747400  0.96536600  1
  H  360  1  0.98263200  0.27407700  0.89953300  1
  H  367  1  0.26027100  0.78139400  0.19391500  1
  H  368  1  0.37430600  0.79250400  0.22277700  1
  H  375  1  0.16773500  0.69664400  0.17370700  1
  H  376  1  0.24053700  0.71757000  0.20997000  1
  H  379  1  0.33542500  0.70691700  0.20076200  1
  H  380  1  0.37880200  0.71117000  0.21250100  1
  H  381  1  0.28367300  0.75449500  0.15971500  1
  H  382  1  0.31576700  0.76097400  0.17369200  1
  H  387  1  0.15159700  0.69192700  0.20740200  1
  H  388  1  0.38758300  0.73635000  0.23343100  1
  H  389  1  0.31709900  0.82407000  0.21565800  1
  H  390  1  0.23847800  0.72174400  0.14983700  1
  H  397  1  0.25714400  0.46875200  0.05680600  1
  H  398  1  0.38447600  0.45618600  0.03278300  1
  H  405  1  0.16838700  0.55444300  0.07711200  1
  H  406  1  0.24477700  0.53222700  0.04163600  1
  H  409  1  0.33837700  0.54253300  0.05282700  1
  H  410  1  0.38601100  0.53797600  0.04248900  1
  H  411  1  0.27909500  0.49522200  0.09239700  1
  H  412  1  0.31209500  0.48792300  0.07872500  1
  H  417  1  0.15679900  0.55863800  0.04308600  1
  H  418  1  0.44408400  0.50650500  0.03639800  1
  H  419  1  0.31793500  0.42600400  0.03641600  1
  H  420  1  0.23584200  0.52922000  0.10165900  1
  H  427  1  0.99294400  0.46694900  0.19418700  1
  H  428  1  0.86513400  0.45535700  0.21817100  1
  H  435  1  0.08541700  0.55148700  0.17399800  1
  H  436  1  0.00765000  0.52993000  0.20932300  1
  H  439  1  0.91427000  0.54132600  0.19810200  1
  H  440  1  0.86645300  0.53718000  0.20843500  1
  H  441  1  0.97182900  0.49328100  0.15857100  1
  H  442  1  0.93842800  0.48654000  0.17224200  1
  H  447  1  0.09935400  0.57023200  0.19584900  1
  H  448  1  0.80742600  0.50653500  0.21459100  1
  H  449  1  0.93084700  0.42501400  0.21476800  1
  H  450  1  0.01457100  0.52513400  0.14918000  1
  H  457  1  0.99035800  0.78303500  0.05614800  1
  H  458  1  0.86046600  0.79096000  0.03271800  1
  H  465  1  0.09188600  0.70088300  0.07695100  1
  H  466  1  0.01289000  0.71998800  0.04137000  1
  H  469  1  0.92335600  0.70643200  0.05209100  1
  H  470  1  0.87659300  0.70844400  0.04130900  1
  H  471  1  0.97318900  0.75716100  0.09176800  1
  H  472  1  0.93901700  0.76266600  0.07806200  1
  H  477  1  0.10472500  0.68109500  0.05578400  1
  H  478  1  0.81719700  0.73257200  0.03438400  1
  H  479  1  0.92182500  0.82319300  0.03579800  1
  H  480  1  0.01827700  0.72639300  0.10142300  1
  H  487  1  0.75817800  0.71905800  0.30368200  1
  H  488  1  0.63265200  0.70226200  0.27965000  1
  H  495  1  0.82958400  0.80455700  0.32733000  1
  H  496  1  0.75678500  0.78236000  0.29127100  1
  H  499  1  0.65851300  0.78775700  0.30360600  1
  H  500  1  0.61072200  0.78175000  0.29355700  1
  H  501  1  0.72735500  0.74080600  0.34103900  1
  H  502  1  0.69617900  0.73322900  0.32707500  1
  H  507  1  0.84458200  0.80963900  0.29388000  1
  H  508  1  0.55990500  0.74770300  0.28640500  1
  H  509  1  0.72652500  0.67089000  0.28858000  1
  H  510  1  0.76478300  0.77553700  0.35127900  1
  H  517  1  0.75168900  0.03096400  0.44677200  1
  H  518  1  0.63675000  0.04310800  0.47533200  1
  H  525  1  0.83262000  0.94693600  0.42353100  1
  H  526  1  0.76001800  0.96659900  0.46007400  1
  H  529  1  0.66177600  0.95953700  0.44922100  1
  H  530  1  0.61720000  0.96406300  0.46058700  1
  H  531  1  0.72319100  0.00854200  0.41080400  1
  H  532  1  0.69163800  0.01482500  0.42492200  1
  H  537  1  0.84986800  0.94099600  0.45677300  1
  H  538  1  0.61016300  0.98608100  0.48238300  1
  H  539  1  0.71932400  0.07792300  0.46296200  1
  H  540  1  0.76396300  0.97513800  0.40010700  1
  H  547  1  0.00073000  0.03302300  0.30327500  1
  H  548  1  0.13058000  0.04223100  0.27984300  1
  H  555  1  0.90819400  0.95226800  0.32739100  1
  H  556  1  0.98513900  0.96970200  0.29117300  1
  H  559  1  0.07832500  0.95857500  0.30289800  1
  H  560  1  0.12599400  0.96064900  0.29243600  1
  H  561  1  0.02475200  0.01086100  0.34049600  1
  H  562  1  0.05752500  0.01607600  0.32647600  1
  H  567  1  0.89258900  0.93155700  0.30638500  1
  H  568  1  0.18196600  0.98524000  0.28443300  1
  H  569  1  0.04569200  0.07884100  0.28836300  1
  H  570  1  0.98312800  0.97981800  0.35107900  1
  H  577  1  0.99232500  0.71675700  0.44717400  1
  H  578  1  0.11995300  0.70058400  0.47048700  1
  H  585  1  0.91885900  0.80154800  0.42325600  1
  H  586  1  0.99276500  0.77981700  0.45917800  1
  H  589  1  0.09079600  0.78580200  0.44646200  1
  H  590  1  0.13949400  0.78006300  0.45622200  1
  H  591  1  0.02206900  0.73792700  0.40952600  1
  H  592  1  0.05361900  0.73078100  0.42347500  1
  H  597  1  0.90456900  0.82039700  0.44464600  1
  H  598  1  0.19135800  0.74674300  0.46305800  1
  H  599  1  0.02564900  0.66890100  0.46234100  1
  H  600  1  0.98600000  0.77073600  0.39915600  1
  H  607  1  0.24292700  0.28194900  0.69728800  1
  H  608  1  0.36842800  0.29866000  0.72135100  1
  H  615  1  0.17134100  0.19645000  0.67365800  1
  H  616  1  0.24411100  0.21865600  0.70971800  1
  H  619  1  0.34238500  0.21318100  0.69738900  1
  H  620  1  0.39015700  0.21915500  0.70745200  1
  H  621  1  0.27369400  0.26015800  0.65994100  1
  H  622  1  0.30486800  0.26773000  0.67390500  1
  H  627  1  0.15607800  0.19143700  0.70705800  1
  H  628  1  0.44106600  0.25318800  0.71460400  1
  H  629  1  0.27468300  0.33009600  0.71239600  1
  H  630  1  0.23626100  0.22547100  0.64970300  1
  H  637  1  0.24375300  0.96996000  0.55336800  1
  H  638  1  0.36977600  0.95426700  0.52927500  1
  H  645  1  0.16991500  0.05457700  0.57749500  1
  H  646  1  0.24315400  0.03342500  0.54128800  1
  H  649  1  0.34145900  0.03928000  0.55359700  1
  H  650  1  0.38940800  0.03371200  0.54352000  1
  H  651  1  0.27408400  0.99130300  0.59081600  1
  H  652  1  0.30544100  0.98416800  0.57680400  1
  H  657  1  0.15521700  0.05988700  0.54381900  1
  H  658  1  0.44122300  0.00000500  0.53636600  1
  H  659  1  0.27685600  0.92216600  0.53810600  1
  H  660  1  0.23583900  0.02562200  0.60125900  1
  H  667  1  0.99996600  0.96804400  0.69780500  1
  H  668  1  0.87002900  0.95863700  0.72117700  1
  H  675  1  0.09197200  0.04912200  0.67379300  1
  H  676  1  0.01550900  0.03127600  0.71002500  1
  H  679  1  0.92222700  0.04245700  0.69831600  1
  H  680  1  0.87451400  0.04029900  0.70875500  1
  H  681  1  0.97568100  0.99045500  0.66061900  1
  H  682  1  0.94307700  0.98507500  0.67464800  1
  H  687  1  0.10792700  0.06956000  0.69488100  1
  H  688  1  0.81857200  0.01563200  0.71668500  1
  H  689  1  0.95499100  0.92210600  0.71258900  1
  H  690  1  0.01705700  0.02161600  0.65009000  1
  H  697  1  0.00919100  0.28385600  0.55375400  1
  H  698  1  0.88148400  0.30005300  0.53048100  1
  H  705  1  0.08282800  0.19911600  0.57766400  1
  H  706  1  0.00918800  0.22087300  0.54170200  1
  H  709  1  0.91094700  0.21473700  0.55436000  1
  H  710  1  0.86219100  0.22049500  0.54462600  1
  H  711  1  0.97902200  0.26251800  0.59138500  1
  H  712  1  0.94759600  0.26968200  0.57741700  1
  H  717  1  0.09759000  0.18040000  0.55624900  1
  H  718  1  0.81022000  0.25381200  0.53785500  1
  H  719  1  0.97570300  0.33176200  0.53867200  1
  H  720  1  0.01525700  0.22969800  0.60174300  1
  H  727  1  0.25898500  0.71979900  0.80371100  1
  H  728  1  0.13355800  0.70279800  0.77968800  1
  H  735  1  0.33015800  0.80513800  0.82743500  1
  H  736  1  0.25797500  0.78295500  0.79127400  1
  H  739  1  0.15920200  0.78845300  0.80347300  1
  H  740  1  0.11141000  0.78235400  0.79344200  1
  H  741  1  0.22707800  0.74165000  0.84104200  1
  H  742  1  0.19618400  0.73406000  0.82703300  1
  H  747  1  0.34544600  0.80987300  0.79379800  1
  H  748  1  0.06066600  0.74821700  0.78638600  1
  H  749  1  0.22751600  0.67153700  0.78868300  1
  H  750  1  0.26475600  0.77631200  0.85132400  1
  H  757  1  0.25181300  0.03083900  0.94672700  1
  H  758  1  0.13714000  0.04330700  0.97532800  1
  H  765  1  0.33179700  0.94644600  0.92361600  1
  H  766  1  0.25993600  0.96661900  0.96017400  1
  H  769  1  0.16146900  0.95955500  0.94936400  1
  H  770  1  0.11699700  0.96420600  0.96074400  1
  H  771  1  0.22267100  0.00812100  0.91080100  1
  H  772  1  0.19142000  0.01462300  0.92493700  1
  H  777  1  0.34943000  0.94087000  0.95690400  1
  H  778  1  0.11020400  0.98638300  0.98249500  1
  H  779  1  0.21990200  0.07792900  0.96286100  1
  H  780  1  0.26314700  0.97461000  0.90015300  1
  H  787  1  0.49262400  0.03397000  0.80387600  1
  H  788  1  0.62052600  0.04896100  0.78041100  1
  H  795  1  0.41490000  0.95015800  0.82767700  1
  H  796  1  0.48991900  0.97103000  0.79175900  1
  H  799  1  0.58795700  0.96394900  0.80434800  1
  H  800  1  0.63668700  0.96921400  0.79450900  1
  H  801  1  0.52204600  0.01227500  0.84146300  1
  H  802  1  0.55385600  0.01908400  0.82750100  1
  H  807  1  0.39956300  0.93088700  0.80613100  1
  H  808  1  0.68991300  0.00201500  0.78784000  1
  H  809  1  0.52775600  0.08153400  0.78871700  1
  H  810  1  0.48419700  0.97988000  0.85181100  1
  H  817  1  0.49250800  0.71676000  0.94710700  1
  H  818  1  0.62022100  0.70060700  0.97038900  1
  H  825  1  0.41822300  0.80154300  0.92345800  1
  H  826  1  0.49246300  0.77965000  0.95929300  1
  H  829  1  0.59055700  0.78594300  0.94655300  1
  H  830  1  0.63930200  0.78020500  0.95629700  1
  H  831  1  0.52219100  0.73833800  0.90949600  1
  H  832  1  0.55381800  0.73112400  0.92342000  1
  H  837  1  0.40359400  0.82014000  0.94502300  1
  H  838  1  0.69137300  0.74689500  0.96305300  1
  H  839  1  0.52606900  0.66886200  0.96218700  1
  H  840  1  0.48573900  0.77116200  0.89923800  1
  H  847  1  0.74212200  0.28124200  0.19723000  1
  H  848  1  0.86752500  0.29819500  0.22127400  1
  H  855  1  0.67082500  0.19586700  0.17355400  1
  H  856  1  0.74303500  0.21810500  0.20969600  1
  H  859  1  0.84179100  0.21255000  0.19748400  1
  H  860  1  0.88956800  0.21863000  0.20752500  1
  H  861  1  0.77391400  0.25932600  0.15990400  1
  H  862  1  0.80482600  0.26693500  0.17390700  1
  H  867  1  0.65579700  0.19115900  0.20726900  1
  H  868  1  0.94036200  0.25276200  0.21458600  1
  H  869  1  0.77363800  0.32949200  0.21226400  1
  H  870  1  0.73623300  0.22465300  0.14964200  1
  H  877  1  0.74400400  0.97006800  0.05340400  1
  H  878  1  0.86989100  0.95424200  0.02928100  1
  H  885  1  0.67056000  0.05496200  0.07736400  1
  H  886  1  0.74348200  0.03341500  0.04119200  1
  H  889  1  0.84189200  0.03933500  0.05353500  1
  H  890  1  0.88980300  0.03370100  0.04345400  1
  H  891  1  0.77452500  0.99170300  0.09083300  1
  H  892  1  0.80573100  0.98439600  0.07682500  1
  H  897  1  0.65575600  0.05997200  0.04365300  1
  H  898  1  0.94156100  0.99979600  0.03632600  1
  H  899  1  0.77692700  0.92221400  0.03817200  1
  H  900  1  0.73642300  0.02612200  0.10120400  1
  H  907  1  0.50806800  0.96715600  0.19719300  1
  H  908  1  0.38016600  0.95186800  0.22059800  1
  H  915  1  0.58490600  0.05128000  0.17345000  1
  H  916  1  0.51065000  0.02997000  0.20940700  1
  H  919  1  0.41234400  0.03706000  0.19684000  1
  H  920  1  0.36358200  0.03166600  0.20664300  1
  H  921  1  0.47804700  0.98907800  0.15962600  1
  H  922  1  0.44652400  0.98208800  0.17360900  1
  H  927  1  0.60084200  0.07022300  0.19507600  1
  H  928  1  0.31050900  0.99870900  0.21322800  1
  H  929  1  0.47312900  0.91945300  0.21223900  1
  H  930  1  0.51550800  0.02160700  0.14932400  1
  H  937  1  0.50907800  0.28386200  0.05375000  1
  H  938  1  0.38137600  0.30010500  0.03048600  1
  H  945  1  0.58270000  0.19902400  0.07755700  1
  H  946  1  0.50903300  0.22094600  0.04163500  1
  H  949  1  0.41078700  0.21475800  0.05433200  1
  H  950  1  0.36203100  0.22053400  0.04460200  1
  H  951  1  0.47897100  0.26239600  0.09137800  1
  H  952  1  0.44754100  0.26962300  0.07742200  1
  H  957  1  0.59759400  0.18047800  0.05609400  1
  H  958  1  0.31007100  0.25388100  0.03784700  1
  H  959  1  0.47562900  0.33178800  0.03868000  1
  H  960  1  0.51520600  0.22955000  0.10169200  1
  H  970  1  0.34850100  0.36039700  0.32542100  1
  H  971  1  0.39439600  0.39624600  0.32487900  1
  H  974  1  0.35784500  0.35428700  0.25700800  1
  H  975  1  0.32970300  0.34005500  0.27812300  1
  H  987  1  0.34800000  0.38996600  0.42561600  1
  H  988  1  0.39353200  0.35402400  0.42642300  1
  H  991  1  0.35354100  0.39641700  0.49404800  1
  H  992  1  0.32681600  0.41063200  0.47278800  1
  H  1004  1  0.65218700  0.64059400  0.67562000  1
  H  1005  1  0.60612100  0.60479700  0.67621600  1
  H  1008  1  0.64363000  0.64679700  0.74403700  1
  H  1009  1  0.67155100  0.66099200  0.72289000  1
  H  1021  1  0.65263800  0.61021000  0.57519700  1
  H  1022  1  0.60742500  0.64623000  0.57442800  1
  H  1025  1  0.64883800  0.60450700  0.50672600  1
  H  1026  1  0.67503100  0.59006000  0.52797900  1
  H  1038  1  0.85142900  0.36081300  0.82530400  1
  H  1039  1  0.89775600  0.39654300  0.82455500  1
  H  1042  1  0.85652500  0.35475400  0.75685600  1
  H  1043  1  0.82961400  0.34053700  0.77809700  1
  H  1055  1  0.84752800  0.38968500  0.92575000  1
  H  1056  1  0.89282400  0.35367200  0.92655200  1
  H  1059  1  0.85419700  0.39640300  0.99416900  1
  H  1060  1  0.82725200  0.41057900  0.97292100  1
  H  1072  1  0.14905500  0.64029400  0.17573400  1
  H  1073  1  0.10266900  0.60458700  0.17651900  1
  H  1076  1  0.14465900  0.64634800  0.24418800  1
  H  1077  1  0.17143600  0.66053900  0.22292900  1
  H  1089  1  0.15375500  0.61045600  0.07506300  1
  H  1090  1  0.10838300  0.64643000  0.07432600  1
  H  1093  1  0.14798600  0.60436000  0.00661500  1
  H  1094  1  0.17486100  0.59005700  0.02783600  1
  H  1106  1  0.83887100  0.86156100  0.32552500  1
  H  1107  1  0.88465400  0.89742500  0.32522900  1
  H  1110  1  0.85737000  0.85421900  0.25729200  1
  H  1111  1  0.82602600  0.84049900  0.27817000  1
  H  1123  1  0.85056100  0.89000600  0.42515800  1
  H  1124  1  0.89906000  0.85492600  0.42576600  1
  H  1127  1  0.85680000  0.89581800  0.49360400  1
  H  1128  1  0.82830200  0.90965200  0.47243600  1
  H  1140  1  0.16160800  0.13942300  0.67554500  1
  H  1141  1  0.11568600  0.10359700  0.67594300  1
  H  1144  1  0.14430700  0.14700900  0.74379300  1
  H  1145  1  0.17527100  0.16065700  0.72285400  1
  H  1157  1  0.15145700  0.11077000  0.57580900  1
  H  1158  1  0.10285400  0.14580100  0.57512900  1
  H  1161  1  0.14771500  0.10532700  0.50733500  1
  H  1162  1  0.17560200  0.09143800  0.52855000  1
  H  1174  1  0.34538300  0.86128200  0.82571000  1
  H  1175  1  0.39290200  0.89664700  0.82530600  1
  H  1178  1  0.35720100  0.85503900  0.75732700  1
  H  1179  1  0.32724600  0.84123300  0.77834100  1
  H  1191  1  0.35000300  0.88972100  0.92533000  1
  H  1192  1  0.39834100  0.85458900  0.92594800  1
  H  1195  1  0.35697100  0.89579700  0.99376600  1
  H  1196  1  0.32832700  0.90957900  0.97260100  1
  H  1208  1  0.65509700  0.13973600  0.17534800  1
  H  1209  1  0.60743200  0.10441700  0.17583600  1
  H  1212  1  0.64434600  0.14614200  0.24374100  1
  H  1213  1  0.67410700  0.15985100  0.22268400  1
  H  1225  1  0.65210900  0.11094200  0.07563100  1
  H  1226  1  0.60335700  0.14592400  0.07498300  1
  H  1229  1  0.64712100  0.10527900  0.00716700  1
  H  1230  1  0.67550700  0.09149800  0.02835500  1
  H  1242  1  0.06546100  0.23384600  0.24690400  1
  H  1243  1  0.00380800  0.24052100  0.22965700  1
  H  1246  1  0.91609500  0.27704000  0.29501300  1
  H  1247  1  0.99169600  0.26066200  0.28826900  1
  H  1259  1  0.06698900  0.52244300  0.50303400  1
  H  1260  1  0.00709500  0.51631400  0.52080300  1
  H  1263  1  0.91915700  0.47117100  0.45734400  1
  H  1264  1  0.99349900  0.48982000  0.46310400  1
  H  1276  1  0.68248100  0.52049000  0.24774500  1
  H  1277  1  0.74197700  0.51396500  0.22991600  1
  H  1280  1  0.83477300  0.47378700  0.29398300  1
  H  1281  1  0.75925100  0.49120000  0.28809000  1
  H  1293  1  0.67683000  0.24284400  0.50689500  1
  H  1294  1  0.73959700  0.24997900  0.52366100  1
  H  1297  1  0.84076000  0.25871400  0.45655400  1
  H  1298  1  0.76171000  0.24867300  0.46403700  1
  H  1310  1  0.93545200  0.76702000  0.75407700  1
  H  1311  1  0.99710500  0.76034600  0.77132300  1
  H  1314  1  0.08501800  0.72404400  0.70594700  1
  H  1315  1  0.00936600  0.74036300  0.71269500  1
  H  1327  1  0.31824600  0.48060700  0.75347500  1
  H  1328  1  0.25877600  0.48712500  0.77131400  1
  H  1331  1  0.16517700  0.52657700  0.70718300  1
  H  1332  1  0.24091800  0.50939100  0.71308700  1
  H  1344  1  0.32471700  0.75771100  0.49402700  1
  H  1345  1  0.26193400  0.75061100  0.47726100  1
  H  1348  1  0.16066800  0.74210900  0.54436600  1
  H  1349  1  0.23978700  0.75202700  0.53688200  1
  H  1361  1  0.56600400  0.23405800  0.74693600  1
  H  1362  1  0.50435400  0.24075300  0.72968900  1
  H  1365  1  0.41685200  0.27749700  0.79502200  1
  H  1366  1  0.49237800  0.26103300  0.78828700  1
  H  1378  1  0.56674100  0.52264900  0.00303800  1
  H  1379  1  0.50684300  0.51647500  0.02079700  1
  H  1382  1  0.41929200  0.47112500  0.95734400  1
  H  1383  1  0.49352100  0.48987400  0.96310800  1
  H  1395  1  0.17671900  0.24291700  0.00687800  1
  H  1396  1  0.23948200  0.25003400  0.02364700  1
  H  1399  1  0.34069500  0.25875500  0.95654600  1
  H  1400  1  0.26162100  0.24875000  0.96402400  1
  H  1412  1  0.43467000  0.76643000  0.25407400  1
  H  1413  1  0.49625200  0.75974000  0.27133800  1
  H  1416  1  0.58497300  0.72413200  0.20591400  1
  H  1417  1  0.50912300  0.74023700  0.21266200  1
  H  1429  1  0.82468500  0.75778500  0.99403700  1
  H  1430  1  0.76195200  0.75066700  0.97725900  1
  H  1433  1  0.66054300  0.74211300  0.04434600  1
  H  1434  1  0.73966000  0.75206800  0.03687700  1
  H  1446  1  0.56794100  0.01921200  0.50466700  1
  H  1447  1  0.50567300  0.01197600  0.52166400  1
  H  1450  1  0.41922100  0.97899200  0.45554600  1
  H  1451  1  0.49485900  0.99480900  0.46272400  1
  H  1463  1  0.17560400  0.00908000  0.24355900  1
  H  1464  1  0.23917500  0.00183900  0.22707700  1
  H  1467  1  0.33749500  0.99480200  0.29457200  1
  H  1468  1  0.25871600  0.00456200  0.28674400  1
  H  1480  1  0.82489700  0.99167100  0.75753100  1
  H  1481  1  0.76130000  0.99891000  0.77400500  1
  H  1484  1  0.66314300  0.00608200  0.70649700  1
  H  1485  1  0.74188000  0.99627100  0.71433400  1
  H  1497  1  0.06724400  0.02021300  0.00459300  1
  H  1498  1  0.00493700  0.01291700  0.02157300  1
  H  1501  1  0.92065500  0.97774900  0.95562300  1
  H  1502  1  0.99565200  0.99429100  0.96276400  1
  H  1514  1  0.10348800  0.16708400  0.31768700  1
  H  1515  1  0.06773100  0.12940900  0.32284800  1
  H  1518  1  0.29918500  0.11480600  0.28944200  1
  H  1519  1  0.25653800  0.14871500  0.29601300  1
  H  1531  1  0.10381600  0.58473000  0.43304700  1
  H  1532  1  0.06795200  0.62253200  0.42828200  1
  H  1535  1  0.30256800  0.63631600  0.46006200  1
  H  1536  1  0.25905600  0.60256900  0.45366900  1
  H  1548  1  0.65001500  0.58627300  0.31784200  1
  H  1549  1  0.68543900  0.62417300  0.32257400  1
  H  1552  1  0.45122100  0.63730600  0.29047500  1
  H  1553  1  0.49485500  0.60369400  0.29701500  1
  H  1565  1  0.65285800  0.16503100  0.43252400  1
  H  1566  1  0.68715300  0.12678300  0.42806200  1
  H  1569  1  0.45801600  0.11609000  0.46316200  1
  H  1570  1  0.50111300  0.14922600  0.45553300  1
  H  1582  1  0.89727200  0.83396000  0.68317500  1
  H  1583  1  0.93290700  0.87165200  0.67798900  1
  H  1586  1  0.70186700  0.88614300  0.71163300  1
  H  1587  1  0.74448000  0.85225500  0.70500600  1
  H  1599  1  0.89802800  0.41486600  0.56865900  1
  H  1600  1  0.93275100  0.37675000  0.57324200  1
  H  1603  1  0.69949100  0.36507000  0.54042000  1
  H  1604  1  0.74359800  0.39841600  0.54722500  1
  H  1616  1  0.35079800  0.41484500  0.68316600  1
  H  1617  1  0.31546000  0.37694800  0.67837500  1
  H  1620  1  0.54941100  0.36379100  0.71062100  1
  H  1621  1  0.50580000  0.39741100  0.70408100  1
  H  1633  1  0.34775300  0.83572200  0.56835700  1
  H  1634  1  0.31457800  0.87415900  0.57292200  1
  H  1637  1  0.54625600  0.88363100  0.53900800  1
  H  1638  1  0.50136300  0.85070800  0.54613500  1
  H  1650  1  0.60321900  0.16729900  0.81761100  1
  H  1651  1  0.56773600  0.12948100  0.82256100  1
  H  1654  1  0.80120500  0.11579900  0.79012200  1
  H  1655  1  0.75768300  0.14953500  0.79654600  1
  H  1667  1  0.60405300  0.58456700  0.93304700  1
  H  1668  1  0.56812300  0.62233700  0.92823700  1
  H  1671  1  0.80261700  0.63632600  0.96005600  1
  H  1672  1  0.75921000  0.60254300  0.95368000  1
  H  1684  1  0.15029300  0.58767700  0.81856600  1
  H  1685  1  0.18499200  0.62584000  0.82300700  1
  H  1688  1  0.95142900  0.63718400  0.79031100  1
  H  1689  1  0.99554800  0.60391700  0.79721800  1
  H  1701  1  0.15292500  0.16504100  0.93246800  1
  H  1702  1  0.18726400  0.12679600  0.92802800  1
  H  1705  1  0.95829900  0.11610500  0.96321500  1
  H  1706  1  0.00129600  0.14923800  0.95553700  1
  H  1718  1  0.39771900  0.83380600  0.18321100  1
  H  1719  1  0.43299000  0.87166200  0.17824100  1
  H  1722  1  0.19999600  0.88509300  0.21097900  1
  H  1723  1  0.24354000  0.85140300  0.20447800  1
  H  1735  1  0.39789400  0.41490500  0.06864800  1
  H  1736  1  0.43271400  0.37681200  0.07323600  1
  H  1739  1  0.19942200  0.36498500  0.04044900  1
  H  1740  1  0.24345600  0.39835800  0.04724300  1
  H  1752  1  0.85064300  0.41344900  0.18252200  1
  H  1753  1  0.81597500  0.37530500  0.17800400  1
  H  1756  1  0.04948300  0.36381400  0.21071100  1
  H  1757  1  0.00536300  0.39711400  0.20385900  1
  H  1769  1  0.84779700  0.83572600  0.06839900  1
  H  1770  1  0.81461200  0.87415700  0.07297400  1
  H  1773  1  0.04611700  0.88366600  0.03897200  1
  H  1774  1  0.00128600  0.85073600  0.04611800  1
  H  1786  1  0.35181400  0.23765900  0.36417200  1
  H  1787  1  0.38578300  0.23788900  0.38711900  1
  H  1790  1  0.36351800  0.35438100  0.36188300  1
  H  1791  1  0.34355800  0.31830300  0.35188600  1
  H  1803  1  0.35503000  0.51266700  0.38676200  1
  H  1804  1  0.39033600  0.51225400  0.36397300  1
  H  1807  1  0.36325900  0.39586900  0.38901900  1
  H  1808  1  0.34363300  0.43204800  0.39893700  1
  H  1820  1  0.64935600  0.76312000  0.63671300  1
  H  1821  1  0.61555300  0.76277000  0.61375000  1
  H  1824  1  0.63746500  0.64641400  0.63922300  1
  H  1825  1  0.65734700  0.68254500  0.64916700  1
  H  1837  1  0.64323600  0.48839500  0.61422400  1
  H  1838  1  0.60857600  0.48895900  0.63708700  1
  H  1841  1  0.63512900  0.60518100  0.61173300  1
  H  1842  1  0.65414300  0.56891800  0.60181600  1
  H  1854  1  0.85187900  0.23811000  0.86411500  1
  H  1855  1  0.88563000  0.23818600  0.88708700  1
  H  1858  1  0.86376700  0.35484300  0.86208200  1
  H  1859  1  0.84392200  0.31883300  0.85198700  1
  H  1871  1  0.85281800  0.51216700  0.88668900  1
  H  1872  1  0.88740000  0.51181200  0.86381600  1
  H  1875  1  0.86169500  0.39537200  0.88889300  1
  H  1876  1  0.84229100  0.43152700  0.89888200  1
  H  1888  1  0.14911000  0.76269100  0.13676600  1
  H  1889  1  0.11535600  0.76246800  0.11379600  1
  H  1892  1  0.13699200  0.64597700  0.13907900  1
  H  1893  1  0.15691200  0.68204800  0.14908800  1
  H  1905  1  0.14471900  0.48885800  0.11425400  1
  H  1906  1  0.11061900  0.48940900  0.13717900  1
  H  1909  1  0.13682400  0.60565800  0.11184000  1
  H  1910  1  0.15545900  0.56939800  0.10185700  1
  H  1922  1  0.85570500  0.73829200  0.36399300  1
  H  1923  1  0.88999600  0.73878200  0.38691200  1
  H  1926  1  0.86537200  0.85505000  0.36149000  1
  H  1927  1  0.84554300  0.81884400  0.35161500  1
  H  1939  1  0.85349600  0.01382700  0.38718800  1
  H  1940  1  0.88675500  0.01382100  0.36414700  1
  H  1943  1  0.86570800  0.89709800  0.38909500  1
  H  1944  1  0.84566900  0.93306300  0.39921500  1
  H  1956  1  0.14551600  0.26255700  0.63691000  1
  H  1957  1  0.11137300  0.26199300  0.61397600  1
  H  1960  1  0.13558600  0.14581500  0.63956700  1
  H  1961  1  0.15538500  0.18205000  0.64940700  1
  H  1973  1  0.14709200  0.98769700  0.61400300  1
  H  1974  1  0.11411600  0.98767800  0.63707300  1
  H  1977  1  0.13234400  0.10434700  0.61186100  1
  H  1978  1  0.15278000  0.06840100  0.60176800  1
  H  1990  1  0.35544900  0.73872900  0.86402700  1
  H  1991  1  0.38959400  0.73907900  0.88696400  1
  H  1994  1  0.36563300  0.85548700  0.86170600  1
  H  1995  1  0.34574200  0.81934700  0.85176400  1
  H  2007  1  0.35448400  0.01283900  0.88722400  1
  H  2008  1  0.38871100  0.01250300  0.86429400  1
  H  2011  1  0.36233700  0.89602300  0.88924100  1
  H  2012  1  0.34290300  0.93216000  0.89924300  1
  H  2024  1  0.64562000  0.26213500  0.13688100  1
  H  2025  1  0.61144100  0.26169300  0.11394900  1
  H  2028  1  0.63516300  0.14539300  0.13938900  1
  H  2029  1  0.65517100  0.18156900  0.14926800  1
  H  2041  1  0.64563100  0.98865500  0.11392300  1
  H  2042  1  0.61153700  0.98900200  0.13686500  1
  H  2045  1  0.63592300  0.10542400  0.11167300  1
  H  2046  1  0.65562900  0.06928300  0.10170400  1
  C  1  1  0.20200200  0.25027300  0.30118800  1
  C  2  1  0.21184800  0.22568000  0.30101400  1
  C  3  1  0.18304800  0.20993000  0.29303700  1
  C  4  1  0.14595400  0.21935100  0.28432200  1
  C  5  1  0.13555100  0.24385700  0.28400200  1
  C  6  1  0.16256400  0.25957300  0.29282800  1
  C  9  1  0.23529800  0.26488900  0.30904100  1
  C  10  1  0.24219900  0.26256600  0.32369700  1
  C  11  1  0.27983600  0.27642400  0.33031800  1
  C  12  1  0.30686900  0.29317300  0.32247300  1
  C  13  1  0.29893100  0.29620700  0.30817600  1
  C  14  1  0.26450000  0.28134800  0.30150300  1
  C  23  1  0.32506100  0.31341700  0.30105600  1
  C  24  1  0.10179500  0.25178900  0.27415300  1
  C  25  1  0.19165000  0.18579200  0.29353800  1
  C  26  1  0.28982300  0.27560400  0.34444200  1
  C  31  1  0.20273700  0.50109800  0.44917000  1
  C  32  1  0.21344900  0.52561300  0.44923600  1
  C  33  1  0.18510600  0.54167900  0.45711500  1
  C  34  1  0.14755600  0.53268300  0.46582400  1
  C  35  1  0.13623200  0.50827200  0.46623200  1
  C  36  1  0.16284200  0.49222000  0.45752000  1
  C  39  1  0.23566800  0.48611600  0.44144000  1
  C  40  1  0.24295200  0.48823000  0.42679000  1
  C  41  1  0.28040200  0.47408900  0.42030300  1
  C  42  1  0.30676000  0.45724200  0.42825100  1
  C  43  1  0.29835900  0.45439200  0.44254100  1
  C  44  1  0.26419400  0.46954400  0.44909500  1
  C  53  1  0.32391800  0.43713200  0.44977900  1
  C  54  1  0.10221900  0.50073800  0.47612000  1
  C  55  1  0.19473200  0.56569700  0.45659700  1
  C  56  1  0.29095300  0.47480200  0.40621600  1
  C  61  1  0.54826400  0.50260600  0.30205100  1
  C  62  1  0.53857800  0.52721100  0.30184100  1
  C  63  1  0.56773600  0.54289700  0.29392900  1
  C  64  1  0.60506300  0.53340800  0.28531900  1
  C  65  1  0.61531800  0.50888100  0.28502400  1
  C  66  1  0.58784100  0.49322100  0.29377700  1
  C  69  1  0.51435700  0.48807600  0.30975900  1
  C  70  1  0.50700700  0.49025800  0.32440900  1
  C  71  1  0.46872600  0.47657000  0.33090100  1
  C  72  1  0.44091700  0.46046600  0.32278500  1
  C  73  1  0.44921000  0.45751900  0.30848200  1
  C  74  1  0.48490100  0.47197300  0.30204300  1
  C  83  1  0.42328500  0.44069500  0.30096400  1
  C  84  1  0.64891300  0.50086200  0.27514200  1
  C  85  1  0.55870600  0.56701800  0.29425600  1
  C  86  1  0.45880900  0.47706800  0.34509100  1
  C  91  1  0.54905000  0.24956900  0.44869400  1
  C  92  1  0.54130500  0.22488400  0.44961700  1
  C  93  1  0.57501900  0.21011600  0.45664500  1
  C  94  1  0.61600800  0.22055300  0.46337500  1
  C  95  1  0.62439300  0.24531000  0.46319900  1
  C  96  1  0.59093300  0.26012500  0.45552000  1
  C  99  1  0.51217700  0.26284200  0.44127600  1
  C  100  1  0.50389600  0.26028600  0.42668600  1
  C  101  1  0.46454600  0.27345100  0.42031900  1
  C  102  1  0.43645100  0.28934700  0.42850100  1
  C  103  1  0.44544300  0.29255900  0.44276000  1
  C  104  1  0.48226700  0.27859500  0.44909100  1
  C  113  1  0.42056200  0.30985300  0.45029100  1
  C  114  1  0.66656300  0.25388100  0.47011500  1
  C  115  1  0.56821600  0.18585200  0.45686200  1
  C  116  1  0.45463000  0.27305700  0.40612500  1
  C  121  1  0.79902600  0.75071500  0.69977300  1
  C  122  1  0.78923200  0.77531300  0.69993800  1
  C  123  1  0.81805400  0.79105200  0.70791500  1
  C  124  1  0.85509100  0.78162200  0.71664300  1
  C  125  1  0.86545800  0.75711500  0.71696600  1
  C  126  1  0.83843900  0.74140400  0.70813800  1
  C  129  1  0.76569600  0.73610000  0.69192800  1
  C  130  1  0.75878900  0.73840200  0.67727100  1
  C  131  1  0.72114900  0.72453300  0.67066000  1
  C  132  1  0.69411500  0.70779900  0.67851600  1
  C  133  1  0.70205700  0.70479000  0.69281300  1
  C  134  1  0.73649000  0.71965800  0.69947800  1
  C  143  1  0.67591300  0.68759400  0.69994200  1
  C  144  1  0.89918600  0.74917400  0.72681900  1
  C  145  1  0.80953800  0.81518100  0.70742900  1
  C  146  1  0.71118000  0.72531500  0.65653400  1
  C  151  1  0.80015400  0.49940300  0.55282200  1
  C  152  1  0.78862800  0.47501400  0.55203300  1
  C  153  1  0.81971900  0.45903800  0.54493800  1
  C  154  1  0.86178500  0.46793700  0.53796400  1
  C  155  1  0.87382500  0.49227000  0.53826500  1
  C  156  1  0.84365800  0.50831800  0.54603200  1
  C  159  1  0.76571800  0.51417300  0.56011900  1
  C  160  1  0.75681100  0.51208000  0.57469000  1
  C  161  1  0.71905200  0.52644800  0.58084900  1
  C  162  1  0.69362300  0.54326300  0.57264800  1
  C  163  1  0.70348400  0.54598900  0.55841300  1
  C  164  1  0.73835200  0.53077900  0.55218300  1
  C  173  1  0.67874100  0.56321200  0.55090500  1
  C  174  1  0.91621500  0.49924900  0.53117100  1
  C  175  1  0.80958300  0.43507600  0.54494900  1
  C  176  1  0.70757400  0.52602900  0.59487600  1
  C  181  1  0.45209300  0.49850000  0.69910800  1
  C  182  1  0.46186800  0.47390400  0.69929200  1
  C  183  1  0.43277700  0.45817200  0.70719300  1
  C  184  1  0.39543500  0.46761000  0.71581600  1
  C  185  1  0.38509400  0.49212800  0.71613800  1
  C  186  1  0.41249700  0.50783400  0.70739600  1
  C  189  1  0.48585500  0.51307600  0.69138600  1
  C  190  1  0.49292200  0.51097400  0.67672300  1
  C  191  1  0.53100100  0.52474000  0.67019900  1
  C  192  1  0.55894100  0.54081300  0.67830000  1
  C  193  1  0.55095700  0.54365900  0.69262400  1
  C  194  1  0.51541500  0.52915200  0.69908900  1
  C  203  1  0.57706800  0.56041700  0.70014600  1
  C  204  1  0.35148400  0.50009800  0.72603000  1
  C  205  1  0.44188200  0.43405600  0.70683700  1
  C  206  1  0.54065000  0.52430100  0.65599900  1
  C  211  1  0.45241700  0.75088100  0.55222100  1
  C  212  1  0.46007200  0.77558200  0.55137200  1
  C  213  1  0.42628800  0.79038900  0.54439900  1
  C  214  1  0.38534000  0.77998200  0.53763400  1
  C  215  1  0.37705900  0.75521400  0.53773000  1
  C  216  1  0.41057100  0.74035700  0.54536300  1
  C  219  1  0.48925200  0.73758700  0.55964200  1
  C  220  1  0.49743300  0.74011300  0.57423800  1
  C  221  1  0.53680900  0.72697800  0.58061000  1
  C  222  1  0.56499800  0.71111000  0.57243400  1
  C  223  1  0.55608700  0.70791200  0.55816900  1
  C  224  1  0.51925900  0.72186900  0.55183100  1
  C  233  1  0.58106900  0.69064400  0.55064300  1
  C  234  1  0.33490200  0.74667700  0.53080000  1
  C  235  1  0.43294900  0.81466200  0.54429000  1
  C  236  1  0.54668400  0.72738300  0.59480300  1
  C  241  1  0.70259400  0.25084200  0.80120000  1
  C  242  1  0.71241700  0.22624400  0.80111500  1
  C  243  1  0.68365100  0.21042300  0.79317900  1
  C  244  1  0.64659900  0.21975900  0.78441900  1
  C  245  1  0.63621700  0.24426400  0.78401200  1
  C  246  1  0.66320700  0.26006500  0.79279200  1
  C  249  1  0.73578200  0.26552700  0.80904900  1
  C  250  1  0.74250600  0.26328900  0.82371400  1
  C  251  1  0.78010100  0.27716700  0.83033500  1
  C  252  1  0.80723600  0.29387300  0.82248700  1
  C  253  1  0.79944700  0.29684100  0.80818000  1
  C  254  1  0.76508100  0.28194200  0.80150500  1
  C  263  1  0.82578800  0.31395800  0.80103300  1
  C  264  1  0.60247400  0.25210100  0.77413500  1
  C  265  1  0.69227800  0.18629400  0.79375200  1
  C  266  1  0.79004000  0.27636200  0.84445800  1
  C  271  1  0.70275000  0.50101000  0.94931200  1
  C  272  1  0.71357600  0.52551400  0.94933200  1
  C  273  1  0.68532000  0.54164200  0.95719100  1
  C  274  1  0.64773200  0.53272500  0.96591600  1
  C  275  1  0.63631400  0.50832500  0.96635800  1
  C  276  1  0.66284200  0.49220100  0.95767700  1
  C  279  1  0.73547300  0.48596000  0.94157100  1
  C  280  1  0.74229000  0.48792600  0.92689900  1
  C  281  1  0.77942000  0.47365800  0.92037300  1
  C  282  1  0.80595800  0.45686200  0.92831100  1
  C  283  1  0.79802000  0.45417100  0.94263200  1
  C  284  1  0.76413500  0.46942900  0.94921500  1
  C  293  1  0.82375800  0.43697200  0.94987500  1
  C  294  1  0.60225000  0.50087200  0.97624400  1
  C  295  1  0.69502800  0.56565000  0.95663200  1
  C  296  1  0.78954900  0.47425000  0.90626700  1
  C  301  1  0.04975900  0.50316700  0.80307800  1
  C  302  1  0.03894200  0.52761800  0.80220700  1
  C  303  1  0.07060300  0.54334300  0.79511400  1
  C  304  1  0.11254500  0.53410900  0.78822600  1
  C  305  1  0.12385000  0.50969500  0.78857700  1
  C  306  1  0.09303500  0.49390500  0.79633500  1
  C  309  1  0.01461300  0.48868800  0.81032000  1
  C  310  1  0.00562200  0.49072100  0.82489600  1
  C  311  1  0.96726900  0.47661200  0.83102300  1
  C  312  1  0.94065600  0.46048000  0.82262300  1
  C  313  1  0.95041600  0.45783000  0.80836500  1
  C  314  1  0.98652900  0.47251600  0.80228200  1
  C  323  1  0.92557600  0.44105000  0.80053700  1
  C  324  1  0.16600200  0.50237300  0.78147600  1
  C  325  1  0.06078200  0.56737200  0.79497800  1
  C  326  1  0.95633900  0.47675500  0.84514500  1
  C  331  1  0.04895800  0.24959200  0.94869400  1
  C  332  1  0.04131200  0.22489700  0.94958800  1
  C  333  1  0.07507600  0.21013900  0.95660600  1
  C  334  1  0.11604200  0.22059200  0.96333800  1
  C  335  1  0.12434000  0.24535800  0.96318200  1
  C  336  1  0.09080200  0.26016500  0.95552700  1
  C  339  1  0.01199800  0.26286000  0.94131100  1
  C  340  1  0.00373500  0.26040600  0.92671500  1
  C  341  1  0.96428900  0.27355700  0.92038400  1
  C  342  1  0.93603300  0.28931700  0.92861400  1
  C  343  1  0.94501800  0.29243200  0.94288000  1
  C  344  1  0.98197300  0.27849300  0.94917100  1
  C  353  1  0.91981700  0.30953800  0.95046500  1
  C  354  1  0.16647700  0.25394600  0.97010000  1
  C  355  1  0.06831500  0.18587500  0.95682400  1
  C  356  1  0.95439800  0.27327200  0.90618900  1
  C  361  1  0.29855100  0.75015800  0.19972700  1
  C  362  1  0.28885400  0.77476800  0.19980600  1
  C  363  1  0.31769200  0.79055700  0.20774300  1
  C  364  1  0.35465900  0.78118400  0.21651600  1
  C  365  1  0.36493200  0.75666900  0.21692300  1
  C  366  1  0.33789100  0.74089600  0.20813800  1
  C  369  1  0.26524900  0.73549900  0.19190100  1
  C  370  1  0.25847600  0.73770600  0.17723500  1
  C  371  1  0.22081900  0.72383500  0.17063600  1
  C  372  1  0.19366400  0.70716600  0.17850700  1
  C  373  1  0.20148700  0.70423000  0.19281600  1
  C  374  1  0.23591900  0.71912500  0.19946600  1
  C  383  1  0.17513900  0.68714700  0.19998500  1
  C  384  1  0.39859500  0.74879700  0.22681200  1
  C  385  1  0.30919800  0.81468300  0.20719600  1
  C  386  1  0.21087300  0.72458500  0.15651200  1
  C  391  1  0.30016900  0.49940800  0.05273100  1
  C  392  1  0.28850200  0.47503200  0.05196600  1
  C  393  1  0.31957000  0.45899400  0.04491100  1
  C  394  1  0.36176100  0.46781500  0.03796100  1
  C  395  1  0.37393300  0.49213200  0.03825400  1
  C  396  1  0.34378900  0.50825100  0.04597400  1
  C  399  1  0.26588300  0.51424400  0.06002200  1
  C  400  1  0.25730300  0.51228500  0.07461300  1
  C  401  1  0.21982600  0.52678500  0.08079000  1
  C  402  1  0.19431300  0.54356700  0.07258700  1
  C  403  1  0.20387000  0.54615200  0.05832700  1
  C  404  1  0.23849000  0.53083200  0.05208100  1
  C  413  1  0.17907900  0.56334400  0.05080900  1
  C  414  1  0.41638600  0.49904200  0.03118400  1
  C  415  1  0.30931700  0.43504600  0.04494300  1
  C  416  1  0.20866800  0.52647900  0.09483100  1
  C  421  1  0.95075100  0.49789500  0.19815800  1
  C  422  1  0.96172600  0.47345800  0.19899200  1
  C  423  1  0.93017300  0.45766200  0.20607000  1
  C  424  1  0.88817800  0.46681300  0.21297400  1
  C  425  1  0.87672700  0.49121300  0.21265100  1
  C  426  1  0.90744200  0.50707700  0.20491700  1
  C  429  1  0.98563500  0.51243900  0.19087100  1
  C  430  1  0.99409500  0.51051600  0.17626800  1
  C  431  1  0.03210000  0.52474000  0.17007100  1
  C  432  1  0.05892200  0.54085400  0.17842900  1
  C  433  1  0.04970400  0.54337300  0.19272300  1
  C  434  1  0.01389900  0.52859400  0.19887100  1
  C  443  1  0.07480600  0.56009500  0.20053200  1
  C  444  1  0.83449700  0.49845200  0.21974200  1
  C  445  1  0.94010100  0.43364300  0.20615900  1
  C  446  1  0.04256500  0.52467400  0.15592700  1
  C  451  1  0.95232700  0.75089200  0.05221600  1
  C  452  1  0.96000100  0.77559200  0.05137800  1
  C  453  1  0.92621700  0.79040900  0.04441000  1
  C  454  1  0.88525000  0.78001400  0.03764800  1
  C  455  1  0.87695400  0.75525000  0.03773800  1
  C  456  1  0.91047000  0.74037700  0.04535900  1
  C  459  1  0.98917000  0.73758000  0.05962100  1
  C  460  1  0.99733200  0.74005000  0.07422000  1
  C  461  1  0.03668800  0.72688300  0.08057800  1
  C  462  1  0.06489700  0.71105500  0.07238100  1
  C  463  1  0.05602100  0.70792400  0.05810900  1
  C  464  1  0.01918900  0.72189900  0.05178900  1
  C  473  1  0.08104300  0.69070400  0.05055600  1
  C  474  1  0.83479200  0.74672300  0.03080700  1
  C  475  1  0.93290700  0.81467900  0.04430200  1
  C  476  1  0.04652800  0.72721500  0.09477400  1
  C  481  1  0.70645700  0.74713300  0.30152900  1
  C  482  1  0.72465800  0.72393900  0.29941600  1
  C  483  1  0.69758700  0.70743100  0.29155400  1
  C  484  1  0.65229900  0.71430600  0.28545400  1
  C  485  1  0.63352000  0.73749700  0.28719800  1
  C  486  1  0.66018500  0.75421400  0.29546800  1
  C  489  1  0.73757400  0.76280400  0.30926100  1
  C  490  1  0.74630600  0.76008800  0.32379700  1
  C  491  1  0.78139800  0.77538900  0.33038800  1
  C  492  1  0.80494900  0.79332000  0.32256500  1
  C  493  1  0.79561000  0.79637500  0.30832500  1
  C  494  1  0.76276800  0.78063800  0.30171400  1
  C  503  1  0.82001400  0.81403900  0.30111900  1
  C  504  1  0.58892100  0.74287500  0.28070000  1
  C  505  1  0.71457400  0.68603800  0.28980300  1
  C  506  1  0.79243900  0.77446400  0.34444400  1
  C  511  1  0.70593500  0.00109600  0.45051200  1
  C  512  1  0.72086600  0.02495400  0.45200300  1
  C  513  1  0.69467000  0.04053200  0.46069900  1
  C  514  1  0.65430000  0.03195800  0.46849300  1
  C  515  1  0.63872400  0.00811500  0.46740400  1
  C  516  1  0.66385900  0.99248100  0.45808800  1
  C  519  1  0.73756300  0.98617500  0.44237100  1
  C  520  1  0.74528900  0.98943100  0.42781800  1
  C  521  1  0.78165100  0.97517900  0.42093900  1
  C  522  1  0.80722100  0.95752700  0.42849000  1
  C  523  1  0.79885800  0.95384800  0.44271700  1
  C  524  1  0.76501400  0.96870900  0.44961600  1
  C  533  1  0.82502800  0.93643600  0.44963600  1
  C  534  1  0.60265300  0.00028200  0.47665100  1
  C  535  1  0.70914300  0.06242700  0.46203000  1
  C  536  1  0.79185400  0.97665300  0.40683800  1
  C  541  1  0.04425000  0.00197500  0.30112800  1
  C  542  1  0.03263500  0.02608400  0.29902400  1
  C  543  1  0.06426800  0.04079200  0.29129800  1
  C  544  1  0.10757600  0.03119900  0.28536200  1
  C  545  1  0.11992600  0.00691500  0.28682000  1
  C  546  1  0.08798400  0.99199100  0.29494300  1
  C  549  1  0.00893300  0.98856000  0.30898000  1
  C  550  1  0.00128300  0.99194000  0.32353300  1
  C  551  1  0.96310400  0.97865800  0.33035300  1
  C  552  1  0.93488900  0.96224900  0.32255400  1
  C  553  1  0.94307400  0.95839700  0.30831200  1
  C  554  1  0.97941300  0.97209000  0.30158400  1
  C  563  1  0.91678100  0.94122200  0.30117900  1
  C  564  1  0.16368900  0.99885200  0.28045200  1
  C  565  1  0.05335900  0.06307700  0.28957700  1
  C  566  1  0.95430500  0.97961800  0.34460800  1
  C  571  1  0.04389100  0.74498200  0.44887600  1
  C  572  1  0.02609100  0.72178600  0.45122600  1
  C  573  1  0.05395200  0.70546400  0.45900600  1
  C  574  1  0.09970100  0.71251500  0.46476300  1
  C  575  1  0.11814700  0.73571300  0.46278300  1
  C  576  1  0.09053400  0.75226600  0.45462900  1
  C  579  1  0.01211500  0.76040500  0.44116800  1
  C  580  1  0.00337200  0.75765900  0.42663000  1
  C  581  1  0.96811100  0.77287300  0.41999800  1
  C  582  1  0.94373700  0.79040300  0.42795400  1
  C  583  1  0.95277400  0.79346200  0.44223000  1
  C  584  1  0.98653600  0.77806900  0.44874500  1
  C  593  1  0.92906700  0.81111000  0.44977100  1
  C  594  1  0.16333900  0.74124100  0.46893500  1
  C  595  1  0.03733800  0.68405700  0.46096800  1
  C  596  1  0.95793400  0.77221400  0.40582700  1
  C  601  1  0.29455600  0.25383800  0.69945500  1
  C  602  1  0.27641900  0.27704500  0.70156300  1
  C  603  1  0.30351700  0.29353500  0.70943100  1
  C  604  1  0.34876200  0.28662800  0.71554300  1
  C  605  1  0.36747400  0.26342400  0.71380600  1
  C  606  1  0.34078500  0.24672600  0.70552700  1
  C  609  1  0.26340300  0.23818400  0.69172200  1
  C  610  1  0.25469200  0.24089100  0.67718400  1
  C  611  1  0.21958700  0.22559700  0.67059200  1
  C  612  1  0.19598600  0.20768500  0.67842100  1
  C  613  1  0.20529300  0.20464600  0.69266200  1
  C  614  1  0.23815300  0.22037100  0.69927300  1
  C  623  1  0.18081400  0.18700700  0.69986800  1
  C  624  1  0.41204600  0.25801700  0.72030800  1
  C  625  1  0.28659200  0.31494000  0.71117600  1
  C  626  1  0.20858000  0.22650600  0.65653300  1
  C  631  1  0.29464600  0.99840000  0.55133300  1
  C  632  1  0.27711100  0.97511700  0.54911400  1
  C  633  1  0.30466000  0.95888100  0.54118400  1
  C  634  1  0.34975500  0.96612000  0.53511500  1
  C  635  1  0.36787200  0.98940700  0.53695600  1
  C  636  1  0.34072200  0.00584200  0.54530400  1
  C  639  1  0.26313200  0.01375600  0.55916700  1
  C  640  1  0.25453700  0.01075400  0.57369100  1
  C  641  1  0.21902600  0.02571300  0.58038000  1
  C  642  1  0.19491300  0.04361100  0.57266100  1
  C  643  1  0.20406100  0.04695300  0.55843400  1
  C  644  1  0.23734500  0.03153400  0.55172800  1
  C  653  1  0.17877800  0.06442400  0.55128600  1
  C  654  1  0.41251200  0.99510400  0.53056600  1
  C  655  1  0.28834000  0.93738600  0.53937300  1
  C  656  1  0.20813200  0.02451400  0.59444000  1
  C  661  1  0.95638400  0.99905900  0.70001200  1
  C  662  1  0.96804000  0.97494400  0.70206500  1
  C  663  1  0.93639400  0.96017300  0.70974700  1
  C  664  1  0.89304300  0.96971100  0.71569000  1
  C  665  1  0.88066100  0.99399900  0.71428000  1
  C  666  1  0.91260500  0.00898700  0.70619900  1
  C  669  1  0.99164700  0.01253800  0.69218200  1
  C  670  1  0.99917600  0.00928000  0.67761700  1
  C  671  1  0.03720200  0.02267200  0.67080800  1
  C  672  1  0.06539900  0.03906100  0.67862700  1
  C  673  1  0.05735700  0.04277300  0.69288800  1
  C  674  1  0.02115800  0.02897700  0.69960400  1
  C  683  1  0.08365700  0.05990100  0.70005700  1
  C  684  1  0.83686700  0.00201000  0.72065000  1
  C  685  1  0.94731700  0.93787700  0.71141400  1
  C  686  1  0.04591300  0.02181200  0.65655100  1
  C  691  1  0.95771400  0.25560100  0.55200800  1
  C  692  1  0.97544600  0.27882000  0.54969300  1
  C  693  1  0.94752500  0.29516000  0.54194100  1
  C  694  1  0.90178300  0.28810800  0.53618200  1
  C  695  1  0.88339900  0.26489100  0.53813000  1
  C  696  1  0.91107700  0.24831600  0.54625300  1
  C  699  1  0.98949000  0.24018300  0.55972000  1
  C  700  1  0.99804700  0.24288800  0.57426900  1
  C  701  1  0.03333700  0.22770400  0.58091100  1
  C  702  1  0.05792100  0.21023400  0.57295600  1
  C  703  1  0.04907800  0.20722000  0.55866900  1
  C  704  1  0.01527600  0.22258600  0.55214300  1
  C  713  1  0.07306300  0.18966000  0.55112000  1
  C  714  1  0.83820000  0.25936600  0.53198000  1
  C  715  1  0.96406500  0.31659000  0.54001800  1
  C  716  1  0.04339600  0.22835100  0.59508700  1
  C  721  1  0.20719900  0.74783400  0.80149300  1
  C  722  1  0.22548000  0.72464100  0.79942200  1
  C  723  1  0.19847900  0.70807800  0.79158100  1
  C  724  1  0.15316700  0.71488800  0.78547000  1
  C  725  1  0.13431300  0.73807300  0.78717300  1
  C  726  1  0.16092400  0.75485400  0.79541400  1
  C  729  1  0.23815300  0.76352800  0.80925800  1
  C  730  1  0.24653000  0.76084800  0.82381100  1
  C  731  1  0.28158000  0.77611400  0.83044200  1
  C  732  1  0.30544800  0.79397600  0.82263900  1
  C  733  1  0.29647000  0.79701200  0.80837900  1
  C  734  1  0.26364800  0.78129700  0.80173400  1
  C  743  1  0.32150300  0.81447600  0.80115400  1
  C  744  1  0.08967100  0.74337900  0.78068000  1
  C  745  1  0.21552300  0.68668400  0.78987500  1
  C  746  1  0.29245100  0.77516100  0.84450500  1
  C  751  1  0.20588400  0.00106400  0.95054900  1
  C  752  1  0.22098600  0.02490600  0.95198600  1
  C  753  1  0.19496300  0.04056800  0.96067100  1
  C  754  1  0.15458100  0.03209800  0.96850100  1
  C  755  1  0.13883900  0.00827300  0.96745800  1
  C  756  1  0.16380200  0.99255000  0.95816000  1
  C  759  1  0.23734300  0.98604100  0.94242700  1
  C  760  1  0.24486500  0.98914000  0.92785400  1
  C  761  1  0.28099900  0.97474600  0.92098200  1
  C  762  1  0.30654300  0.95712700  0.92856700  1
  C  763  1  0.29840200  0.95361800  0.94281700  1
  C  764  1  0.26478500  0.96861000  0.94970300  1
  C  773  1  0.32461800  0.93626000  0.94977100  1
  C  774  1  0.10273900  0.00054400  0.97672200  1
  C  775  1  0.20960300  0.06244500  0.96195900  1
  C  776  1  0.29108900  0.97608200  0.90686900  1
  C  781  1  0.54288100  0.00523800  0.80206500  1
  C  782  1  0.52608000  0.02861700  0.79976900  1
  C  783  1  0.55449600  0.04468200  0.79196000  1
  C  784  1  0.59982500  0.03720200  0.78613000  1
  C  785  1  0.61728500  0.01381900  0.78805800  1
  C  786  1  0.58907400  0.99751400  0.79622700  1
  C  789  1  0.51052700  0.99010700  0.80978900  1
  C  790  1  0.50206000  0.99288200  0.82434000  1
  C  791  1  0.46598400  0.97810100  0.83097500  1
  C  792  1  0.44049200  0.96096000  0.82299600  1
  C  793  1  0.44940300  0.95780400  0.80872600  1
  C  794  1  0.48394700  0.97279000  0.80220400  1
  C  803  1  0.42432100  0.94065500  0.80123500  1
  C  804  1  0.66233500  0.00792000  0.78193400  1
  C  805  1  0.53879800  0.06625800  0.79005200  1
  C  806  1  0.45598600  0.97879800  0.84516300  1
  C  811  1  0.54392000  0.74504000  0.94887000  1
  C  812  1  0.52625100  0.72180500  0.95116700  1
  C  813  1  0.55419800  0.70547200  0.95891500  1
  C  814  1  0.59990700  0.71254600  0.96468800  1
  C  815  1  0.61822400  0.73577700  0.96275300  1
  C  816  1  0.59051600  0.75234900  0.95463900  1
  C  819  1  0.51203200  0.76047900  0.94121300  1
  C  820  1  0.50330800  0.75785900  0.92666600  1
  C  821  1  0.46786900  0.77305000  0.92009000  1
  C  822  1  0.44327100  0.79042800  0.92811200  1
  C  823  1  0.45233100  0.79337300  0.94239300  1
  C  824  1  0.48627600  0.77800200  0.94885300  1
  C  833  1  0.42826200  0.81081300  0.95000300  1
  C  834  1  0.66337800  0.74132800  0.96891900  1
  C  835  1  0.53768800  0.68403700  0.96084000  1
  C  836  1  0.45767700  0.77250700  0.90592000  1
  C  841  1  0.79385500  0.25318800  0.19945500  1
  C  842  1  0.77561200  0.27638700  0.20152400  1
  C  843  1  0.80262400  0.29294000  0.20936900  1
  C  844  1  0.84790800  0.28611200  0.21548900  1
  C  845  1  0.86672500  0.26292000  0.21378900  1
  C  846  1  0.84010400  0.24615000  0.20554300  1
  C  849  1  0.76286800  0.23749500  0.19170000  1
  C  850  1  0.75447500  0.24015300  0.17714500  1
  C  851  1  0.71940900  0.22488100  0.17052500  1
  C  852  1  0.69554200  0.20703500  0.17833900  1
  C  853  1  0.70452000  0.20402600  0.19260200  1
  C  854  1  0.73735800  0.21974700  0.19923600  1
  C  863  1  0.67946700  0.18658600  0.19984000  1
  C  864  1  0.91134600  0.25759700  0.22028900  1
  C  865  1  0.78561100  0.31433900  0.21107300  1
  C  866  1  0.70853500  0.22580600  0.15646100  1
  C  871  1  0.79496100  0.99847000  0.05132200  1
  C  872  1  0.77736300  0.97518900  0.04913800  1
  C  873  1  0.80484400  0.95891800  0.04121400  1
  C  874  1  0.84992700  0.96611900  0.03512000  1
  C  875  1  0.86810300  0.98939800  0.03693700  1
  C  876  1  0.84103200  0.00587200  0.04527500  1
  C  879  1  0.76348700  0.01389000  0.05912300  1
  C  880  1  0.75496700  0.01102400  0.07366000  1
  C  881  1  0.71957300  0.02608200  0.08032000  1
  C  882  1  0.69549000  0.04393000  0.07255400  1
  C  883  1  0.70454200  0.04713000  0.05831100  1
  C  884  1  0.73772300  0.03162100  0.05164000  1
  C  893  1  0.67927000  0.06455400  0.05112100  1
  C  894  1  0.91271300  0.99506000  0.03052900  1
  C  895  1  0.78845700  0.93742800  0.03942300  1
  C  896  1  0.70871400  0.02501300  0.09438700  1
  C  901  1  0.45764700  0.99581300  0.19905700  1
  C  902  1  0.47457500  0.97244200  0.20130700  1
  C  903  1  0.44621800  0.95629500  0.20907600  1
  C  904  1  0.40082600  0.96368400  0.21490600  1
  C  905  1  0.38323500  0.98705300  0.21301800  1
  C  906  1  0.41138300  0.00344400  0.20488900  1
  C  909  1  0.48987100  0.01102200  0.19134700  1
  C  910  1  0.49812200  0.00837500  0.17677800  1
  C  911  1  0.53397000  0.02327800  0.17014400  1
  C  912  1  0.55947300  0.04039600  0.17813600  1
  C  913  1  0.55081200  0.04340000  0.19243000  1
  C  914  1  0.51646900  0.02831000  0.19895100  1
  C  923  1  0.57598400  0.06048700  0.19994900  1
  C  924  1  0.33813400  0.99286400  0.21913600  1
  C  925  1  0.46201700  0.93472300  0.21093700  1
  C  926  1  0.54379000  0.02269300  0.15595000  1
  C  931  1  0.45757300  0.25562000  0.05199600  1
  C  932  1  0.47532000  0.27883700  0.04969100  1
  C  933  1  0.44741400  0.29519000  0.04194500  1
  C  934  1  0.40166400  0.28815200  0.03618300  1
  C  935  1  0.38326500  0.26493700  0.03812600  1
  C  936  1  0.41093300  0.24834700  0.04624000  1
  C  939  1  0.48936400  0.24017800  0.05968400  1
  C  940  1  0.49794700  0.24282300  0.07423500  1
  C  941  1  0.53323300  0.22760300  0.08085100  1
  C  942  1  0.55779300  0.21016700  0.07286800  1
  C  943  1  0.54894200  0.20721700  0.05857600  1
  C  944  1  0.51513500  0.22261100  0.05207800  1
  C  953  1  0.57292100  0.18969900  0.05099600  1
  C  954  1  0.33806500  0.25942100  0.03197300  1
  C  955  1  0.46397600  0.31661600  0.04002400  1
  C  956  1  0.54331700  0.22818900  0.09502600  1
  C  961  1  0.34781900  0.35481400  0.30366300  1
  C  962  1  0.36339200  0.36439400  0.29071900  1
  C  963  1  0.39216100  0.38577500  0.29048800  1
  C  964  1  0.40265500  0.39785600  0.30307500  1
  C  965  1  0.38630500  0.38804600  0.31569400  1
  C  966  1  0.35903300  0.36701800  0.31597800  1
  C  967  1  0.40879100  0.39380100  0.27737500  1
  C  969  1  0.36719300  0.36246700  0.26608400  1
  C  978  1  0.34607900  0.39564600  0.44735900  1
  C  979  1  0.36077700  0.38608400  0.46038500  1
  C  980  1  0.38920700  0.36460800  0.46078400  1
  C  981  1  0.40031600  0.35244000  0.44826600  1
  C  982  1  0.38489300  0.36225700  0.43555800  1
  C  983  1  0.35786000  0.38335100  0.43511600  1
  C  984  1  0.40494200  0.35658900  0.47398100  1
  C  986  1  0.36325800  0.38815100  0.48503000  1
  C  995  1  0.65305900  0.64622100  0.69737300  1
  C  996  1  0.63762200  0.63666400  0.71033500  1
  C  997  1  0.60876900  0.61530900  0.71060100  1
  C  998  1  0.59806700  0.60322700  0.69802700  1
  C  999  1  0.61434600  0.61300000  0.68539000  1
  C  1000  1  0.64171900  0.63399800  0.68507500  1
  C  1001  1  0.59227400  0.60730900  0.72373200  1
  C  1003  1  0.63413500  0.63861800  0.73497400  1
  C  1012  1  0.65501800  0.60470900  0.55344100  1
  C  1013  1  0.64075100  0.61444400  0.54041700  1
  C  1014  1  0.61243100  0.63595900  0.54004400  1
  C  1015  1  0.60104300  0.64800700  0.55258100  1
  C  1016  1  0.61620900  0.63807100  0.56528000  1
  C  1017  1  0.64304900  0.61692300  0.56569800  1
  C  1018  1  0.59703100  0.64413300  0.52684600  1
  C  1020  1  0.63889900  0.61267300  0.51575800  1
  C  1029  1  0.84948400  0.35521600  0.80355600  1
  C  1030  1  0.86437000  0.36476900  0.79054300  1
  C  1031  1  0.89337100  0.38607300  0.79018000  1
  C  1032  1  0.90482600  0.39810200  0.80272000  1
  C  1033  1  0.88911000  0.38834000  0.81541100  1
  C  1034  1  0.86160200  0.36738000  0.81581800  1
  C  1035  1  0.90920700  0.39409800  0.77699200  1
  C  1037  1  0.86654600  0.36289000  0.76588900  1
  C  1046  1  0.84606800  0.39547800  0.94748500  1
  C  1047  1  0.86088000  0.38594300  0.96051000  1
  C  1048  1  0.88918000  0.36443000  0.96090300  1
  C  1049  1  0.90000600  0.35219600  0.94838800  1
  C  1050  1  0.88443400  0.36197200  0.93568400  1
  C  1051  1  0.85756800  0.38311200  0.93524600  1
  C  1052  1  0.90505700  0.35643200  0.97409200  1
  C  1054  1  0.86372900  0.38808900  0.98515000  1
  C  1063  1  0.15129600  0.64587100  0.19748300  1
  C  1064  1  0.13650700  0.63632600  0.21050700  1
  C  1065  1  0.10746700  0.61503600  0.21089100  1
  C  1066  1  0.09588200  0.60300800  0.19836000  1
  C  1067  1  0.11146700  0.61277200  0.18565600  1
  C  1068  1  0.13903700  0.63371200  0.18523000  1
  C  1069  1  0.09173200  0.60702100  0.22409000  1
  C  1071  1  0.13453900  0.63821500  0.23516300  1
  C  1080  1  0.15564200  0.60486900  0.05330900  1
  C  1081  1  0.14094300  0.61451500  0.04030100  1
  C  1082  1  0.11255100  0.63600800  0.03995000  1
  C  1083  1  0.10151000  0.64812300  0.05248900  1
  C  1084  1  0.11700100  0.63824800  0.06517400  1
  C  1085  1  0.14395400  0.61713100  0.06557100  1
  C  1086  1  0.09673900  0.64409600  0.02677200  1
  C  1088  1  0.13831900  0.61258100  0.01565200  1
  C  1097  1  0.84094200  0.85561200  0.30380500  1
  C  1098  1  0.85826100  0.86496800  0.29097200  1
  C  1099  1  0.88715000  0.88631600  0.29090800  1
  C  1100  1  0.89590100  0.89863800  0.30351900  1
  C  1101  1  0.87772500  0.88908800  0.31601300  1
  C  1102  1  0.85047100  0.86805300  0.31614700  1
  C  1103  1  0.90576500  0.89402900  0.27793700  1
  C  1105  1  0.86551800  0.86255300  0.26640900  1
  C  1114  1  0.84860900  0.89541000  0.44692200  1
  C  1115  1  0.86441900  0.88601600  0.45989300  1
  C  1116  1  0.89482400  0.86515700  0.46016800  1
  C  1117  1  0.90671100  0.85334400  0.44758700  1
  C  1118  1  0.89006700  0.86294300  0.43494000  1
  C  1119  1  0.86121900  0.88349500  0.43461600  1
  C  1120  1  0.91158800  0.85735900  0.47331600  1
  C  1122  1  0.86713100  0.88786700  0.48454300  1
  C  1131  1  0.15981700  0.14547200  0.69725600  1
  C  1132  1  0.14274300  0.13616300  0.71012500  1
  C  1133  1  0.11379200  0.11483400  0.71025400  1
  C  1134  1  0.10476900  0.10248200  0.69766800  1
  C  1135  1  0.12277400  0.11196900  0.68513900  1
  C  1136  1  0.15011200  0.13297800  0.68494400  1
  C  1137  1  0.09541000  0.10716800  0.72325900  1
  C  1139  1  0.13596500  0.13865200  0.73469700  1
  C  1148  1  0.15413200  0.10543100  0.55404400  1
  C  1149  1  0.13878100  0.11489600  0.54104700  1
  C  1150  1  0.10824700  0.13571700  0.54072600  1
  C  1151  1  0.09581800  0.14744500  0.55329500  1
  C  1152  1  0.11219000  0.13783800  0.56596500  1
  C  1153  1  0.14109400  0.11730500  0.56633200  1
  C  1154  1  0.09187500  0.14355600  0.52754900  1
  C  1156  1  0.13698100  0.11320100  0.51638500  1
  C  1165  1  0.34535400  0.85566500  0.80395400  1
  C  1166  1  0.36193600  0.86506800  0.79105900  1
  C  1167  1  0.39188200  0.88608600  0.79091800  1
  C  1168  1  0.40245000  0.89806200  0.80353900  1
  C  1169  1  0.38491200  0.88849900  0.81609900  1
  C  1170  1  0.35662900  0.86777000  0.81629800  1
  C  1171  1  0.40956900  0.89386800  0.77786300  1
  C  1173  1  0.36665300  0.86309000  0.76643400  1
  C  1182  1  0.34837300  0.89523700  0.94708700  1
  C  1183  1  0.36423800  0.88587100  0.96005900  1
  C  1184  1  0.39456400  0.86498500  0.96033900  1
  C  1185  1  0.40626500  0.85311400  0.94776400  1
  C  1186  1  0.38952700  0.86266800  0.93511600  1
  C  1187  1  0.36079300  0.88325600  0.93478700  1
  C  1188  1  0.41140900  0.85721600  0.97348300  1
  C  1190  1  0.36717900  0.88780100  0.98470500  1
  C  1199  1  0.65556200  0.14537800  0.19710200  1
  C  1200  1  0.63910800  0.13602900  0.21002300  1
  C  1201  1  0.60907100  0.11504200  0.21021400  1
  C  1202  1  0.59827200  0.10304600  0.19761600  1
  C  1203  1  0.61564600  0.11256400  0.18502800  1
  C  1204  1  0.64404400  0.13325800  0.18477900  1
  C  1205  1  0.59152500  0.10731000  0.22329500  1
  C  1207  1  0.63473100  0.13807800  0.23465100  1
  C  1216  1  0.65452700  0.10557600  0.05386400  1
  C  1217  1  0.63887000  0.11497600  0.04088000  1
  C  1218  1  0.60825200  0.13576900  0.04058100  1
  C  1219  1  0.59602900  0.14752900  0.05315500  1
  C  1220  1  0.61261400  0.13795800  0.06581300  1
  C  1221  1  0.64163000  0.11746100  0.06615900  1
  C  1222  1  0.59159200  0.14355000  0.02742100  1
  C  1224  1  0.63655200  0.11318200  0.01622300  1
  C  1233  1  0.02357200  0.24762400  0.26366100  1
  C  1234  1  0.97688800  0.25741100  0.26752400  1
  C  1235  1  0.93972500  0.26150200  0.25716100  1
  C  1236  1  0.94946600  0.25547200  0.24309000  1
  C  1237  1  0.99599500  0.24540700  0.23960800  1
  C  1238  1  0.03240800  0.24147600  0.24974100  1
  C  1239  1  0.89416800  0.27159100  0.26179000  1
  C  1241  1  0.92284500  0.27278100  0.28489800  1
  C  1250  1  0.02535300  0.50614000  0.48702400  1
  C  1251  1  0.97944700  0.49500600  0.48375000  1
  C  1252  1  0.94327500  0.49128900  0.49442500  1
  C  1253  1  0.95321700  0.49904400  0.50819400  1
  C  1254  1  0.99895600  0.51040400  0.51106900  1
  C  1255  1  0.03438400  0.51398300  0.50063300  1
  C  1256  1  0.89849000  0.47976900  0.49040200  1
  C  1258  1  0.92603400  0.47665800  0.46724700  1
  C  1267  1  0.72560100  0.50571100  0.26395900  1
  C  1268  1  0.77222600  0.49533300  0.26730700  1
  C  1269  1  0.80818200  0.49141400  0.25660000  1
  C  1270  1  0.79736000  0.49826300  0.24271800  1
  C  1271  1  0.75085100  0.50881200  0.23975000  1
  C  1272  1  0.71561300  0.51257200  0.25021800  1
  C  1273  1  0.85372300  0.48067400  0.26071000  1
  C  1275  1  0.82723300  0.47861000  0.28399900  1
  C  1284  1  0.72249800  0.24837700  0.48927900  1
  C  1285  1  0.77206200  0.25348300  0.48488400  1
  C  1286  1  0.80963500  0.25843800  0.49503200  1
  C  1287  1  0.79808300  0.25703600  0.50940800  1
  C  1288  1  0.74909200  0.25112500  0.51343800  1
  C  1289  1  0.71202600  0.24689200  0.50353400  1
  C  1290  1  0.85782500  0.26425300  0.48995300  1
  C  1292  1  0.83184500  0.25884700  0.46684600  1
  C  1301  1  0.97742800  0.75333300  0.73731000  1
  C  1302  1  0.02414000  0.74358200  0.73344400  1
  C  1303  1  0.06130200  0.73949100  0.74380700  1
  C  1304  1  0.05152400  0.74548600  0.75788300  1
  C  1305  1  0.00496100  0.75550800  0.76136800  1
  C  1306  1  0.96854300  0.75943200  0.75123500  1
  C  1307  1  0.10689000  0.72944100  0.73917500  1
  C  1309  1  0.07824600  0.72828100  0.71606400  1
  C  1318  1  0.27486600  0.49514800  0.73724100  1
  C  1319  1  0.22810500  0.50538000  0.73388500  1
  C  1320  1  0.19216300  0.50929100  0.74459800  1
  C  1321  1  0.20313600  0.50256900  0.75849300  1
  C  1322  1  0.24978100  0.49216400  0.76147000  1
  C  1323  1  0.28500000  0.48841200  0.75099500  1
  C  1324  1  0.14648600  0.51988900  0.74048200  1
  C  1326  1  0.17282300  0.52184600  0.71717600  1
  C  1335  1  0.27900600  0.75224400  0.51164100  1
  C  1336  1  0.22940600  0.74721700  0.51603500  1
  C  1337  1  0.19181800  0.74229000  0.50588900  1
  C  1338  1  0.20339500  0.74364500  0.49151200  1
  C  1339  1  0.25241600  0.74950200  0.48748400  1
  C  1340  1  0.28949000  0.75371500  0.49738600  1
  C  1341  1  0.14358800  0.73654400  0.51096800  1
  C  1343  1  0.16958400  0.74195200  0.53407400  1
  C  1352  1  0.52417600  0.24790400  0.76368600  1
  C  1353  1  0.47753600  0.25774200  0.76754600  1
  C  1354  1  0.44038100  0.26184500  0.75718300  1
  C  1355  1  0.45009200  0.25578300  0.74311400  1
  C  1356  1  0.49656500  0.24565700  0.73963700  1
  C  1357  1  0.53297600  0.24171300  0.74977100  1
  C  1358  1  0.39486900  0.27198500  0.76180700  1
  C  1360  1  0.42357600  0.27320700  0.78491200  1
  C  1369  1  0.52523100  0.50626200  0.98703200  1
  C  1370  1  0.47939900  0.49506500  0.98375000  1
  C  1371  1  0.44323000  0.49131200  0.99442100  1
  C  1372  1  0.45312800  0.49908100  0.00818900  1
  C  1373  1  0.49876700  0.51052800  0.01106600  1
  C  1374  1  0.53418600  0.51414700  0.00063400  1
  C  1375  1  0.39851600  0.47973000  0.99039700  1
  C  1377  1  0.42612000  0.47663000  0.96724600  1
  C  1386  1  0.22239600  0.24846600  0.98926600  1
  C  1387  1  0.27197800  0.25354100  0.98487300  1
  C  1388  1  0.30955000  0.25848200  0.99502300  1
  C  1389  1  0.29798400  0.25708400  0.00939800  1
  C  1390  1  0.24898800  0.25117800  0.01342500  1
  C  1391  1  0.21192600  0.24695800  0.00352100  1
  C  1392  1  0.35775700  0.26427700  0.98994600  1
  C  1394  1  0.33178300  0.25888000  0.96683800  1
  C  1403  1  0.47687700  0.75295300  0.23729300  1
  C  1404  1  0.52371500  0.74333400  0.23342800  1
  C  1405  1  0.56084000  0.73924200  0.24380000  1
  C  1406  1  0.55090500  0.74510000  0.25788600  1
  C  1407  1  0.50423100  0.75500400  0.26137300  1
  C  1408  1  0.46784700  0.75893000  0.25123000  1
  C  1409  1  0.60655700  0.72932100  0.23916700  1
  C  1411  1  0.57808800  0.72827800  0.21603800  1
  C  1420  1  0.77893200  0.75231100  0.01164300  1
  C  1421  1  0.72933700  0.74725400  0.01602900  1
  C  1422  1  0.69177900  0.74232000  0.00587400  1
  C  1423  1  0.70338700  0.74368400  0.99150000  1
  C  1424  1  0.75241100  0.74955400  0.98748000  1
  C  1425  1  0.78945900  0.75377200  0.99738900  1
  C  1426  1  0.64354500  0.73655600  0.01094500  1
  C  1428  1  0.66948400  0.74196300  0.03405600  1
  C  1437  1  0.52616200  0.00654900  0.48759900  1
  C  1438  1  0.47947000  0.99709100  0.48347700  1
  C  1439  1  0.44194200  0.99264300  0.49369000  1
  C  1440  1  0.45135500  0.99796100  0.50787900  1
  C  1441  1  0.49795800  0.00768800  0.51161600  1
  C  1442  1  0.53473000  0.01197200  0.50162800  1
  C  1443  1  0.39638900  0.98292600  0.48879600  1
  C  1445  1  0.42573700  0.98274000  0.46574100  1
  C  1454  1  0.22053400  0.00410800  0.26138100  1
  C  1455  1  0.26998300  0.99926400  0.26597800  1
  C  1456  1  0.30807000  0.99420100  0.25599200  1
  C  1457  1  0.29718000  0.99529300  0.24156500  1
  C  1458  1  0.24829700  0.00099700  0.23733600  1
  C  1459  1  0.21073100  0.00528600  0.24707900  1
  C  1460  1  0.35608200  0.98858800  0.26127500  1
  C  1462  1  0.32902900  0.99441800  0.28425200  1
  C  1471  1  0.78001200  0.99668500  0.73970400  1
  C  1472  1  0.73057800  0.00154500  0.73510100  1
  C  1473  1  0.69247600  0.00660500  0.74508300  1
  C  1474  1  0.70333500  0.00549200  0.75951100  1
  C  1475  1  0.75219500  0.99975900  0.76374500  1
  C  1476  1  0.78977600  0.99546500  0.75400700  1
  C  1477  1  0.64449100  0.01225200  0.73979400  1
  C  1479  1  0.67158500  0.00644500  0.71681800  1
  C  1488  1  0.02616700  0.00682600  0.98758300  1
  C  1489  1  0.97986800  0.99691800  0.98348100  1
  C  1490  1  0.94233600  0.99242100  0.99368400  1
  C  1491  1  0.95137300  0.99811000  0.00784400  1
  C  1492  1  0.99755900  0.00830400  0.01155300  1
  C  1493  1  0.03432700  0.01264900  0.00157500  1
  C  1494  1  0.89718600  0.98225600  0.98881400  1
  C  1496  1  0.92689500  0.98177100  0.96579600  1
  C  1505  1  0.16833200  0.15378000  0.30785900  1
  C  1506  1  0.19442000  0.13281600  0.30410900  1
  C  1507  1  0.17270500  0.11025300  0.30705500  1
  C  1508  1  0.12596800  0.10908800  0.31393800  1
  C  1509  1  0.10133200  0.13002300  0.31782300  1
  C  1510  1  0.12239600  0.15212100  0.31484100  1
  C  1511  1  0.20006700  0.08999100  0.30288900  1
  C  1513  1  0.26507800  0.11380300  0.29411800  1
  C  1522  1  0.16966300  0.59778400  0.44246600  1
  C  1523  1  0.19629200  0.61866000  0.44609900  1
  C  1524  1  0.17452900  0.64129800  0.44338700  1
  C  1525  1  0.12716000  0.64263800  0.43685700  1
  C  1526  1  0.10202200  0.62179500  0.43305200  1
  C  1527  1  0.12315500  0.59962100  0.43579800  1
  C  1528  1  0.20247700  0.66146400  0.44741100  1
  C  1530  1  0.26803500  0.63743300  0.45564400  1
  C  1539  1  0.58422800  0.59912200  0.30829300  1
  C  1540  1  0.55746900  0.61992600  0.30458000  1
  C  1541  1  0.57900100  0.64262500  0.30726500  1
  C  1542  1  0.62623300  0.64410100  0.31385900  1
  C  1543  1  0.65147600  0.62333500  0.31775200  1
  C  1544  1  0.63059200  0.60110400  0.31502500  1
  C  1545  1  0.55096800  0.66271200  0.30315400  1
  C  1547  1  0.48570200  0.63851500  0.29491700  1
  C  1556  1  0.58843000  0.15284900  0.44303300  1
  C  1557  1  0.56207300  0.13234000  0.44744200  1
  C  1558  1  0.58293100  0.10944700  0.44492500  1
  C  1559  1  0.62908000  0.10749200  0.43780100  1
  C  1560  1  0.65396100  0.12797400  0.43325900  1
  C  1561  1  0.63375800  0.15040200  0.43583000  1
  C  1562  1  0.55537900  0.08968100  0.44976100  1
  C  1564  1  0.49170700  0.11452900  0.45831000  1
  C  1573  1  0.83252300  0.84723400  0.69306500  1
  C  1574  1  0.80646500  0.86818700  0.69685200  1
  C  1575  1  0.82810900  0.89075900  0.69389200  1
  C  1576  1  0.87474900  0.89194700  0.68696000  1
  C  1577  1  0.89936900  0.87102300  0.68304700  1
  C  1578  1  0.87837700  0.84891600  0.68604300  1
  C  1579  1  0.80076900  0.91100800  0.69809300  1
  C  1581  1  0.73591200  0.88716300  0.70692300  1
  C  1590  1  0.83236700  0.40239600  0.55887900  1
  C  1591  1  0.80543300  0.38176500  0.55496400  1
  C  1592  1  0.82647300  0.35894200  0.55758600  1
  C  1593  1  0.87347100  0.35718300  0.56428600  1
  C  1594  1  0.89894800  0.37779300  0.56834700  1
  C  1595  1  0.87850400  0.40014700  0.56570100  1
  C  1596  1  0.79820200  0.33904000  0.55329900  1
  C  1598  1  0.73374100  0.36364500  0.54497500  1
  C  1607  1  0.41651300  0.40198800  0.69274900  1
  C  1608  1  0.44326800  0.38118200  0.69645800  1
  C  1609  1  0.42178400  0.35848400  0.69374100  1
  C  1610  1  0.37461500  0.35701200  0.68711200  1
  C  1611  1  0.34938400  0.37778200  0.68321800  1
  C  1612  1  0.37022000  0.40001300  0.68597800  1
  C  1613  1  0.44979400  0.33839300  0.69785700  1
  C  1615  1  0.51497100  0.36258600  0.70615300  1
  C  1624  1  0.41325000  0.84757700  0.55823800  1
  C  1625  1  0.44064900  0.86794800  0.55411500  1
  C  1626  1  0.42054400  0.89096000  0.55672800  1
  C  1627  1  0.37399300  0.89316000  0.56362000  1
  C  1628  1  0.34806200  0.87279700  0.56788700  1
  C  1629  1  0.36759700  0.85025600  0.56525400  1
  C  1630  1  0.44922400  0.91058700  0.55222100  1
  C  1632  1  0.51234900  0.88537900  0.54372100  1
  C  1641  1  0.66876500  0.15425800  0.80802700  1
  C  1642  1  0.69537400  0.13339500  0.80436500  1
  C  1643  1  0.67385000  0.11074700  0.80719100  1
  C  1644  1  0.62672900  0.10939300  0.81385800  1
  C  1645  1  0.60161700  0.13023000  0.81768900  1
  C  1646  1  0.62251900  0.15241200  0.81483300  1
  C  1647  1  0.70175900  0.09059500  0.80312800  1
  C  1649  1  0.76686200  0.11466200  0.79465100  1
  C  1658  1  0.66984900  0.59768000  0.94246700  1
  C  1659  1  0.69642100  0.61857900  0.94608700  1
  C  1660  1  0.67461300  0.64119900  0.94334800  1
  C  1661  1  0.62726200  0.64249600  0.93680800  1
  C  1662  1  0.60218000  0.62163000  0.93301500  1
  C  1663  1  0.62335400  0.59947600  0.93578800  1
  C  1664  1  0.70250100  0.66138800  0.94736200  1
  C  1666  1  0.76809100  0.63741500  0.95563000  1
  C  1675  1  0.08455300  0.60002900  0.80877200  1
  C  1676  1  0.05756000  0.62062100  0.80480900  1
  C  1677  1  0.07862300  0.64347200  0.80733200  1
  C  1678  1  0.12566300  0.64530700  0.81400100  1
  C  1679  1  0.15116600  0.62474400  0.81812800  1
  C  1680  1  0.13071800  0.60236100  0.81557000  1
  C  1681  1  0.05033500  0.66333400  0.80298600  1
  C  1683  1  0.98574600  0.63865100  0.79482300  1
  C  1692  1  0.08856000  0.15286300  0.94300900  1
  C  1693  1  0.06225500  0.13235500  0.94744300  1
  C  1694  1  0.08314200  0.10946400  0.94494100  1
  C  1695  1  0.12926400  0.10750800  0.93780400  1
  C  1696  1  0.15409100  0.12798700  0.93323400  1
  C  1697  1  0.13386400  0.15041400  0.93579200  1
  C  1698  1  0.05565000  0.08970000  0.94980400  1
  C  1700  1  0.99197100  0.11454500  0.95835200  1
  C  1709  1  0.33227300  0.84677800  0.19287900  1
  C  1710  1  0.30565600  0.86761200  0.19659200  1
  C  1711  1  0.32705400  0.89028300  0.19375200  1
  C  1712  1  0.37405600  0.89168700  0.18702500  1
  C  1713  1  0.39918700  0.87087800  0.18315300  1
  C  1714  1  0.37841500  0.84867300  0.18602300  1
  C  1715  1  0.29913300  0.91040300  0.19786400  1
  C  1717  1  0.23426500  0.88626700  0.20641000  1
  C  1726  1  0.33224200  0.40239400  0.05888100  1
  C  1727  1  0.30535300  0.38174600  0.05497400  1
  C  1728  1  0.32645100  0.35893700  0.05759800  1
  C  1729  1  0.37346400  0.35720600  0.06429300  1
  C  1730  1  0.39890000  0.37783300  0.06834600  1
  C  1731  1  0.37839600  0.40017400  0.06569700  1
  C  1732  1  0.29821800  0.33901700  0.05332100  1
  C  1734  1  0.23368400  0.36358100  0.04500000  1
  C  1743  1  0.91637100  0.40105200  0.19230300  1
  C  1744  1  0.94337200  0.38044100  0.19622900  1
  C  1745  1  0.92232400  0.35760000  0.19366200  1
  C  1746  1  0.87530000  0.35579700  0.18698100  1
  C  1747  1  0.84979300  0.37638000  0.18288800  1
  C  1748  1  0.87022600  0.39875200  0.18549000  1
  C  1749  1  0.95060600  0.33772100  0.19797800  1
  C  1751  1  0.01517600  0.36236700  0.20619100  1
  C  1760  1  0.91323400  0.84759100  0.05825500  1
  C  1761  1  0.94060000  0.86796600  0.05412000  1
  C  1762  1  0.92048700  0.89097400  0.05673900  1
  C  1763  1  0.87396600  0.89316700  0.06365000  1
  C  1764  1  0.84807200  0.87280100  0.06792600  1
  C  1765  1  0.86761500  0.85026300  0.06528800  1
  C  1766  1  0.94913500  0.91060600  0.05222100  1
  C  1768  1  0.01223200  0.88540800  0.04369700  1
  C  1777  1  0.35169400  0.27485800  0.36164000  1
  C  1778  1  0.36473700  0.29675500  0.36791700  1
  C  1779  1  0.38552300  0.29689800  0.38156000  1
  C  1780  1  0.39385600  0.27509500  0.38856500  1
  C  1781  1  0.38063900  0.25365100  0.38210200  1
  C  1782  1  0.36046900  0.25349700  0.36870600  1
  C  1783  1  0.39688500  0.31939500  0.38727800  1
  C  1785  1  0.36922800  0.33885200  0.36706700  1
  C  1794  1  0.35369900  0.47546500  0.38926500  1
  C  1795  1  0.36650900  0.45349600  0.38304000  1
  C  1796  1  0.38819700  0.45324500  0.36950700  1
  C  1797  1  0.39757400  0.47500500  0.36256100  1
  C  1798  1  0.38452800  0.49652100  0.36896600  1
  C  1799  1  0.36354500  0.49678300  0.38226300  1
  C  1800  1  0.39938400  0.43069000  0.36384200  1
  C  1802  1  0.36974800  0.41137100  0.38387900  1
  C  1811  1  0.64933700  0.72593700  0.63932400  1
  C  1812  1  0.63633600  0.70400900  0.63308100  1
  C  1813  1  0.61567600  0.70379100  0.61942200  1
  C  1814  1  0.60742800  0.72555900  0.61237200  1
  C  1815  1  0.62063100  0.74703400  0.61880000  1
  C  1816  1  0.64070200  0.74726100  0.63220800  1
  C  1817  1  0.60437400  0.68126300  0.61373800  1
  C  1819  1  0.63180600  0.66191600  0.63400800  1
  C  1828  1  0.64434900  0.52558000  0.61162200  1
  C  1829  1  0.63183300  0.54759500  0.61783200  1
  C  1830  1  0.61066200  0.54793900  0.63142600  1
  C  1831  1  0.60152000  0.52622300  0.63844300  1
  C  1832  1  0.61421600  0.50465700  0.63204200  1
  C  1833  1  0.63478700  0.50430700  0.61869800  1
  C  1834  1  0.59983600  0.57053400  0.63708700  1
  C  1836  1  0.62877000  0.58971500  0.61692200  1
  C  1845  1  0.85184600  0.27532500  0.86166300  1
  C  1846  1  0.86482500  0.29718100  0.86799700  1
  C  1847  1  0.88544000  0.29723500  0.88166100  1
  C  1848  1  0.89364000  0.27538300  0.88862600  1
  C  1849  1  0.88054200  0.25398100  0.88210000  1
  C  1850  1  0.86050000  0.25391800  0.86869000  1
  C  1851  1  0.89673900  0.31969400  0.88743900  1
  C  1853  1  0.86938800  0.33928200  0.86723900  1
  C  1862  1  0.85171600  0.47495900  0.88917600  1
  C  1863  1  0.86432200  0.45300100  0.88290700  1
  C  1864  1  0.88544800  0.45278000  0.86930700  1
  C  1865  1  0.89446700  0.47455800  0.86234600  1
  C  1866  1  0.88165500  0.49606400  0.86879900  1
  C  1867  1  0.86114400  0.49629300  0.88215100  1
  C  1868  1  0.89650400  0.43024700  0.86359700  1
  C  1870  1  0.86786800  0.41088300  0.88373300  1
  C  1879  1  0.14906300  0.72549100  0.13930700  1
  C  1880  1  0.13603400  0.70359700  0.13302600  1
  C  1881  1  0.11541500  0.70345500  0.11936300  1
  C  1882  1  0.10724000  0.72526300  0.11234900  1
  C  1883  1  0.12041200  0.74670600  0.11882000  1
  C  1884  1  0.14043800  0.74685600  0.13223100  1
  C  1885  1  0.10408900  0.68096100  0.11363800  1
  C  1887  1  0.13139800  0.66150400  0.13388600  1
  C  1896  1  0.14589500  0.52605200  0.11167700  1
  C  1897  1  0.13365600  0.54807000  0.11792400  1
  C  1898  1  0.11291200  0.54840800  0.13156800  1
  C  1899  1  0.10387400  0.52668500  0.13858500  1
  C  1900  1  0.11630200  0.50511700  0.13214600  1
  C  1901  1  0.13648100  0.50477000  0.11876000  1
  C  1902  1  0.10231700  0.57099400  0.13727000  1
  C  1904  1  0.13061300  0.59018900  0.11703900  1
  C  1913  1  0.85507600  0.77547900  0.36138600  1
  C  1914  1  0.86780900  0.79745500  0.36760300  1
  C  1915  1  0.88892700  0.79774300  0.38120200  1
  C  1916  1  0.89762200  0.77602400  0.38824900  1
  C  1917  1  0.88465000  0.75448600  0.38184900  1
  C  1918  1  0.86424700  0.75418000  0.36848200  1
  C  1919  1  0.90039700  0.82029600  0.38682100  1
  C  1921  1  0.87151500  0.83956500  0.36668100  1
  C  1930  1  0.85373500  0.97661100  0.38962200  1
  C  1931  1  0.86673600  0.95478800  0.38325500  1
  C  1932  1  0.88724700  0.95478500  0.36958200  1
  C  1933  1  0.89519700  0.97664800  0.36260900  1
  C  1934  1  0.88202400  0.99802700  0.36915700  1
  C  1935  1  0.86221000  0.99804600  0.38259900  1
  C  1936  1  0.89875100  0.93235100  0.36379900  1
  C  1938  1  0.87131800  0.91268000  0.38395800  1
  C  1947  1  0.14599400  0.22538100  0.63957400  1
  C  1948  1  0.13327000  0.20338600  0.63337800  1
  C  1949  1  0.11225700  0.20305300  0.61976800  1
  C  1950  1  0.10365600  0.22475000  0.61268700  1
  C  1951  1  0.11664400  0.24630700  0.61906200  1
  C  1952  1  0.13695700  0.24665600  0.63244000  1
  C  1953  1  0.10081700  0.18048300  0.61416900  1
  C  1955  1  0.12950200  0.16128100  0.63435200  1
  C  1964  1  0.14579600  0.02489300  0.61147500  1
  C  1965  1  0.13245900  0.04669200  0.61780900  1
  C  1966  1  0.11223300  0.04668200  0.63151500  1
  C  1967  1  0.10491300  0.02481800  0.63854100  1
  C  1968  1  0.11840100  0.00346200  0.63202100  1
  C  1969  1  0.13802600  0.00345900  0.61856200  1
  C  1970  1  0.10047400  0.06909900  0.63727900  1
  C  1972  1  0.12711600  0.08877100  0.61703500  1
  C  1981  1  0.35498300  0.77592800  0.86148100  1
  C  1982  1  0.36774900  0.79786700  0.86773800  1
  C  1983  1  0.38874900  0.79807600  0.88135100  1
  C  1984  1  0.39727600  0.77631200  0.88836900  1
  C  1985  1  0.38431600  0.75481100  0.88192600  1
  C  1986  1  0.36399800  0.75458800  0.86854900  1
  C  1987  1  0.40024900  0.82059100  0.88701400  1
  C  1989  1  0.37165800  0.83997600  0.86688000  1
  C  1998  1  0.35305900  0.97562800  0.88965900  1
  C  1999  1  0.36546800  0.95368200  0.88334700  1
  C  2000  1  0.38662200  0.95348000  0.86975000  1
  C  2001  1  0.39567000  0.97525300  0.86279100  1
  C  2002  1  0.38306400  0.99675900  0.86928600  1
  C  2003  1  0.36266000  0.99697500  0.88265800  1
  C  2004  1  0.39779700  0.93095600  0.86404400  1
  C  2006  1  0.36867100  0.91154700  0.88410800  1
  C  2015  1  0.64599200  0.22494600  0.13948600  1
  C  2016  1  0.63315900  0.20298600  0.13326600  1
  C  2017  1  0.61212200  0.20272400  0.11965800  1
  C  2018  1  0.60362500  0.22446000  0.11260800  1
  C  2019  1  0.61667100  0.24598200  0.11901200  1
  C  2020  1  0.63699900  0.24626000  0.13238900  1
  C  2021  1  0.60057000  0.18018800  0.11403200  1
  C  2023  1  0.62916200  0.16088300  0.13419200  1
  C  2032  1  0.64621900  0.02585700  0.11139200  1
  C  2033  1  0.63353100  0.04779400  0.11766500  1
  C  2034  1  0.61254300  0.04799800  0.13128100  1
  C  2035  1  0.60389300  0.02623100  0.13828500  1
  C  2036  1  0.61682300  0.00473500  0.13183100  1
  C  2037  1  0.63711500  0.00451400  0.11844900  1
  C  2038  1  0.60120000  0.07051700  0.13696500  1
  C  2040  1  0.62982800  0.08990900  0.11683700  1
  N  17  1  0.14995900  0.28295800  0.29355400  1
  N  18  1  0.21303100  0.24756200  0.33126400  1
  N  47  1  0.14945300  0.46892400  0.45689300  1
  N  48  1  0.21434500  0.50330500  0.41910800  1
  N  77  1  0.60007500  0.46979500  0.29450500  1
  N  78  1  0.53638000  0.50508500  0.33204100  1
  N  107  1  0.59852900  0.28398700  0.45452500  1
  N  108  1  0.53342600  0.24564800  0.41896800  1
  N  137  1  0.85101100  0.71801300  0.70741600  1
  N  138  1  0.78795400  0.75339200  0.66969500  1
  N  167  1  0.85635000  0.53165900  0.54706400  1
  N  168  1  0.78408400  0.49678300  0.58259900  1
  N  197  1  0.40018100  0.53125300  0.70668500  1
  N  198  1  0.46348500  0.49614500  0.66910800  1
  N  227  1  0.40303900  0.71648100  0.54628500  1
  N  228  1  0.46778700  0.75469800  0.58195800  1
  N  257  1  0.65061200  0.28345900  0.79343300  1
  N  258  1  0.71322600  0.24834600  0.83128900  1
  N  287  1  0.64937100  0.46891100  0.95709700  1
  N  288  1  0.71356500  0.50298500  0.91923700  1
  N  317  1  0.10484300  0.47046300  0.79738900  1
  N  318  1  0.03343700  0.50582400  0.83279700  1
  N  347  1  0.09827700  0.28404200  0.95456500  1
  N  348  1  0.03336200  0.24586900  0.91896000  1
  N  377  1  0.35038300  0.71749000  0.20749800  1
  N  378  1  0.28777300  0.75261000  0.16963900  1
  N  407  1  0.35661800  0.53157800  0.04698800  1
  N  408  1  0.28460900  0.49699200  0.08251800  1
  N  437  1  0.89549800  0.53050800  0.20390000  1
  N  438  1  0.96613300  0.49540800  0.16840900  1
  N  467  1  0.90293400  0.71650000  0.04626900  1
  N  468  1  0.96768600  0.75461000  0.08195600  1
  N  497  1  0.64193500  0.77648200  0.29759000  1
  N  498  1  0.72158500  0.74318900  0.33121600  1
  N  527  1  0.64738500  0.96984200  0.45619700  1
  N  528  1  0.71826600  0.00581500  0.42063200  1
  N  557  1  0.09840000  0.96854900  0.29692500  1
  N  558  1  0.03013000  0.00758600  0.33075100  1
  N  587  1  0.10820600  0.77458600  0.45233400  1
  N  588  1  0.02829300  0.74072100  0.41928200  1
  N  617  1  0.35897500  0.22444600  0.70341000  1
  N  618  1  0.27945300  0.25777500  0.66976400  1
  N  647  1  0.35836600  0.02818600  0.54753700  1
  N  648  1  0.27976600  0.99389500  0.58100700  1
  N  677  1  0.90214400  0.03243600  0.70426000  1
  N  678  1  0.97036900  0.99364800  0.67037500  1
  N  707  1  0.89347200  0.22597300  0.54851600  1
  N  708  1  0.97293900  0.25976100  0.58161800  1
  N  737  1  0.14261600  0.77712100  0.79749300  1
  N  738  1  0.22155600  0.74400100  0.83120600  1
  N  767  1  0.14718000  0.96992100  0.95632300  1
  N  768  1  0.21787900  0.00550500  0.92064400  1
  N  797  1  0.60576300  0.97500600  0.79846300  1
  N  798  1  0.52800200  0.00945800  0.83169700  1
  N  827  1  0.60804700  0.77471200  0.95239700  1
  N  828  1  0.52839300  0.74105000  0.91926000  1
  N  857  1  0.85838000  0.22387500  0.20346800  1
  N  858  1  0.77944900  0.25698700  0.16974000  1
  N  887  1  0.85874500  0.02821300  0.04747900  1
  N  888  1  0.78015700  0.99419900  0.08101400  1
  N  917  1  0.39456400  0.02594100  0.20268900  1
  N  918  1  0.47221300  0.99180700  0.16940700  1
  N  947  1  0.39332000  0.22600400  0.04849300  1
  N  948  1  0.47286900  0.25967600  0.08160900  1
  N  968  1  0.39596100  0.38203700  0.26571600  1
  N  973  1  0.35118300  0.35385100  0.27840900  1
  N  976  1  0.32448600  0.33451900  0.30593700  1
  N  977  1  0.43126500  0.41864100  0.30448800  1
  N  985  1  0.39164700  0.36846600  0.48556100  1
  N  990  1  0.34808600  0.39675600  0.47262000  1
  N  993  1  0.32308300  0.41598900  0.44495700  1
  N  994  1  0.42917900  0.33169400  0.44704200  1
  N  1002  1  0.60530500  0.61907100  0.73537400  1
  N  1007  1  0.65000100  0.64721800  0.72262900  1
  N  1010  1  0.67649800  0.66648100  0.69507700  1
  N  1011  1  0.56926700  0.58249700  0.69664600  1
  N  1019  1  0.61057300  0.63237700  0.51524700  1
  N  1024  1  0.65372200  0.60391500  0.52816400  1
  N  1027  1  0.67756400  0.58425600  0.55586600  1
  N  1028  1  0.57228800  0.66878800  0.55382700  1
  N  1036  1  0.89548700  0.38239400  0.76539100  1
  N  1041  1  0.85126100  0.35427900  0.77828700  1
  N  1044  1  0.82563900  0.33507100  0.80590500  1
  N  1045  1  0.93339500  0.41893200  0.80397500  1
  N  1053  1  0.89201200  0.36837000  0.98567200  1
  N  1058  1  0.84842600  0.39667200  0.97274600  1
  N  1061  1  0.82302000  0.41580700  0.94508300  1
  N  1062  1  0.92856700  0.33136200  0.94716100  1
  N  1070  1  0.10556500  0.61872200  0.23568200  1
  N  1075  1  0.14974200  0.64681300  0.22275300  1
  N  1078  1  0.17503800  0.66603300  0.19510900  1
  N  1079  1  0.06711300  0.58223600  0.19712400  1
  N  1087  1  0.10994100  0.63227100  0.01516700  1
  N  1092  1  0.15357100  0.60391700  0.02804100  1
  N  1095  1  0.17822600  0.58442600  0.05572300  1
  N  1096  1  0.07255200  0.66883400  0.05376300  1
  N  1104  1  0.89452200  0.88205000  0.26622700  1
  N  1109  1  0.84770000  0.85421400  0.27860700  1
  N  1112  1  0.81835600  0.83510200  0.30603500  1
  N  1113  1  0.92451400  0.91938000  0.30513500  1
  N  1121  1  0.89741700  0.86882300  0.48495800  1
  N  1126  1  0.85092600  0.89626600  0.47218500  1
  N  1129  1  0.82408900  0.91540400  0.44465300  1
  N  1130  1  0.93655400  0.83292900  0.44623900  1
  N  1138  1  0.10691700  0.11917000  0.73494000  1
  N  1143  1  0.15354800  0.14695500  0.72246400  1
  N  1146  1  0.18258700  0.16592300  0.69498700  1
  N  1147  1  0.07604100  0.08176400  0.69612000  1
  N  1155  1  0.10654900  0.13218800  0.51592300  1
  N  1160  1  0.15280300  0.10475400  0.52876900  1
  N  1163  1  0.17839300  0.08538300  0.55638600  1
  N  1164  1  0.06576000  0.16780100  0.55460000  1
  N  1172  1  0.39659000  0.88226400  0.76616200  1
  N  1177  1  0.34964400  0.85468800  0.77870700  1
  N  1180  1  0.32151900  0.83547500  0.80619300  1
  N  1181  1  0.43154100  0.91868500  0.80504600  1
  N  1189  1  0.39740200  0.86873500  0.98512200  1
  N  1194  1  0.35089200  0.89617400  0.97235000  1
  N  1197  1  0.32380200  0.91521000  0.94481000  1
  N  1198  1  0.43585400  0.83262100  0.94642600  1
  N  1206  1  0.60470900  0.11893400  0.23497100  1
  N  1211  1  0.65161700  0.14642600  0.22235400  1
  N  1214  1  0.67930700  0.16557800  0.19481400  1
  N  1215  1  0.56896100  0.08248300  0.19616100  1
  N  1223  1  0.60605000  0.13214500  0.01578700  1
  N  1228  1  0.65268600  0.10480400  0.02859300  1
  N  1231  1  0.67876700  0.08552600  0.05620100  1
  N  1232  1  0.56582500  0.16782900  0.05448200  1
  N  1240  1  0.88725400  0.27684700  0.27531800  1
  N  1245  1  0.96700100  0.26320400  0.28103100  1
  N  1248  1  0.05818500  0.24257900  0.27303700  1
  N  1249  1  0.91444100  0.25901500  0.23354100  1
  N  1257  1  0.89136700  0.47291200  0.47713000  1
  N  1262  1  0.96944100  0.48754800  0.47053500  1
  N  1265  1  0.05940500  0.51069100  0.47742400  1
  N  1266  1  0.91955600  0.49536900  0.51809400  1
  N  1274  1  0.86171000  0.47468900  0.27408700  1
  N  1279  1  0.78314100  0.48878500  0.28063200  1
  N  1282  1  0.69188000  0.51057400  0.27360700  1
  N  1283  1  0.83086200  0.49442100  0.23279700  1
  N  1291  1  0.86728000  0.26432900  0.47620800  1
  N  1296  1  0.78522400  0.25331700  0.47116100  1
  N  1299  1  0.68382600  0.24383200  0.48106400  1
  N  1300  1  0.83365200  0.26088800  0.51876500  1
  N  1308  1  0.11383400  0.72421500  0.72564500  1
  N  1313  1  0.03406100  0.73782400  0.71993300  1
  N  1316  1  0.94281300  0.75836600  0.72793200  1
  N  1317  1  0.08655700  0.74195400  0.76743100  1
  N  1325  1  0.13836000  0.52575500  0.72709300  1
  N  1330  1  0.21704300  0.51180300  0.72054900  1
  N  1333  1  0.30859300  0.49031800  0.72758700  1
  N  1334  1  0.16968100  0.50643600  0.76842300  1
  N  1342  1  0.13412500  0.73650500  0.52471300  1
  N  1347  1  0.21624200  0.74741300  0.52975800  1
  N  1350  1  0.31767900  0.75677000  0.51985800  1
  N  1351  1  0.16783900  0.73977700  0.48215300  1
  N  1359  1  0.38799200  0.27728200  0.77533100  1
  N  1364  1  0.46768700  0.26358100  0.78104800  1
  N  1367  1  0.55882500  0.24291500  0.77306400  1
  N  1368  1  0.41510900  0.25938400  0.73356000  1
  N  1376  1  0.39145300  0.47285400  0.97712600  1
  N  1381  1  0.46946400  0.48757400  0.97053800  1
  N  1384  1  0.55934300  0.51076900  0.97744600  1
  N  1385  1  0.41949300  0.49536500  0.01808500  1
  N  1393  1  0.36721800  0.26435000  0.97620200  1
  N  1398  1  0.28514600  0.25337500  0.97115100  1
  N  1401  1  0.18374700  0.24389800  0.98105000  1
  N  1402  1  0.33354500  0.26093600  0.01875800  1
  N  1410  1  0.61364600  0.72421500  0.22562800  1
  N  1415  1  0.53378800  0.73769800  0.21990700  1
  N  1418  1  0.44227300  0.75794600  0.22790300  1
  N  1419  1  0.58586300  0.74151500  0.26744700  1
  N  1427  1  0.63405300  0.73650500  0.02468700  1
  N  1432  1  0.71613900  0.74744300  0.02974900  1
  N  1435  1  0.81759200  0.75682100  0.01986500  1
  N  1436  1  0.66785900  0.73981100  0.98213500  1
  N  1444  1  0.38980700  0.97833800  0.47517300  1
  N  1449  1  0.46991800  0.99197900  0.46986000  1
  N  1452  1  0.56166400  0.01163500  0.47848900  1
  N  1453  1  0.41606200  0.99399800  0.51731000  1
  N  1461  1  0.36492200  0.98881400  0.27505100  1
  N  1466  1  0.28254900  0.99975700  0.27974000  1
  N  1469  1  0.18108700  0.00839000  0.26936300  1
  N  1470  1  0.33312200  0.99123100  0.23233700  1
  N  1478  1  0.63568100  0.01205400  0.72601600  1
  N  1483  1  0.71804200  0.00107700  0.72133600  1
  N  1486  1  0.81948100  0.99242400  0.73172600  1
  N  1487  1  0.66740100  0.00958700  0.76873600  1
  N  1495  1  0.89096500  0.97731600  0.97521900  1
  N  1500  1  0.97070400  0.99142700  0.96989300  1
  N  1503  1  0.06171400  0.01189800  0.97848800  1
  N  1504  1  0.91608000  0.99410400  0.01726700  1
  N  1512  1  0.24486200  0.09236100  0.29662300  1
  N  1517  1  0.24021700  0.13368800  0.29785000  1
  N  1520  1  0.18471800  0.17554200  0.30538400  1
  N  1521  1  0.10525800  0.08989400  0.31703700  1
  N  1529  1  0.24781400  0.65894100  0.45334500  1
  N  1534  1  0.24265000  0.61763900  0.45202500  1
  N  1537  1  0.18583900  0.57593700  0.44482900  1
  N  1538  1  0.10624800  0.66191100  0.43404100  1
  N  1546  1  0.50573600  0.66007000  0.29717700  1
  N  1551  1  0.51117900  0.61879100  0.29861800  1
  N  1554  1  0.56835400  0.57721100  0.30597700  1
  N  1555  1  0.64690500  0.66343500  0.31667400  1
  N  1563  1  0.51114900  0.09279500  0.45622300  1
  N  1568  1  0.51683400  0.13396700  0.45395700  1
  N  1571  1  0.57285800  0.17485500  0.44516300  1
  N  1572  1  0.64906200  0.08796000  0.43508100  1
  N  1580  1  0.75606200  0.90861600  0.70440400  1
  N  1585  1  0.76076000  0.86729100  0.70316100  1
  N  1588  1  0.81622900  0.82546500  0.69557100  1
  N  1589  1  0.89541300  0.91115100  0.68385900  1
  N  1597  1  0.75325300  0.34196900  0.54720200  1
  N  1602  1  0.75945600  0.38320600  0.54884500  1
  N  1605  1  0.81665000  0.42436000  0.55666600  1
  N  1606  1  0.89375900  0.33772600  0.56702400  1
  N  1614  1  0.49497400  0.34103000  0.70386400  1
  N  1619  1  0.48950600  0.38231100  0.70245200  1
  N  1622  1  0.43233400  0.42389800  0.69509900  1
  N  1623  1  0.35397600  0.33768200  0.68427300  1
  N  1631  1  0.49370800  0.90723300  0.54593600  1
  N  1636  1  0.48619000  0.86606900  0.54778600  1
  N  1639  1  0.42821400  0.82550000  0.55603700  1
  N  1640  1  0.35450600  0.91280200  0.56635300  1
  N  1648  1  0.74685700  0.09314200  0.79705600  1
  N  1653  1  0.74148900  0.13444700  0.79829700  1
  N  1656  1  0.68485800  0.17608700  0.80558900  1
  N  1657  1  0.60603500  0.09011200  0.81677900  1
  N  1665  1  0.74782600  0.65890500  0.95330900  1
  N  1670  1  0.74276700  0.61759800  0.95202200  1
  N  1673  1  0.68605400  0.57584300  0.94485400  1
  N  1674  1  0.60631800  0.66175200  0.93396600  1
  N  1682  1  0.00531700  0.66034800  0.79693900  1
  N  1687  1  0.01148700  0.61913100  0.79874700  1
  N  1690  1  0.06893600  0.57802500  0.80664500  1
  N  1691  1  0.14593700  0.66479200  0.81667300  1
  N  1699  1  0.01144300  0.09281300  0.95628000  1
  N  1704  1  0.01704100  0.13398100  0.95397200  1
  N  1707  1  0.07297800  0.17487000  0.94512800  1
  N  1708  1  0.14926500  0.08797600  0.93509200  1
  N  1716  1  0.25414600  0.90780800  0.20399100  1
  N  1721  1  0.25965500  0.86650900  0.20272200  1
  N  1724  1  0.31632600  0.82493100  0.19534600  1
  N  1725  1  0.39464900  0.91099200  0.18410100  1
  N  1733  1  0.25325200  0.34191600  0.04722800  1
  N  1738  1  0.25935800  0.38315800  0.04886200  1
  N  1741  1  0.31647800  0.42435100  0.05666300  1
  N  1742  1  0.39380000  0.33776300  0.06703400  1
  N  1750  1  0.99561500  0.34067900  0.20403500  1
  N  1755  1  0.98943400  0.38190500  0.20230000  1
  N  1758  1  0.93196900  0.42304800  0.19447100  1
  N  1759  1  0.85503100  0.33632400  0.18427500  1
  N  1767  1  0.99358400  0.90726000  0.04591900  1
  N  1772  1  0.98610800  0.86609400  0.04777400  1
  N  1775  1  0.92820600  0.82551600  0.05605100  1
  N  1776  1  0.85448000  0.91280600  0.06638900  1
  N  1784  1  0.38857000  0.33939700  0.37995700  1
  N  1789  1  0.35755000  0.31782200  0.36116700  1
  N  1792  1  0.33502800  0.27379000  0.34873700  1
  N  1793  1  0.40961000  0.27388000  0.40156100  1
  N  1801  1  0.39001500  0.41073000  0.37110100  1
  N  1806  1  0.35827100  0.43246200  0.38973400  1
  N  1809  1  0.33635400  0.47663800  0.40209100  1
  N  1810  1  0.41374500  0.47609900  0.34960600  1
  N  1818  1  0.61260700  0.66130300  0.62110200  1
  N  1823  1  0.64344000  0.68297600  0.63987700  1
  N  1826  1  0.66597400  0.72706100  0.65222800  1
  N  1827  1  0.59171200  0.72672000  0.59937000  1
  N  1835  1  0.60903000  0.59044700  0.62976300  1
  N  1840  1  0.63991300  0.56857900  0.61107100  1
  N  1843  1  0.66195500  0.52432400  0.59882500  1
  N  1844  1  0.58564300  0.52519200  0.65142500  1
  N  1852  1  0.88854700  0.33974200  0.88015200  1
  N  1857  1  0.85776900  0.31829100  0.86128200  1
  N  1860  1  0.83520100  0.27433700  0.84875600  1
  N  1861  1  0.90938200  0.27408400  0.90162100  1
  N  1869  1  0.88756400  0.41027200  0.87088400  1
  N  1874  1  0.85650600  0.43195600  0.88962700  1
  N  1877  1  0.83481800  0.47612200  0.90204400  1
  N  1878  1  0.91099500  0.47573000  0.84943000  1
  N  1886  1  0.11224400  0.66096100  0.12097400  1
  N  1891  1  0.14305900  0.68253300  0.13979200  1
  N  1894  1  0.16570600  0.72656300  0.15221200  1
  N  1895  1  0.09154000  0.72649200  0.09934900  1
  N  1903  1  0.11130500  0.59091200  0.12993200  1
  N  1908  1  0.14155100  0.56905600  0.11115200  1
  N  1911  1  0.16313800  0.52477000  0.09885000  1
  N  1912  1  0.08778700  0.52559600  0.15154200  1
  N  1920  1  0.89152700  0.84023500  0.37949200  1
  N  1925  1  0.85995200  0.81846400  0.36084800  1
  N  1928  1  0.83804800  0.77440800  0.34852500  1
  N  1929  1  0.91330900  0.77511100  0.40125700  1
  N  1937  1  0.89062200  0.91227500  0.37106300  1
  N  1942  1  0.85963900  0.93364700  0.38993500  1
  N  1945  1  0.83721300  0.97740100  0.40255000  1
  N  1946  1  0.90987800  0.97780900  0.34951400  1
  N  1954  1  0.10960200  0.16056900  0.62152900  1
  N  1959  1  0.14104200  0.18240000  0.64016500  1
  N  1962  1  0.16298700  0.22648400  0.65243800  1
  N  1963  1  0.08804900  0.22563400  0.59967200  1
  N  1971  1  0.10810300  0.08916800  0.62996500  1
  N  1976  1  0.13903800  0.06782000  0.61107600  1
  N  1979  1  0.16258500  0.02412400  0.59857600  1
  N  1980  1  0.09032200  0.02363300  0.65163800  1
  N  1988  1  0.39153900  0.84057100  0.87970700  1
  N  1993  1  0.36005800  0.81891200  0.86100800  1
  N  1996  1  0.33802500  0.77492800  0.84861300  1
  N  1997  1  0.41300400  0.77531700  0.90137100  1
  N  2005  1  0.38869300  0.91096400  0.87129800  1
  N  2010  1  0.35735300  0.93261400  0.89001700  1
  N  2013  1  0.33644000  0.97660600  0.90257000  1
  N  2014  1  0.41132000  0.97624800  0.84977800  1
  N  2022  1  0.60924600  0.16023800  0.12136900  1
  N  2027  1  0.64082500  0.18196800  0.14002800  1
  N  2030  1  0.66296100  0.22599500  0.15235200  1
  N  2031  1  0.58796800  0.22540800  0.09959900  1
  N  2039  1  0.60998800  0.09050100  0.12967000  1
  N  2044  1  0.64132100  0.06884500  0.11094900  1
  N  2047  1  0.66315800  0.02486500  0.09851700  1
  N  2048  1  0.58842200  0.02522500  0.15131000  1
  O  972  1  0.43823500  0.41293400  0.27557400  1
  O  989  1  0.43385000  0.33732000  0.47595000  1
  O  1006  1  0.56280700  0.58819500  0.72556800  1
  O  1023  1  0.56821300  0.66343800  0.52489600  1
  O  1040  1  0.93872600  0.41316700  0.77505900  1
  O  1057  1  0.93390600  0.33713900  0.97604900  1
  O  1074  1  0.06220100  0.58796200  0.22604400  1
  O  1091  1  0.06783500  0.66338000  0.02484900  1
  O  1108  1  0.93571600  0.91303400  0.27632500  1
  O  1125  1  0.94253000  0.83878400  0.47517400  1
  O  1142  1  0.06546000  0.08818000  0.72493400  1
  O  1159  1  0.06084400  0.16208400  0.52564200  1
  O  1176  1  0.44033200  0.91255500  0.77615700  1
  O  1193  1  0.44233300  0.83863200  0.97533900  1
  O  1210  1  0.56071000  0.08865900  0.22505100  1
  O  1227  1  0.56045700  0.16204700  0.02554000  1
  O  1244  1  0.85539200  0.27665100  0.25335200  1
  O  1261  1  0.86064100  0.47488700  0.49919600  1
  O  1278  1  0.89148300  0.47572500  0.25190000  1
  O  1295  1  0.89697400  0.26989600  0.49813100  1
  O  1312  1  0.14566700  0.72438300  0.74761400  1
  O  1329  1  0.10871800  0.52480900  0.74929400  1
  O  1346  1  0.10440900  0.73095100  0.50279000  1
  O  1363  1  0.35610200  0.27705900  0.75336800  1
  O  1380  1  0.36068300  0.47481100  0.99918800  1
  O  1397  1  0.39691100  0.26990100  0.99812600  1
  O  1414  1  0.64532500  0.72428800  0.24761400  1
  O  1431  1  0.60439600  0.73095100  0.00275900  1
  O  1448  1  0.35729500  0.97759700  0.49706400  1
  O  1465  1  0.39564000  0.98287400  0.25326800  1
  O  1482  1  0.60492900  0.01797300  0.74779700  1
  O  1499  1  0.85814900  0.97682100  0.99708000  1
  O  1516  1  0.18395300  0.06758800  0.30487500  1
  O  1533  1  0.18648400  0.68392100  0.44557000  1
  O  1550  1  0.56677800  0.68521100  0.30494600  1
  O  1567  1  0.57081300  0.06705500  0.44827900  1
  O  1584  1  0.81681700  0.93341700  0.69609400  1
  O  1601  1  0.81348700  0.31644800  0.55504100  1
  O  1618  1  0.43402500  0.31589500  0.69603400  1
  O  1635  1  0.43474800  0.93331300  0.55390000  1
  O  1652  1  0.68593100  0.06812900  0.80504500  1
  O  1669  1  0.68646000  0.68383200  0.94549900  1
  O  1686  1  0.06569000  0.68594100  0.80461100  1
  O  1703  1  0.07111900  0.06707600  0.94833900  1
  O  1720  1  0.31483900  0.93288700  0.19593500  1
  O  1737  1  0.31355900  0.31643400  0.05506700  1
  O  1754  1  0.93526500  0.31512100  0.19631200  1
  O  1771  1  0.93464700  0.93333000  0.05390600  1
  O  1788  1  0.41674800  0.32260800  0.39998700  1
  O  1805  1  0.42027200  0.42738600  0.35127000  1
  O  1822  1  0.58470100  0.67797900  0.60101200  1
  O  1839  1  0.57957100  0.57392300  0.64973100  1
  O  1856  1  0.91639000  0.32282200  0.90018200  1
  O  1873  1  0.91670600  0.42699200  0.85093400  1
  O  1890  1  0.08443800  0.67774900  0.10090300  1
  O  1907  1  0.08256900  0.57435300  0.14998100  1
  O  1924  1  0.92127300  0.82357700  0.39939700  1
  O  1941  1  0.91884800  0.92928000  0.35110600  1
  O  1958  1  0.08008300  0.17715800  0.60157900  1
  O  1975  1  0.08073200  0.07215300  0.65001700  1
  O  1992  1  0.42096500  0.82380000  0.89961700  1
  O  2009  1  0.41870000  0.92774400  0.85146500  1
  O  2026  1  0.57978300  0.17693200  0.10144200  1
  O  2043  1  0.58052800  0.07372700  0.14957500  1
