# generated using pymatgen
data_H22C37(N5O2)2
_symmetry_space_group_name_H-M   'P 1'
_cell_length_a   36.71280000
_cell_length_b   36.71280000
_cell_length_c   44.05390000
_cell_angle_alpha   90.00000000
_cell_angle_beta   90.00000000
_cell_angle_gamma   90.00000000
_symmetry_Int_Tables_number   1
_chemical_formula_structural   H22C37(N5O2)2
_chemical_formula_sum   'H528 C888 N240 O96'
_cell_volume   59377.15410892
_cell_formula_units_Z   24
loop_
 _symmetry_equiv_pos_site_id
 _symmetry_equiv_pos_as_xyz
  1  'x, y, z'
loop_
 _atom_site_type_symbol
 _atom_site_label
 _atom_site_symmetry_multiplicity
 _atom_site_fract_x
 _atom_site_fract_y
 _atom_site_fract_z
 _atom_site_occupancy
  H  25  1  0.99193400  0.22070800  0.17653500  1
  H  26  1  0.98093500  0.17161500  0.14182300  1
  H  27  1  0.98215600  0.11845200  0.10554100  1
  H  28  1  0.99549700  0.07026200  0.07041900  1
  H  29  1  0.10855300  0.08993700  0.08085500  1
  H  30  1  0.10581600  0.20522400  0.16730500  1
  H  31  1  0.09140400  0.20481800  0.08143000  1
  H  32  1  0.20513400  0.22158300  0.07242700  1
  H  33  1  0.21659800  0.17281000  0.10735800  1
  H  34  1  0.08978600  0.09003000  0.16841900  1
  H  35  1  0.21590100  0.11990500  0.14384200  1
  H  36  1  0.20304400  0.07174700  0.17910900  1
  H  70  1  0.70406500  0.07472500  0.67781300  1
  H  71  1  0.71626800  0.12327300  0.64277800  1
  H  72  1  0.71628700  0.17609100  0.60622100  1
  H  73  1  0.70416500  0.22412400  0.57067800  1
  H  74  1  0.59069600  0.20577400  0.57969900  1
  H  75  1  0.59055900  0.09159300  0.66727800  1
  H  76  1  0.60800800  0.09149700  0.58030900  1
  H  77  1  0.49477000  0.07249300  0.57034000  1
  H  78  1  0.48191900  0.12096800  0.60529900  1
  H  79  1  0.60642800  0.20724500  0.66634700  1
  H  80  1  0.48120500  0.17425500  0.64146600  1
  H  81  1  0.49269400  0.22338400  0.67604000  1
  H  115  1  0.20591500  0.72098500  0.57202200  1
  H  116  1  0.21729300  0.67241900  0.60716700  1
  H  117  1  0.21648100  0.61989800  0.64405600  1
  H  118  1  0.20354900  0.57202100  0.67956300  1
  H  119  1  0.09033200  0.59084000  0.66918400  1
  H  120  1  0.09214400  0.70516200  0.58178700  1
  H  121  1  0.10729700  0.70507500  0.66844700  1
  H  122  1  0.99371300  0.72296500  0.67705000  1
  H  123  1  0.98195700  0.67425200  0.64205600  1
  H  124  1  0.10846700  0.59029500  0.58155500  1
  H  125  1  0.98244200  0.62062500  0.60603000  1
  H  126  1  0.99517300  0.57215700  0.57101400  1
  H  160  1  0.49380800  0.57467400  0.07120600  1
  H  161  1  0.48179600  0.62328600  0.10624200  1
  H  162  1  0.48204400  0.67700900  0.14220500  1
  H  163  1  0.49453600  0.72567600  0.17707900  1
  H  164  1  0.60790200  0.70736300  0.16724500  1
  H  165  1  0.60733000  0.59237600  0.08057000  1
  H  166  1  0.59135200  0.59260200  0.16760800  1
  H  167  1  0.70497400  0.57586200  0.17743600  1
  H  168  1  0.71679600  0.62422900  0.14215700  1
  H  169  1  0.59055100  0.70650500  0.07977800  1
  H  170  1  0.71643600  0.67675300  0.10527300  1
  H  171  1  0.70391800  0.72462200  0.06965600  1
  H  205  1  0.92510500  0.29533000  0.32003100  1
  H  206  1  0.87784600  0.28250300  0.35617700  1
  H  207  1  0.82468500  0.28194200  0.39304600  1
  H  208  1  0.77614600  0.29384300  0.42820300  1
  H  209  1  0.79209900  0.40742200  0.41734800  1
  H  210  1  0.90527000  0.40850600  0.32933500  1
  H  211  1  0.90671300  0.39150600  0.41729100  1
  H  212  1  0.92250900  0.50506600  0.42845000  1
  H  213  1  0.87398100  0.51702600  0.39329100  1
  H  214  1  0.79339600  0.39050100  0.32950100  1
  H  215  1  0.82064000  0.51649000  0.35650400  1
  H  216  1  0.77321500  0.50364700  0.32049400  1
  H  250  1  0.77382000  0.00392500  0.82024000  1
  H  251  1  0.82089000  0.01644600  0.85667500  1
  H  252  1  0.87389400  0.01660600  0.89382700  1
  H  253  1  0.92209200  0.00428400  0.92922700  1
  H  254  1  0.90624500  0.89083300  0.91733000  1
  H  255  1  0.79406300  0.89072400  0.82856900  1
  H  256  1  0.79192800  0.90722300  0.91672200  1
  H  257  1  0.77436400  0.79369500  0.92614000  1
  H  258  1  0.82298200  0.78175100  0.89109000  1
  H  259  1  0.90690400  0.90829000  0.83037100  1
  H  260  1  0.87660700  0.78222500  0.85468400  1
  H  261  1  0.92508000  0.79500600  0.81970500  1
  H  295  1  0.42485200  0.50357300  0.92781700  1
  H  296  1  0.37602900  0.51580900  0.89304400  1
  H  297  1  0.32205900  0.51566700  0.85696800  1
  H  298  1  0.27316300  0.50317300  0.82232600  1
  H  299  1  0.29139700  0.38980900  0.83230300  1
  H  300  1  0.40732400  0.39011400  0.91774100  1
  H  301  1  0.40457300  0.40726100  0.82974700  1
  H  302  1  0.42289000  0.29398200  0.81932300  1
  H  303  1  0.37601000  0.28129700  0.85588300  1
  H  304  1  0.29406900  0.40667000  0.92004100  1
  H  305  1  0.32353300  0.28103300  0.89351200  1
  H  306  1  0.27639900  0.29321900  0.92996300  1
  H  340  1  0.27435400  0.79333900  0.42781000  1
  H  341  1  0.32159300  0.78107000  0.39149700  1
  H  342  1  0.37459400  0.78115500  0.35439100  1
  H  343  1  0.42281100  0.79367900  0.31907300  1
  H  344  1  0.40646800  0.90705900  0.33094700  1
  H  345  1  0.29390600  0.90666100  0.41942700  1
  H  346  1  0.29217900  0.89025600  0.33137600  1
  H  347  1  0.27418500  0.00372800  0.32203700  1
  H  348  1  0.32268000  0.01581500  0.35717400  1
  H  349  1  0.40699400  0.88949900  0.41782900  1
  H  350  1  0.37631000  0.01549100  0.39360600  1
  H  351  1  0.42480800  0.00282400  0.42859700  1
  H  367  1  0.98622800  0.96764600  0.04738200  1
  H  369  1  0.04402000  0.98579700  0.92700500  1
  H  370  1  0.07295700  0.01053500  0.94738900  1
  H  372  1  0.02662300  0.01049200  0.07039700  1
  H  374  1  0.98227800  0.97681100  0.93080900  1
  H  381  1  0.71402900  0.32779300  0.54681600  1
  H  383  1  0.65430800  0.31149900  0.42687700  1
  H  384  1  0.62598000  0.28603100  0.44723100  1
  H  386  1  0.67449200  0.28399300  0.56963400  1
  H  388  1  0.71599500  0.32104300  0.43018000  1
  H  395  1  0.21292200  0.46888000  0.70338100  1
  H  397  1  0.15190600  0.48488200  0.82290300  1
  H  398  1  0.12373100  0.51029300  0.80235500  1
  H  400  1  0.17321300  0.51214000  0.68017800  1
  H  402  1  0.21363300  0.47533000  0.81999100  1
  H  409  1  0.48497800  0.82953900  0.20081200  1
  H  411  1  0.54450500  0.81164600  0.32069300  1
  H  412  1  0.57289000  0.78651800  0.30010500  1
  H  414  1  0.52415800  0.78564100  0.17779200  1
  H  416  1  0.48285900  0.82125000  0.31734300  1
  H  423  1  0.16389000  0.79270900  0.45445900  1
  H  425  1  0.20277500  0.83646000  0.57583100  1
  H  426  1  0.23043600  0.86173700  0.55481600  1
  H  428  1  0.21477300  0.82366100  0.43157800  1
  H  430  1  0.17900000  0.78074900  0.57144700  1
  H  437  1  0.66093500  0.50123100  0.29426700  1
  H  439  1  0.70583200  0.46413800  0.17257900  1
  H  440  1  0.73397500  0.43965600  0.19373100  1
  H  442  1  0.71362000  0.47262500  0.31706100  1
  H  444  1  0.67606400  0.51606800  0.17689100  1
  H  451  1  0.53411000  0.29412100  0.79334600  1
  H  453  1  0.49522800  0.33858700  0.67210600  1
  H  454  1  0.46729200  0.36346400  0.69319800  1
  H  456  1  0.48288600  0.32440700  0.81627700  1
  H  458  1  0.51962200  0.28308900  0.67630100  1
  H  465  1  0.98550600  0.46868900  0.54716600  1
  H  467  1  0.04425100  0.48784300  0.42715400  1
  H  468  1  0.07284500  0.51265500  0.44780600  1
  H  470  1  0.02508600  0.51202800  0.57041500  1
  H  472  1  0.98261600  0.47810500  0.43066100  1
  H  479  1  0.71355200  0.82813300  0.04573300  1
  H  481  1  0.65298700  0.81177900  0.92612600  1
  H  482  1  0.62474900  0.78641700  0.94665300  1
  H  484  1  0.67400700  0.78465800  0.06884500  1
  H  486  1  0.71473900  0.82120900  0.92903000  1
  H  493  1  0.21291900  0.96864800  0.20244200  1
  H  495  1  0.15296700  0.98516800  0.32228200  1
  H  496  1  0.12440400  0.01020900  0.30179200  1
  H  498  1  0.17282700  0.01165300  0.17934200  1
  H  500  1  0.21467800  0.97600500  0.31911300  1
  H  507  1  0.16414900  0.29358400  0.95515700  1
  H  509  1  0.20346600  0.33557200  0.07697200  1
  H  510  1  0.23171700  0.36035100  0.05612100  1
  H  512  1  0.21615900  0.32335300  0.93278400  1
  H  514  1  0.17736400  0.28122600  0.07241200  1
  H  521  1  0.66056200  0.99999300  0.79385000  1
  H  523  1  0.70615900  0.96420500  0.67200100  1
  H  524  1  0.73483300  0.94037200  0.69315100  1
  H  526  1  0.71427600  0.97289200  0.81635600  1
  H  528  1  0.67437200  0.01477700  0.67627800  1
  H  535  1  0.48535900  0.96899900  0.54731300  1
  H  537  1  0.54625300  0.98387700  0.42768900  1
  H  538  1  0.57446100  0.00944800  0.44806900  1
  H  540  1  0.52501800  0.01264900  0.57020300  1
  H  542  1  0.48449600  0.97462400  0.43055000  1
  H  549  1  0.98363200  0.82723700  0.70090700  1
  H  551  1  0.04646100  0.81395800  0.82000000  1
  H  552  1  0.07421700  0.78793500  0.79958800  1
  H  554  1  0.02263100  0.78292300  0.67812800  1
  H  556  1  0.98471600  0.82335800  0.81764100  1
  H  563  1  0.03540500  0.29513900  0.29354000  1
  H  565  1  0.99330400  0.33546000  0.17201900  1
  H  566  1  0.96603300  0.36112500  0.19305000  1
  H  568  1  0.98469400  0.32617800  0.31661200  1
  H  570  1  0.01835500  0.28048000  0.17688700  1
  H  577  1  0.48400000  0.47042200  0.04702800  1
  H  579  1  0.54625900  0.48581400  0.92787400  1
  H  580  1  0.57405300  0.51154600  0.94850600  1
  H  582  1  0.52280900  0.51465900  0.07013400  1
  H  584  1  0.48452800  0.47595100  0.93035800  1
  H  609  1  0.31879500  0.22070800  0.17653500  1
  H  610  1  0.30779600  0.17161500  0.14182300  1
  H  611  1  0.30901700  0.11845200  0.10554100  1
  H  612  1  0.32235800  0.07026200  0.07041900  1
  H  613  1  0.43541400  0.08993700  0.08085500  1
  H  614  1  0.43267700  0.20522400  0.16730500  1
  H  615  1  0.41826500  0.20481800  0.08143000  1
  H  616  1  0.53199500  0.22158300  0.07242700  1
  H  617  1  0.54345900  0.17281000  0.10735800  1
  H  618  1  0.41664700  0.09003000  0.16841900  1
  H  619  1  0.54276200  0.11990500  0.14384200  1
  H  620  1  0.52990500  0.07174700  0.17910900  1
  H  654  1  0.03092650  0.07472500  0.67781300  1
  H  655  1  0.04312950  0.12327300  0.64277800  1
  H  656  1  0.04314850  0.17609100  0.60622100  1
  H  657  1  0.03102650  0.22412400  0.57067800  1
  H  658  1  0.91755700  0.20577400  0.57969900  1
  H  659  1  0.91742000  0.09159300  0.66727800  1
  H  660  1  0.93486900  0.09149700  0.58030900  1
  H  661  1  0.82163100  0.07249300  0.57034000  1
  H  662  1  0.80878000  0.12096800  0.60529900  1
  H  663  1  0.93328900  0.20724500  0.66634700  1
  H  664  1  0.80806600  0.17425500  0.64146600  1
  H  665  1  0.81955500  0.22338400  0.67604000  1
  H  699  1  0.53277600  0.72098500  0.57202200  1
  H  700  1  0.54415400  0.67241900  0.60716700  1
  H  701  1  0.54334200  0.61989800  0.64405600  1
  H  702  1  0.53041000  0.57202100  0.67956300  1
  H  703  1  0.41719300  0.59084000  0.66918400  1
  H  704  1  0.41900500  0.70516200  0.58178700  1
  H  705  1  0.43415800  0.70507500  0.66844700  1
  H  706  1  0.32057400  0.72296500  0.67705000  1
  H  707  1  0.30881800  0.67425200  0.64205600  1
  H  708  1  0.43532800  0.59029500  0.58155500  1
  H  709  1  0.30930300  0.62062500  0.60603000  1
  H  710  1  0.32203400  0.57215700  0.57101400  1
  H  744  1  0.82066900  0.57467400  0.07120600  1
  H  745  1  0.80865700  0.62328600  0.10624200  1
  H  746  1  0.80890500  0.67700900  0.14220500  1
  H  747  1  0.82139700  0.72567600  0.17707900  1
  H  748  1  0.93476300  0.70736300  0.16724500  1
  H  749  1  0.93419100  0.59237600  0.08057000  1
  H  750  1  0.91821300  0.59260200  0.16760800  1
  H  751  1  0.03183550  0.57586200  0.17743600  1
  H  752  1  0.04365750  0.62422900  0.14215700  1
  H  753  1  0.91741200  0.70650500  0.07977800  1
  H  754  1  0.04329750  0.67675300  0.10527300  1
  H  755  1  0.03077950  0.72462200  0.06965600  1
  H  789  1  0.25196600  0.29533000  0.32003100  1
  H  790  1  0.20470700  0.28250300  0.35617700  1
  H  791  1  0.15154600  0.28194200  0.39304600  1
  H  792  1  0.10300700  0.29384300  0.42820300  1
  H  793  1  0.11896000  0.40742200  0.41734800  1
  H  794  1  0.23213100  0.40850600  0.32933500  1
  H  795  1  0.23357400  0.39150600  0.41729100  1
  H  796  1  0.24937000  0.50506600  0.42845000  1
  H  797  1  0.20084200  0.51702600  0.39329100  1
  H  798  1  0.12025700  0.39050100  0.32950100  1
  H  799  1  0.14750100  0.51649000  0.35650400  1
  H  800  1  0.10007600  0.50364700  0.32049400  1
  H  834  1  0.10068100  0.00392500  0.82024000  1
  H  835  1  0.14775100  0.01644600  0.85667500  1
  H  836  1  0.20075500  0.01660600  0.89382700  1
  H  837  1  0.24895300  0.00428400  0.92922700  1
  H  838  1  0.23310600  0.89083300  0.91733000  1
  H  839  1  0.12092400  0.89072400  0.82856900  1
  H  840  1  0.11878900  0.90722300  0.91672200  1
  H  841  1  0.10122500  0.79369500  0.92614000  1
  H  842  1  0.14984300  0.78175100  0.89109000  1
  H  843  1  0.23376500  0.90829000  0.83037100  1
  H  844  1  0.20346800  0.78222500  0.85468400  1
  H  845  1  0.25194100  0.79500600  0.81970500  1
  H  879  1  0.75171300  0.50357300  0.92781700  1
  H  880  1  0.70289000  0.51580900  0.89304400  1
  H  881  1  0.64892000  0.51566700  0.85696800  1
  H  882  1  0.60002400  0.50317300  0.82232600  1
  H  883  1  0.61825800  0.38980900  0.83230300  1
  H  884  1  0.73418500  0.39011400  0.91774100  1
  H  885  1  0.73143400  0.40726100  0.82974700  1
  H  886  1  0.74975100  0.29398200  0.81932300  1
  H  887  1  0.70287100  0.28129700  0.85588300  1
  H  888  1  0.62093000  0.40667000  0.92004100  1
  H  889  1  0.65039400  0.28103300  0.89351200  1
  H  890  1  0.60326000  0.29321900  0.92996300  1
  H  924  1  0.60121500  0.79333900  0.42781000  1
  H  925  1  0.64845400  0.78107000  0.39149700  1
  H  926  1  0.70145500  0.78115500  0.35439100  1
  H  927  1  0.74967200  0.79367900  0.31907300  1
  H  928  1  0.73332900  0.90705900  0.33094700  1
  H  929  1  0.62076700  0.90666100  0.41942700  1
  H  930  1  0.61904000  0.89025600  0.33137600  1
  H  931  1  0.60104600  0.00372800  0.32203700  1
  H  932  1  0.64954100  0.01581500  0.35717400  1
  H  933  1  0.73385500  0.88949900  0.41782900  1
  H  934  1  0.70317100  0.01549100  0.39360600  1
  H  935  1  0.75166900  0.00282400  0.42859700  1
  H  951  1  0.31308900  0.96764600  0.04738200  1
  H  953  1  0.37088100  0.98579700  0.92700500  1
  H  954  1  0.39981800  0.01053500  0.94738900  1
  H  956  1  0.35348400  0.01049200  0.07039700  1
  H  958  1  0.30913900  0.97681100  0.93080900  1
  H  965  1  0.04089050  0.32779300  0.54681600  1
  H  967  1  0.98116900  0.31149900  0.42687700  1
  H  968  1  0.95284100  0.28603100  0.44723100  1
  H  970  1  0.00135348  0.28399300  0.56963400  1
  H  972  1  0.04285650  0.32104300  0.43018000  1
  H  979  1  0.53978300  0.46888000  0.70338100  1
  H  981  1  0.47876700  0.48488200  0.82290300  1
  H  982  1  0.45059200  0.51029300  0.80235500  1
  H  984  1  0.50007400  0.51214000  0.68017800  1
  H  986  1  0.54049400  0.47533000  0.81999100  1
  H  993  1  0.81183900  0.82953900  0.20081200  1
  H  995  1  0.87136600  0.81164600  0.32069300  1
  H  996  1  0.89975100  0.78651800  0.30010500  1
  H  998  1  0.85101900  0.78564100  0.17779200  1
  H  1000  1  0.80972000  0.82125000  0.31734300  1
  H  1007  1  0.49075100  0.79270900  0.45445900  1
  H  1009  1  0.52963600  0.83646000  0.57583100  1
  H  1010  1  0.55729700  0.86173700  0.55481600  1
  H  1012  1  0.54163400  0.82366100  0.43157800  1
  H  1014  1  0.50586100  0.78074900  0.57144700  1
  H  1021  1  0.98779600  0.50123100  0.29426700  1
  H  1023  1  0.03269350  0.46413800  0.17257900  1
  H  1024  1  0.06083650  0.43965600  0.19373100  1
  H  1026  1  0.04048150  0.47262500  0.31706100  1
  H  1028  1  0.00292548  0.51606800  0.17689100  1
  H  1035  1  0.86097100  0.29412100  0.79334600  1
  H  1037  1  0.82208900  0.33858700  0.67210600  1
  H  1038  1  0.79415300  0.36346400  0.69319800  1
  H  1040  1  0.80974700  0.32440700  0.81627700  1
  H  1042  1  0.84648300  0.28308900  0.67630100  1
  H  1049  1  0.31236700  0.46868900  0.54716600  1
  H  1051  1  0.37111200  0.48784300  0.42715400  1
  H  1052  1  0.39970600  0.51265500  0.44780600  1
  H  1054  1  0.35194700  0.51202800  0.57041500  1
  H  1056  1  0.30947700  0.47810500  0.43066100  1
  H  1063  1  0.04041350  0.82813300  0.04573300  1
  H  1065  1  0.97984800  0.81177900  0.92612600  1
  H  1066  1  0.95161000  0.78641700  0.94665300  1
  H  1068  1  0.00086848  0.78465800  0.06884500  1
  H  1070  1  0.04160050  0.82120900  0.92903000  1
  H  1077  1  0.53978000  0.96864800  0.20244200  1
  H  1079  1  0.47982800  0.98516800  0.32228200  1
  H  1080  1  0.45126500  0.01020900  0.30179200  1
  H  1082  1  0.49968800  0.01165300  0.17934200  1
  H  1084  1  0.54153900  0.97600500  0.31911300  1
  H  1091  1  0.49101000  0.29358400  0.95515700  1
  H  1093  1  0.53032700  0.33557200  0.07697200  1
  H  1094  1  0.55857800  0.36035100  0.05612100  1
  H  1096  1  0.54302000  0.32335300  0.93278400  1
  H  1098  1  0.50422500  0.28122600  0.07241200  1
  H  1105  1  0.98742300  0.99999300  0.79385000  1
  H  1107  1  0.03302050  0.96420500  0.67200100  1
  H  1108  1  0.06169450  0.94037200  0.69315100  1
  H  1110  1  0.04113750  0.97289200  0.81635600  1
  H  1112  1  0.00123348  0.01477700  0.67627800  1
  H  1119  1  0.81222000  0.96899900  0.54731300  1
  H  1121  1  0.87311400  0.98387700  0.42768900  1
  H  1122  1  0.90132200  0.00944800  0.44806900  1
  H  1124  1  0.85187900  0.01264900  0.57020300  1
  H  1126  1  0.81135700  0.97462400  0.43055000  1
  H  1133  1  0.31049300  0.82723700  0.70090700  1
  H  1135  1  0.37332200  0.81395800  0.82000000  1
  H  1136  1  0.40107800  0.78793500  0.79958800  1
  H  1138  1  0.34949200  0.78292300  0.67812800  1
  H  1140  1  0.31157700  0.82335800  0.81764100  1
  H  1147  1  0.36226600  0.29513900  0.29354000  1
  H  1149  1  0.32016500  0.33546000  0.17201900  1
  H  1150  1  0.29289400  0.36112500  0.19305000  1
  H  1152  1  0.31155500  0.32617800  0.31661200  1
  H  1154  1  0.34521600  0.28048000  0.17688700  1
  H  1161  1  0.81086100  0.47042200  0.04702800  1
  H  1163  1  0.87312000  0.48581400  0.92787400  1
  H  1164  1  0.90091400  0.51154600  0.94850600  1
  H  1166  1  0.84967000  0.51465900  0.07013400  1
  H  1168  1  0.81138900  0.47595100  0.93035800  1
  H  1193  1  0.64565700  0.22070800  0.17653500  1
  H  1194  1  0.63465800  0.17161500  0.14182300  1
  H  1195  1  0.63587900  0.11845200  0.10554100  1
  H  1196  1  0.64922000  0.07026200  0.07041900  1
  H  1197  1  0.76227600  0.08993700  0.08085500  1
  H  1198  1  0.75953900  0.20522400  0.16730500  1
  H  1199  1  0.74512700  0.20481800  0.08143000  1
  H  1200  1  0.85885700  0.22158300  0.07242700  1
  H  1201  1  0.87032100  0.17281000  0.10735800  1
  H  1202  1  0.74350900  0.09003000  0.16841900  1
  H  1203  1  0.86962400  0.11990500  0.14384200  1
  H  1204  1  0.85676700  0.07174700  0.17910900  1
  H  1238  1  0.35778800  0.07472500  0.67781300  1
  H  1239  1  0.36999100  0.12327300  0.64277800  1
  H  1240  1  0.37001000  0.17609100  0.60622100  1
  H  1241  1  0.35788800  0.22412400  0.57067800  1
  H  1242  1  0.24441900  0.20577400  0.57969900  1
  H  1243  1  0.24428200  0.09159300  0.66727800  1
  H  1244  1  0.26173100  0.09149700  0.58030900  1
  H  1245  1  0.14849300  0.07249300  0.57034000  1
  H  1246  1  0.13564200  0.12096800  0.60529900  1
  H  1247  1  0.26015100  0.20724500  0.66634700  1
  H  1248  1  0.13492800  0.17425500  0.64146600  1
  H  1249  1  0.14641700  0.22338400  0.67604000  1
  H  1283  1  0.85963800  0.72098500  0.57202200  1
  H  1284  1  0.87101600  0.67241900  0.60716700  1
  H  1285  1  0.87020400  0.61989800  0.64405600  1
  H  1286  1  0.85727200  0.57202100  0.67956300  1
  H  1287  1  0.74405500  0.59084000  0.66918400  1
  H  1288  1  0.74586700  0.70516200  0.58178700  1
  H  1289  1  0.76102000  0.70507500  0.66844700  1
  H  1290  1  0.64743600  0.72296500  0.67705000  1
  H  1291  1  0.63568000  0.67425200  0.64205600  1
  H  1292  1  0.76219000  0.59029500  0.58155500  1
  H  1293  1  0.63616500  0.62062500  0.60603000  1
  H  1294  1  0.64889600  0.57215700  0.57101400  1
  H  1328  1  0.14753100  0.57467400  0.07120600  1
  H  1329  1  0.13551900  0.62328600  0.10624200  1
  H  1330  1  0.13576700  0.67700900  0.14220500  1
  H  1331  1  0.14825900  0.72567600  0.17707900  1
  H  1332  1  0.26162500  0.70736300  0.16724500  1
  H  1333  1  0.26105300  0.59237600  0.08057000  1
  H  1334  1  0.24507500  0.59260200  0.16760800  1
  H  1335  1  0.35869700  0.57586200  0.17743600  1
  H  1336  1  0.37051900  0.62422900  0.14215700  1
  H  1337  1  0.24427400  0.70650500  0.07977800  1
  H  1338  1  0.37015900  0.67675300  0.10527300  1
  H  1339  1  0.35764100  0.72462200  0.06965600  1
  H  1373  1  0.57882800  0.29533000  0.32003100  1
  H  1374  1  0.53156900  0.28250300  0.35617700  1
  H  1375  1  0.47840800  0.28194200  0.39304600  1
  H  1376  1  0.42986900  0.29384300  0.42820300  1
  H  1377  1  0.44582200  0.40742200  0.41734800  1
  H  1378  1  0.55899300  0.40850600  0.32933500  1
  H  1379  1  0.56043600  0.39150600  0.41729100  1
  H  1380  1  0.57623200  0.50506600  0.42845000  1
  H  1381  1  0.52770400  0.51702600  0.39329100  1
  H  1382  1  0.44711900  0.39050100  0.32950100  1
  H  1383  1  0.47436300  0.51649000  0.35650400  1
  H  1384  1  0.42693800  0.50364700  0.32049400  1
  H  1418  1  0.42754300  0.00392500  0.82024000  1
  H  1419  1  0.47461300  0.01644600  0.85667500  1
  H  1420  1  0.52761700  0.01660600  0.89382700  1
  H  1421  1  0.57581500  0.00428400  0.92922700  1
  H  1422  1  0.55996800  0.89083300  0.91733000  1
  H  1423  1  0.44778600  0.89072400  0.82856900  1
  H  1424  1  0.44565100  0.90722300  0.91672200  1
  H  1425  1  0.42808700  0.79369500  0.92614000  1
  H  1426  1  0.47670500  0.78175100  0.89109000  1
  H  1427  1  0.56062700  0.90829000  0.83037100  1
  H  1428  1  0.53033000  0.78222500  0.85468400  1
  H  1429  1  0.57880300  0.79500600  0.81970500  1
  H  1463  1  0.07857500  0.50357300  0.92781700  1
  H  1464  1  0.02975200  0.51580900  0.89304400  1
  H  1465  1  0.97578200  0.51566700  0.85696800  1
  H  1466  1  0.92688600  0.50317300  0.82232600  1
  H  1467  1  0.94512000  0.38980900  0.83230300  1
  H  1468  1  0.06104700  0.39011400  0.91774100  1
  H  1469  1  0.05829600  0.40726100  0.82974700  1
  H  1470  1  0.07661300  0.29398200  0.81932300  1
  H  1471  1  0.02973300  0.28129700  0.85588300  1
  H  1472  1  0.94779200  0.40667000  0.92004100  1
  H  1473  1  0.97725600  0.28103300  0.89351200  1
  H  1474  1  0.93012200  0.29321900  0.92996300  1
  H  1508  1  0.92807700  0.79333900  0.42781000  1
  H  1509  1  0.97531600  0.78107000  0.39149700  1
  H  1510  1  0.02831700  0.78115500  0.35439100  1
  H  1511  1  0.07653400  0.79367900  0.31907300  1
  H  1512  1  0.06019100  0.90705900  0.33094700  1
  H  1513  1  0.94762900  0.90666100  0.41942700  1
  H  1514  1  0.94590200  0.89025600  0.33137600  1
  H  1515  1  0.92790800  0.00372800  0.32203700  1
  H  1516  1  0.97640300  0.01581500  0.35717400  1
  H  1517  1  0.06071700  0.88949900  0.41782900  1
  H  1518  1  0.03003300  0.01549100  0.39360600  1
  H  1519  1  0.07853100  0.00282400  0.42859700  1
  H  1535  1  0.63995100  0.96764600  0.04738200  1
  H  1537  1  0.69774300  0.98579700  0.92700500  1
  H  1538  1  0.72668000  0.01053500  0.94738900  1
  H  1540  1  0.68034600  0.01049200  0.07039700  1
  H  1542  1  0.63600100  0.97681100  0.93080900  1
  H  1549  1  0.36775200  0.32779300  0.54681600  1
  H  1551  1  0.30803100  0.31149900  0.42687700  1
  H  1552  1  0.27970300  0.28603100  0.44723100  1
  H  1554  1  0.32821500  0.28399300  0.56963400  1
  H  1556  1  0.36971800  0.32104300  0.43018000  1
  H  1563  1  0.86664500  0.46888000  0.70338100  1
  H  1565  1  0.80562900  0.48488200  0.82290300  1
  H  1566  1  0.77745400  0.51029300  0.80235500  1
  H  1568  1  0.82693600  0.51214000  0.68017800  1
  H  1570  1  0.86735600  0.47533000  0.81999100  1
  H  1577  1  0.13870100  0.82953900  0.20081200  1
  H  1579  1  0.19822800  0.81164600  0.32069300  1
  H  1580  1  0.22661300  0.78651800  0.30010500  1
  H  1582  1  0.17788100  0.78564100  0.17779200  1
  H  1584  1  0.13658200  0.82125000  0.31734300  1
  H  1591  1  0.81761300  0.79270900  0.45445900  1
  H  1593  1  0.85649800  0.83646000  0.57583100  1
  H  1594  1  0.88415900  0.86173700  0.55481600  1
  H  1596  1  0.86849600  0.82366100  0.43157800  1
  H  1598  1  0.83272300  0.78074900  0.57144700  1
  H  1605  1  0.31465800  0.50123100  0.29426700  1
  H  1607  1  0.35955500  0.46413800  0.17257900  1
  H  1608  1  0.38769800  0.43965600  0.19373100  1
  H  1610  1  0.36734300  0.47262500  0.31706100  1
  H  1612  1  0.32978700  0.51606800  0.17689100  1
  H  1619  1  0.18783300  0.29412100  0.79334600  1
  H  1621  1  0.14895100  0.33858700  0.67210600  1
  H  1622  1  0.12101500  0.36346400  0.69319800  1
  H  1624  1  0.13660900  0.32440700  0.81627700  1
  H  1626  1  0.17334500  0.28308900  0.67630100  1
  H  1633  1  0.63922900  0.46868900  0.54716600  1
  H  1635  1  0.69797400  0.48784300  0.42715400  1
  H  1636  1  0.72656800  0.51265500  0.44780600  1
  H  1638  1  0.67880900  0.51202800  0.57041500  1
  H  1640  1  0.63633900  0.47810500  0.43066100  1
  H  1647  1  0.36727500  0.82813300  0.04573300  1
  H  1649  1  0.30671000  0.81177900  0.92612600  1
  H  1650  1  0.27847200  0.78641700  0.94665300  1
  H  1652  1  0.32773000  0.78465800  0.06884500  1
  H  1654  1  0.36846200  0.82120900  0.92903000  1
  H  1661  1  0.86664200  0.96864800  0.20244200  1
  H  1663  1  0.80669000  0.98516800  0.32228200  1
  H  1664  1  0.77812700  0.01020900  0.30179200  1
  H  1666  1  0.82655000  0.01165300  0.17934200  1
  H  1668  1  0.86840100  0.97600500  0.31911300  1
  H  1675  1  0.81787200  0.29358400  0.95515700  1
  H  1677  1  0.85718900  0.33557200  0.07697200  1
  H  1678  1  0.88544000  0.36035100  0.05612100  1
  H  1680  1  0.86988200  0.32335300  0.93278400  1
  H  1682  1  0.83108700  0.28122600  0.07241200  1
  H  1689  1  0.31428500  0.99999300  0.79385000  1
  H  1691  1  0.35988200  0.96420500  0.67200100  1
  H  1692  1  0.38855600  0.94037200  0.69315100  1
  H  1694  1  0.36799900  0.97289200  0.81635600  1
  H  1696  1  0.32809500  0.01477700  0.67627800  1
  H  1703  1  0.13908200  0.96899900  0.54731300  1
  H  1705  1  0.19997600  0.98387700  0.42768900  1
  H  1706  1  0.22818400  0.00944800  0.44806900  1
  H  1708  1  0.17874100  0.01264900  0.57020300  1
  H  1710  1  0.13821900  0.97462400  0.43055000  1
  H  1717  1  0.63735500  0.82723700  0.70090700  1
  H  1719  1  0.70018400  0.81395800  0.82000000  1
  H  1720  1  0.72794000  0.78793500  0.79958800  1
  H  1722  1  0.67635400  0.78292300  0.67812800  1
  H  1724  1  0.63843900  0.82335800  0.81764100  1
  H  1731  1  0.68912800  0.29513900  0.29354000  1
  H  1733  1  0.64702700  0.33546000  0.17201900  1
  H  1734  1  0.61975600  0.36112500  0.19305000  1
  H  1736  1  0.63841700  0.32617800  0.31661200  1
  H  1738  1  0.67207800  0.28048000  0.17688700  1
  H  1745  1  0.13772300  0.47042200  0.04702800  1
  H  1747  1  0.19998200  0.48581400  0.92787400  1
  H  1748  1  0.22777600  0.51154600  0.94850600  1
  H  1750  1  0.17653200  0.51465900  0.07013400  1
  H  1752  1  0.13825100  0.47595100  0.93035800  1
  C  1  1  0.12424000  0.12453900  0.14297700  1
  C  2  1  0.16042600  0.13277400  0.13577900  1
  C  3  1  0.16080500  0.16054100  0.11446000  1
  C  4  1  0.12488000  0.16933200  0.10680400  1
  C  5  1  0.11778900  0.19798300  0.08626300  1
  C  6  1  0.14712200  0.21843100  0.07410200  1
  C  7  1  0.18332700  0.20821600  0.08165800  1
  C  8  1  0.19038800  0.17934400  0.10174600  1
  C  9  1  0.18949300  0.11373000  0.14908000  1
  C  10  1  0.18164300  0.08526600  0.16937900  1
  C  11  1  0.14515200  0.07582900  0.17664300  1
  C  12  1  0.11634500  0.09637300  0.16378000  1
  C  13  1  0.07267500  0.16914100  0.14224300  1
  C  14  1  0.03683700  0.15993000  0.13465600  1
  C  15  1  0.03749000  0.13204300  0.11344200  1
  C  16  1  0.07375300  0.12421700  0.10618700  1
  C  17  1  0.00862100  0.11256300  0.10027700  1
  C  18  1  0.01675700  0.08408500  0.08006700  1
  C  19  1  0.05334000  0.07504300  0.07277600  1
  C  20  1  0.08193200  0.09597400  0.08553300  1
  C  21  1  0.07949000  0.19801800  0.16262900  1
  C  22  1  0.04997500  0.21826200  0.17474000  1
  C  23  1  0.01387200  0.20755900  0.16730800  1
  C  24  1  0.00708400  0.17847900  0.14735700  1
  C  37  1  0.09888500  0.14690400  0.12454800  1
  C  38  1  0.06067800  0.04659200  0.05180800  1
  C  39  1  0.05592100  0.24796400  0.19488000  1
  C  40  1  0.14094400  0.24792200  0.05382400  1
  C  41  1  0.13812000  0.04735500  0.19765600  1
  C  46  1  0.57292800  0.17129800  0.64147500  1
  C  47  1  0.53699500  0.16224400  0.63407500  1
  C  48  1  0.53737900  0.13420900  0.61299200  1
  C  49  1  0.57355700  0.12608200  0.60566900  1
  C  50  1  0.58144800  0.09770300  0.58506900  1
  C  51  1  0.55265700  0.07686700  0.57249800  1
  C  52  1  0.51617100  0.08620400  0.57987300  1
  C  53  1  0.50832100  0.11484700  0.60000100  1
  C  54  1  0.50742500  0.18101900  0.64684600  1
  C  55  1  0.51449900  0.21011500  0.66666667  1
  C  56  1  0.55071000  0.22061700  0.67398300  1
  C  57  1  0.58003400  0.20023500  0.66173000  1
  C  58  1  0.62455000  0.12685400  0.64211100  1
  C  59  1  0.66062500  0.13553600  0.63487000  1
  C  60  1  0.66065800  0.16317200  0.61343500  1
  C  61  1  0.62462100  0.17130900  0.60564200  1
  C  62  1  0.68999300  0.18220200  0.60054600  1
  C  63  1  0.68256000  0.21062800  0.58010500  1
  C  64  1  0.64622400  0.22005000  0.57230100  1
  C  65  1  0.61716000  0.19946700  0.58472400  1
  C  66  1  0.61702400  0.09846100  0.66279900  1
  C  67  1  0.64611800  0.07813800  0.67545400  1
  C  68  1  0.68247800  0.08814800  0.66827000  1
  C  69  1  0.68995000  0.11682100  0.64809000  1
  C  82  1  0.59891300  0.14890900  0.62369700  1
  C  83  1  0.63965700  0.24852500  0.55117500  1
  C  84  1  0.63956700  0.04883200  0.69578400  1
  C  85  1  0.55969800  0.04820200  0.55164700  1
  C  86  1  0.55693100  0.25019700  0.69417700  1
  C  91  1  0.07409500  0.62501100  0.60687000  1
  C  92  1  0.03793600  0.63347600  0.61398200  1
  C  93  1  0.03766000  0.66146400  0.63512600  1
  C  94  1  0.07362700  0.67005500  0.64280800  1
  C  95  1  0.08087500  0.69855700  0.66344800  1
  C  96  1  0.05167700  0.71917400  0.67562200  1
  C  97  1  0.01542100  0.70944200  0.66781800  1
  C  98  1  0.00819900  0.68062300  0.64769300  1
  C  99  1  0.00883200  0.61432200  0.60083900  1
  C  100  1  0.01660900  0.58567300  0.58068800  1
  C  101  1  0.05307300  0.57613400  0.57341300  1
  C  102  1  0.08192100  0.59668800  0.58620000  1
  C  103  1  0.12556200  0.66967100  0.60719000  1
  C  104  1  0.16147400  0.66066800  0.61470100  1
  C  105  1  0.16103800  0.63300500  0.63612000  1
  C  106  1  0.12484300  0.62500200  0.64348000  1
  C  107  1  0.19006700  0.61387300  0.64939100  1
  C  108  1  0.18216800  0.58558300  0.66984300  1
  C  109  1  0.14566600  0.57636800  0.67727000  1
  C  110  1  0.11690300  0.59698200  0.66440600  1
  C  111  1  0.11852100  0.69817600  0.58649500  1
  C  112  1  0.14789600  0.71832700  0.57405600  1
  C  113  1  0.18408000  0.70789400  0.58147600  1
  C  114  1  0.19108700  0.67915800  0.60171500  1
  C  127  1  0.09953200  0.64748800  0.62510900  1
  C  128  1  0.13860100  0.54801600  0.69839600  1
  C  129  1  0.14177700  0.74767600  0.55361200  1
  C  130  1  0.05809300  0.74795900  0.69651000  1
  C  131  1  0.06006200  0.54767500  0.55236200  1
  C  136  1  0.62476800  0.67221200  0.10563600  1
  C  137  1  0.66088600  0.66400000  0.11309000  1
  C  138  1  0.66107200  0.63640400  0.13456800  1
  C  139  1  0.62507300  0.62770200  0.14205600  1
  C  140  1  0.61777600  0.59936800  0.16285400  1
  C  141  1  0.64699700  0.57913000  0.17541400  1
  C  142  1  0.68327600  0.58916500  0.16795800  1
  C  143  1  0.69053300  0.61777100  0.14765400  1
  C  144  1  0.69007800  0.68291100  0.09985300  1
  C  145  1  0.68242100  0.71120900  0.07934200  1
  C  146  1  0.64600000  0.72062000  0.07181100  1
  C  147  1  0.61706800  0.70020000  0.08462000  1
  C  148  1  0.57347500  0.62733100  0.10610900  1
  C  149  1  0.53745300  0.63592800  0.11360400  1
  C  150  1  0.53758600  0.66400000  0.13467600  1
  C  151  1  0.57369600  0.67245200  0.14198100  1
  C  152  1  0.50839700  0.68328700  0.14754500  1
  C  153  1  0.51604300  0.71207300  0.16759800  1
  C  154  1  0.55245600  0.72163900  0.17502900  1
  C  155  1  0.58138300  0.70095400  0.16251300  1
  C  156  1  0.58087600  0.59885100  0.08548500  1
  C  157  1  0.55176100  0.57834800  0.07304500  1
  C  158  1  0.51544900  0.58809400  0.08065500  1
  C  159  1  0.50808100  0.61686900  0.10078900  1
  C  172  1  0.59925100  0.64989000  0.12393900  1
  C  173  1  0.55929500  0.75024700  0.19597900  1
  C  174  1  0.55832000  0.54973700  0.05202100  1
  C  175  1  0.64063700  0.54991700  0.19590700  1
  C  176  1  0.63920200  0.74895600  0.05061500  1
  C  181  1  0.82671700  0.42495200  0.35596600  1
  C  182  1  0.83440300  0.46108700  0.36377000  1
  C  183  1  0.86226600  0.46135100  0.38506700  1
  C  184  1  0.87144200  0.42535000  0.39210800  1
  C  185  1  0.89987400  0.41797100  0.41276200  1
  C  186  1  0.91980900  0.44711400  0.42577100  1
  C  187  1  0.90953000  0.48341400  0.41861000  1
  C  188  1  0.88079000  0.49073900  0.39840300  1
  C  189  1  0.81488400  0.49010700  0.35086500  1
  C  190  1  0.78682900  0.48225400  0.33014100  1
  C  191  1  0.77830000  0.44579800  0.32201400  1
  C  192  1  0.79901800  0.41705600  0.33476700  1
  C  193  1  0.87202800  0.37406600  0.35588700  1
  C  194  1  0.86429800  0.33792300  0.36363800  1
  C  195  1  0.83649500  0.33763400  0.38498000  1
  C  196  1  0.82737900  0.37362400  0.39211700  1
  C  197  1  0.81792400  0.30822200  0.39823200  1
  C  198  1  0.78919000  0.31551400  0.41844900  1
  C  199  1  0.77895400  0.35180400  0.42568500  1
  C  200  1  0.79897400  0.38097000  0.41280800  1
  C  201  1  0.89963100  0.38195400  0.33459400  1
  C  202  1  0.92019900  0.35319300  0.32169400  1
  C  203  1  0.91159700  0.31673400  0.32976400  1
  C  204  1  0.88365300  0.30889200  0.35058900  1
  C  217  1  0.84939800  0.39949800  0.37395800  1
  C  218  1  0.75027200  0.35839500  0.44664800  1
  C  219  1  0.94743200  0.36018500  0.29955800  1
  C  220  1  0.94845100  0.44045900  0.44677100  1
  C  221  1  0.75100700  0.43874000  0.29994600  1
  C  226  1  0.87221800  0.87385300  0.85558800  1
  C  227  1  0.86374500  0.83769100  0.86270400  1
  C  228  1  0.83561000  0.83740500  0.88374600  1
  C  229  1  0.82689400  0.87338400  0.89124000  1
  C  230  1  0.79843500  0.88075800  0.91187600  1
  C  231  1  0.77793300  0.85165600  0.92433300  1
  C  232  1  0.78771900  0.81536100  0.91667900  1
  C  233  1  0.81650200  0.80802800  0.89651900  1
  C  234  1  0.88294200  0.80862500  0.84955000  1
  C  235  1  0.91162200  0.81644500  0.82942400  1
  C  236  1  0.92119600  0.85291500  0.82217600  1
  C  237  1  0.90059000  0.88171900  0.83499000  1
  C  238  1  0.82712500  0.92493300  0.85546500  1
  C  239  1  0.83467800  0.96098600  0.86360100  1
  C  240  1  0.86221400  0.96101000  0.88518800  1
  C  241  1  0.87127900  0.92493600  0.89207900  1
  C  242  1  0.88059400  0.99026700  0.89885800  1
  C  243  1  0.90910700  0.98273600  0.91922800  1
  C  244  1  0.91928700  0.94636200  0.92621500  1
  C  245  1  0.89943200  0.91733900  0.91294300  1
  C  246  1  0.79968300  0.91723500  0.83398900  1
  C  247  1  0.77903300  0.94608100  0.82133000  1
  C  248  1  0.78743100  0.98246100  0.82977400  1
  C  249  1  0.81527400  0.99012300  0.85075300  1
  C  262  1  0.84945000  0.89927400  0.87355900  1
  C  263  1  0.94790900  0.93953800  0.94717600  1
  C  264  1  0.75183300  0.93916200  0.79916600  1
  C  265  1  0.74935100  0.85831900  0.94539600  1
  C  266  1  0.94970600  0.85996100  0.80114300  1
  C  271  1  0.32769800  0.37268200  0.89343000  1
  C  272  1  0.33603500  0.33664500  0.88577800  1
  C  273  1  0.36324600  0.33679000  0.86391600  1
  C  274  1  0.37132300  0.37291600  0.85637500  1
  C  275  1  0.39862400  0.38071700  0.83479500  1
  C  276  1  0.41865500  0.35186300  0.82148200  1
  C  277  1  0.40972300  0.31541800  0.82932700  1
  C  278  1  0.38199500  0.30767200  0.85038300  1
  C  279  1  0.31739600  0.30733700  0.89912800  1
  C  280  1  0.28951700  0.31479200  0.92011800  1
  C  281  1  0.28033500  0.35113600  0.92807900  1
  C  282  1  0.30028200  0.38019100  0.91498100  1
  C  283  1  0.37220800  0.42416500  0.89259700  1
  C  284  1  0.36343700  0.46021500  0.88536000  1
  C  285  1  0.33502500  0.46014400  0.86457000  1
  C  286  1  0.32645000  0.42405100  0.85732400  1
  C  287  1  0.31564200  0.48930900  0.85175800  1
  C  288  1  0.28669500  0.48165500  0.83184600  1
  C  289  1  0.27701500  0.44524500  0.82448000  1
  C  290  1  0.29776800  0.41635000  0.83698800  1
  C  291  1  0.40082500  0.41661700  0.91303800  1
  C  292  1  0.42134900  0.44562400  0.92562700  1
  C  293  1  0.41149400  0.48198100  0.91824100  1
  C  294  1  0.38259400  0.48948300  0.89824500  1
  C  307  1  0.34941700  0.39845800  0.87493900  1
  C  308  1  0.24829800  0.43829100  0.80360800  1
  C  309  1  0.44992700  0.43886000  0.94667400  1
  C  310  1  0.44590700  0.35885300  0.79937500  1
  C  311  1  0.25287600  0.35782100  0.95006500  1
  C  316  1  0.37220000  0.92385400  0.39264800  1
  C  317  1  0.36360600  0.95999400  0.38555900  1
  C  318  1  0.33553700  0.96020100  0.36445600  1
  C  319  1  0.32701700  0.92420000  0.35687200  1
  C  320  1  0.29856600  0.91674200  0.33625400  1
  C  321  1  0.27798200  0.94577900  0.32379200  1
  C  322  1  0.28761300  0.98210400  0.33148900  1
  C  323  1  0.31633100  0.98952100  0.35169200  1
  C  324  1  0.38270800  0.98910700  0.39873900  1
  C  325  1  0.41140400  0.98135700  0.41886800  1
  C  326  1  0.42109500  0.94491000  0.42608700  1
  C  327  1  0.40057900  0.91605600  0.41325000  1
  C  328  1  0.32727800  0.87261900  0.39264400  1
  C  329  1  0.33504900  0.83660400  0.38453300  1
  C  330  1  0.36266100  0.83670000  0.36301600  1
  C  331  1  0.37157900  0.87281500  0.35613400  1
  C  332  1  0.38120200  0.80752200  0.34938100  1
  C  333  1  0.40972900  0.81517600  0.32905600  1
  C  334  1  0.41977200  0.85159400  0.32208000  1
  C  335  1  0.39972700  0.88052900  0.33529400  1
  C  336  1  0.29966400  0.88018000  0.41401100  1
  C  337  1  0.27914500  0.85122900  0.42665700  1
  C  338  1  0.28784000  0.81489000  0.41828500  1
  C  339  1  0.31578300  0.80736900  0.39737000  1
  C  352  1  0.34957500  0.89837300  0.37461400  1
  C  353  1  0.44836100  0.85853100  0.30110800  1
  C  354  1  0.25176200  0.85797500  0.44872100  1
  C  355  1  0.24942600  0.93903400  0.30272700  1
  C  356  1  0.44966300  0.93791500  0.44707900  1
  C  361  1  0.99951600  0.96726700  0.97323700  1
  C  363  1  0.99981000  0.97260600  0.02756600  1
  C  364  1  0.03031000  0.99596800  0.02658300  1
  C  366  1  0.03211500  0.98818100  0.97214000  1
  C  375  1  0.69935200  0.32967000  0.47285900  1
  C  377  1  0.70014000  0.32312400  0.52709700  1
  C  378  1  0.66986400  0.29947300  0.52612800  1
  C  380  1  0.66695500  0.30843700  0.47186000  1
  C  389  1  0.19735600  0.46671200  0.77720000  1
  C  391  1  0.19868300  0.47336600  0.72295300  1
  C  392  1  0.16833400  0.49693500  0.72372200  1
  C  394  1  0.16491100  0.48789000  0.77796500  1
  C  403  1  0.49960200  0.83053800  0.27477700  1
  C  405  1  0.49899700  0.82484800  0.22045800  1
  C  406  1  0.52922700  0.80111500  0.22125200  1
  C  408  1  0.53204800  0.80938200  0.27561900  1
  C  417  1  0.17205200  0.79925200  0.52901100  1
  C  419  1  0.17284800  0.80340600  0.47452500  1
  C  420  1  0.20122000  0.82928000  0.47543300  1
  C  422  1  0.19849200  0.82762400  0.53025500  1
  C  431  1  0.67125600  0.49787500  0.21971500  1
  C  433  1  0.67094500  0.49179600  0.27411000  1
  C  434  1  0.70057300  0.46740100  0.27306100  1
  C  436  1  0.69919700  0.47096400  0.21827300  1
  C  445  1  0.52635600  0.30150200  0.71882100  1
  C  447  1  0.52525800  0.30509200  0.77335000  1
  C  448  1  0.49664900  0.33070200  0.77250300  1
  C  450  1  0.49965900  0.32963400  0.71770000  1
  C  459  1  0.99964700  0.46850100  0.47313200  1
  C  461  1  0.99939500  0.47359500  0.52749200  1
  C  462  1  0.02969400  0.49723800  0.52675400  1
  C  464  1  0.03211900  0.48961100  0.47230500  1
  C  473  1  0.69847500  0.82977600  0.97182900  1
  C  475  1  0.69954600  0.82340400  0.02608200  1
  C  476  1  0.66923200  0.79979700  0.02529000  1
  C  478  1  0.66602300  0.80860900  0.97100800  1
  C  487  1  0.19823300  0.96714400  0.27640400  1
  C  489  1  0.19897300  0.97332200  0.22213100  1
  C  490  1  0.16847400  0.99668700  0.22297700  1
  C  492  1  0.16562200  0.98806100  0.27729000  1
  C  501  1  0.17178600  0.29959600  0.02978400  1
  C  503  1  0.17309500  0.30408200  0.97529600  1
  C  504  1  0.20200100  0.32932900  0.97649600  1
  C  506  1  0.19885600  0.32736000  0.03128000  1
  C  515  1  0.67062100  0.99688100  0.71926900  1
  C  517  1  0.67057500  0.99065900  0.77366300  1
  C  518  1  0.70081000  0.96702500  0.77252100  1
  C  520  1  0.69917000  0.97062800  0.71772700  1
  C  529  1  0.50063700  0.96643400  0.47345800  1
  C  531  1  0.49942800  0.97346100  0.52765100  1
  C  532  1  0.52980100  0.99699200  0.52673600  1
  C  534  1  0.53311600  0.98755100  0.47252300  1
  C  543  1  0.00021700  0.83099900  0.77453900  1
  C  545  1  0.99801900  0.82304500  0.72044900  1
  C  546  1  0.02828600  0.79937500  0.72128700  1
  C  548  1  0.03262700  0.80976100  0.77532000  1
  C  557  1  0.02569200  0.29992000  0.21902700  1
  C  559  1  0.02604300  0.30542500  0.27345600  1
  C  560  1  0.99750200  0.33110800  0.27251800  1
  C  562  1  0.99901600  0.32806800  0.21771500  1
  C  571  1  0.50039500  0.46775800  0.97334100  1
  C  573  1  0.49843600  0.47476100  0.02753500  1
  C  574  1  0.52858100  0.49859400  0.02685500  1
  C  576  1  0.53274300  0.48906900  0.97269400  1
  C  585  1  0.45110100  0.12453900  0.14297700  1
  C  586  1  0.48728700  0.13277400  0.13577900  1
  C  587  1  0.48766600  0.16054100  0.11446000  1
  C  588  1  0.45174100  0.16933200  0.10680400  1
  C  589  1  0.44465000  0.19798300  0.08626300  1
  C  590  1  0.47398300  0.21843100  0.07410200  1
  C  591  1  0.51018800  0.20821600  0.08165800  1
  C  592  1  0.51724900  0.17934400  0.10174600  1
  C  593  1  0.51635400  0.11373000  0.14908000  1
  C  594  1  0.50850400  0.08526600  0.16937900  1
  C  595  1  0.47201300  0.07582900  0.17664300  1
  C  596  1  0.44320600  0.09637300  0.16378000  1
  C  597  1  0.39953600  0.16914100  0.14224300  1
  C  598  1  0.36369800  0.15993000  0.13465600  1
  C  599  1  0.36435100  0.13204300  0.11344200  1
  C  600  1  0.40061400  0.12421700  0.10618700  1
  C  601  1  0.33548200  0.11256300  0.10027700  1
  C  602  1  0.34361800  0.08408500  0.08006700  1
  C  603  1  0.38020100  0.07504300  0.07277600  1
  C  604  1  0.40879300  0.09597400  0.08553300  1
  C  605  1  0.40635100  0.19801800  0.16262900  1
  C  606  1  0.37683600  0.21826200  0.17474000  1
  C  607  1  0.34073300  0.20755900  0.16730800  1
  C  608  1  0.33394500  0.17847900  0.14735700  1
  C  621  1  0.42574600  0.14690400  0.12454800  1
  C  622  1  0.38753900  0.04659200  0.05180800  1
  C  623  1  0.38278200  0.24796400  0.19488000  1
  C  624  1  0.46780500  0.24792200  0.05382400  1
  C  625  1  0.46498100  0.04735500  0.19765600  1
  C  630  1  0.89978900  0.17129800  0.64147500  1
  C  631  1  0.86385600  0.16224400  0.63407500  1
  C  632  1  0.86424000  0.13420900  0.61299200  1
  C  633  1  0.90041800  0.12608200  0.60566900  1
  C  634  1  0.90830900  0.09770300  0.58506900  1
  C  635  1  0.87951800  0.07686700  0.57249800  1
  C  636  1  0.84303200  0.08620400  0.57987300  1
  C  637  1  0.83518200  0.11484700  0.60000100  1
  C  638  1  0.83428600  0.18101900  0.64684600  1
  C  639  1  0.84136000  0.21011500  0.66666667  1
  C  640  1  0.87757100  0.22061700  0.67398300  1
  C  641  1  0.90689500  0.20023500  0.66173000  1
  C  642  1  0.95141100  0.12685400  0.64211100  1
  C  643  1  0.98748600  0.13553600  0.63487000  1
  C  644  1  0.98751900  0.16317200  0.61343500  1
  C  645  1  0.95148200  0.17130900  0.60564200  1
  C  646  1  0.01685450  0.18220200  0.60054600  1
  C  647  1  0.00942148  0.21062800  0.58010500  1
  C  648  1  0.97308500  0.22005000  0.57230100  1
  C  649  1  0.94402100  0.19946700  0.58472400  1
  C  650  1  0.94388500  0.09846100  0.66279900  1
  C  651  1  0.97297900  0.07813800  0.67545400  1
  C  652  1  0.00933948  0.08814800  0.66827000  1
  C  653  1  0.01681150  0.11682100  0.64809000  1
  C  666  1  0.92577400  0.14890900  0.62369700  1
  C  667  1  0.96651800  0.24852500  0.55117500  1
  C  668  1  0.96642800  0.04883200  0.69578400  1
  C  669  1  0.88655900  0.04820200  0.55164700  1
  C  670  1  0.88379200  0.25019700  0.69417700  1
  C  675  1  0.40095600  0.62501100  0.60687000  1
  C  676  1  0.36479700  0.63347600  0.61398200  1
  C  677  1  0.36452100  0.66146400  0.63512600  1
  C  678  1  0.40048800  0.67005500  0.64280800  1
  C  679  1  0.40773600  0.69855700  0.66344800  1
  C  680  1  0.37853800  0.71917400  0.67562200  1
  C  681  1  0.34228200  0.70944200  0.66781800  1
  C  682  1  0.33506000  0.68062300  0.64769300  1
  C  683  1  0.33569300  0.61432200  0.60083900  1
  C  684  1  0.34347000  0.58567300  0.58068800  1
  C  685  1  0.37993400  0.57613400  0.57341300  1
  C  686  1  0.40878200  0.59668800  0.58620000  1
  C  687  1  0.45242300  0.66967100  0.60719000  1
  C  688  1  0.48833500  0.66066800  0.61470100  1
  C  689  1  0.48789900  0.63300500  0.63612000  1
  C  690  1  0.45170400  0.62500200  0.64348000  1
  C  691  1  0.51692800  0.61387300  0.64939100  1
  C  692  1  0.50902900  0.58558300  0.66984300  1
  C  693  1  0.47252700  0.57636800  0.67727000  1
  C  694  1  0.44376400  0.59698200  0.66440600  1
  C  695  1  0.44538200  0.69817600  0.58649500  1
  C  696  1  0.47475700  0.71832700  0.57405600  1
  C  697  1  0.51094100  0.70789400  0.58147600  1
  C  698  1  0.51794800  0.67915800  0.60171500  1
  C  711  1  0.42639300  0.64748800  0.62510900  1
  C  712  1  0.46546200  0.54801600  0.69839600  1
  C  713  1  0.46863800  0.74767600  0.55361200  1
  C  714  1  0.38495400  0.74795900  0.69651000  1
  C  715  1  0.38692300  0.54767500  0.55236200  1
  C  720  1  0.95162900  0.67221200  0.10563600  1
  C  721  1  0.98774700  0.66400000  0.11309000  1
  C  722  1  0.98793300  0.63640400  0.13456800  1
  C  723  1  0.95193400  0.62770200  0.14205600  1
  C  724  1  0.94463700  0.59936800  0.16285400  1
  C  725  1  0.97385800  0.57913000  0.17541400  1
  C  726  1  0.01013750  0.58916500  0.16795800  1
  C  727  1  0.01739450  0.61777100  0.14765400  1
  C  728  1  0.01693950  0.68291100  0.09985300  1
  C  729  1  0.00928248  0.71120900  0.07934200  1
  C  730  1  0.97286100  0.72062000  0.07181100  1
  C  731  1  0.94392900  0.70020000  0.08462000  1
  C  732  1  0.90033600  0.62733100  0.10610900  1
  C  733  1  0.86431400  0.63592800  0.11360400  1
  C  734  1  0.86444700  0.66400000  0.13467600  1
  C  735  1  0.90055700  0.67245200  0.14198100  1
  C  736  1  0.83525800  0.68328700  0.14754500  1
  C  737  1  0.84290400  0.71207300  0.16759800  1
  C  738  1  0.87931700  0.72163900  0.17502900  1
  C  739  1  0.90824400  0.70095400  0.16251300  1
  C  740  1  0.90773700  0.59885100  0.08548500  1
  C  741  1  0.87862200  0.57834800  0.07304500  1
  C  742  1  0.84231000  0.58809400  0.08065500  1
  C  743  1  0.83494200  0.61686900  0.10078900  1
  C  756  1  0.92611200  0.64989000  0.12393900  1
  C  757  1  0.88615600  0.75024700  0.19597900  1
  C  758  1  0.88518100  0.54973700  0.05202100  1
  C  759  1  0.96749800  0.54991700  0.19590700  1
  C  760  1  0.96606300  0.74895600  0.05061500  1
  C  765  1  0.15357800  0.42495200  0.35596600  1
  C  766  1  0.16126400  0.46108700  0.36377000  1
  C  767  1  0.18912700  0.46135100  0.38506700  1
  C  768  1  0.19830300  0.42535000  0.39210800  1
  C  769  1  0.22673500  0.41797100  0.41276200  1
  C  770  1  0.24667000  0.44711400  0.42577100  1
  C  771  1  0.23639100  0.48341400  0.41861000  1
  C  772  1  0.20765100  0.49073900  0.39840300  1
  C  773  1  0.14174500  0.49010700  0.35086500  1
  C  774  1  0.11369000  0.48225400  0.33014100  1
  C  775  1  0.10516100  0.44579800  0.32201400  1
  C  776  1  0.12587900  0.41705600  0.33476700  1
  C  777  1  0.19888900  0.37406600  0.35588700  1
  C  778  1  0.19115900  0.33792300  0.36363800  1
  C  779  1  0.16335600  0.33763400  0.38498000  1
  C  780  1  0.15424000  0.37362400  0.39211700  1
  C  781  1  0.14478500  0.30822200  0.39823200  1
  C  782  1  0.11605100  0.31551400  0.41844900  1
  C  783  1  0.10581500  0.35180400  0.42568500  1
  C  784  1  0.12583500  0.38097000  0.41280800  1
  C  785  1  0.22649200  0.38195400  0.33459400  1
  C  786  1  0.24706000  0.35319300  0.32169400  1
  C  787  1  0.23845800  0.31673400  0.32976400  1
  C  788  1  0.21051400  0.30889200  0.35058900  1
  C  801  1  0.17625900  0.39949800  0.37395800  1
  C  802  1  0.07713350  0.35839500  0.44664800  1
  C  803  1  0.27429300  0.36018500  0.29955800  1
  C  804  1  0.27531200  0.44045900  0.44677100  1
  C  805  1  0.07786850  0.43874000  0.29994600  1
  C  810  1  0.19907900  0.87385300  0.85558800  1
  C  811  1  0.19060600  0.83769100  0.86270400  1
  C  812  1  0.16247100  0.83740500  0.88374600  1
  C  813  1  0.15375500  0.87338400  0.89124000  1
  C  814  1  0.12529600  0.88075800  0.91187600  1
  C  815  1  0.10479400  0.85165600  0.92433300  1
  C  816  1  0.11458000  0.81536100  0.91667900  1
  C  817  1  0.14336300  0.80802800  0.89651900  1
  C  818  1  0.20980300  0.80862500  0.84955000  1
  C  819  1  0.23848300  0.81644500  0.82942400  1
  C  820  1  0.24805700  0.85291500  0.82217600  1
  C  821  1  0.22745100  0.88171900  0.83499000  1
  C  822  1  0.15398600  0.92493300  0.85546500  1
  C  823  1  0.16153900  0.96098600  0.86360100  1
  C  824  1  0.18907500  0.96101000  0.88518800  1
  C  825  1  0.19814000  0.92493600  0.89207900  1
  C  826  1  0.20745500  0.99026700  0.89885800  1
  C  827  1  0.23596800  0.98273600  0.91922800  1
  C  828  1  0.24614800  0.94636200  0.92621500  1
  C  829  1  0.22629300  0.91733900  0.91294300  1
  C  830  1  0.12654400  0.91723500  0.83398900  1
  C  831  1  0.10589400  0.94608100  0.82133000  1
  C  832  1  0.11429200  0.98246100  0.82977400  1
  C  833  1  0.14213500  0.99012300  0.85075300  1
  C  846  1  0.17631100  0.89927400  0.87355900  1
  C  847  1  0.27477000  0.93953800  0.94717600  1
  C  848  1  0.07869450  0.93916200  0.79916600  1
  C  849  1  0.07621250  0.85831900  0.94539600  1
  C  850  1  0.27656700  0.85996100  0.80114300  1
  C  855  1  0.65455900  0.37268200  0.89343000  1
  C  856  1  0.66289600  0.33664500  0.88577800  1
  C  857  1  0.69010700  0.33679000  0.86391600  1
  C  858  1  0.69818400  0.37291600  0.85637500  1
  C  859  1  0.72548500  0.38071700  0.83479500  1
  C  860  1  0.74551600  0.35186300  0.82148200  1
  C  861  1  0.73658400  0.31541800  0.82932700  1
  C  862  1  0.70885600  0.30767200  0.85038300  1
  C  863  1  0.64425700  0.30733700  0.89912800  1
  C  864  1  0.61637800  0.31479200  0.92011800  1
  C  865  1  0.60719600  0.35113600  0.92807900  1
  C  866  1  0.62714300  0.38019100  0.91498100  1
  C  867  1  0.69906900  0.42416500  0.89259700  1
  C  868  1  0.69029800  0.46021500  0.88536000  1
  C  869  1  0.66188600  0.46014400  0.86457000  1
  C  870  1  0.65331100  0.42405100  0.85732400  1
  C  871  1  0.64250300  0.48930900  0.85175800  1
  C  872  1  0.61355600  0.48165500  0.83184600  1
  C  873  1  0.60387600  0.44524500  0.82448000  1
  C  874  1  0.62462900  0.41635000  0.83698800  1
  C  875  1  0.72768600  0.41661700  0.91303800  1
  C  876  1  0.74821000  0.44562400  0.92562700  1
  C  877  1  0.73835500  0.48198100  0.91824100  1
  C  878  1  0.70945500  0.48948300  0.89824500  1
  C  891  1  0.67627800  0.39845800  0.87493900  1
  C  892  1  0.57515900  0.43829100  0.80360800  1
  C  893  1  0.77678800  0.43886000  0.94667400  1
  C  894  1  0.77276800  0.35885300  0.79937500  1
  C  895  1  0.57973700  0.35782100  0.95006500  1
  C  900  1  0.69906100  0.92385400  0.39264800  1
  C  901  1  0.69046700  0.95999400  0.38555900  1
  C  902  1  0.66239800  0.96020100  0.36445600  1
  C  903  1  0.65387800  0.92420000  0.35687200  1
  C  904  1  0.62542700  0.91674200  0.33625400  1
  C  905  1  0.60484300  0.94577900  0.32379200  1
  C  906  1  0.61447400  0.98210400  0.33148900  1
  C  907  1  0.64319200  0.98952100  0.35169200  1
  C  908  1  0.70956900  0.98910700  0.39873900  1
  C  909  1  0.73826500  0.98135700  0.41886800  1
  C  910  1  0.74795600  0.94491000  0.42608700  1
  C  911  1  0.72744000  0.91605600  0.41325000  1
  C  912  1  0.65413900  0.87261900  0.39264400  1
  C  913  1  0.66191000  0.83660400  0.38453300  1
  C  914  1  0.68952200  0.83670000  0.36301600  1
  C  915  1  0.69844000  0.87281500  0.35613400  1
  C  916  1  0.70806300  0.80752200  0.34938100  1
  C  917  1  0.73659000  0.81517600  0.32905600  1
  C  918  1  0.74663300  0.85159400  0.32208000  1
  C  919  1  0.72658800  0.88052900  0.33529400  1
  C  920  1  0.62652500  0.88018000  0.41401100  1
  C  921  1  0.60600600  0.85122900  0.42665700  1
  C  922  1  0.61470100  0.81489000  0.41828500  1
  C  923  1  0.64264400  0.80736900  0.39737000  1
  C  936  1  0.67643600  0.89837300  0.37461400  1
  C  937  1  0.77522200  0.85853100  0.30110800  1
  C  938  1  0.57862300  0.85797500  0.44872100  1
  C  939  1  0.57628700  0.93903400  0.30272700  1
  C  940  1  0.77652400  0.93791500  0.44707900  1
  C  945  1  0.32637700  0.96726700  0.97323700  1
  C  947  1  0.32667100  0.97260600  0.02756600  1
  C  948  1  0.35717100  0.99596800  0.02658300  1
  C  950  1  0.35897600  0.98818100  0.97214000  1
  C  959  1  0.02621350  0.32967000  0.47285900  1
  C  961  1  0.02700150  0.32312400  0.52709700  1
  C  962  1  0.99672500  0.29947300  0.52612800  1
  C  964  1  0.99381600  0.30843700  0.47186000  1
  C  973  1  0.52421700  0.46671200  0.77720000  1
  C  975  1  0.52554400  0.47336600  0.72295300  1
  C  976  1  0.49519500  0.49693500  0.72372200  1
  C  978  1  0.49177200  0.48789000  0.77796500  1
  C  987  1  0.82646300  0.83053800  0.27477700  1
  C  989  1  0.82585800  0.82484800  0.22045800  1
  C  990  1  0.85608800  0.80111500  0.22125200  1
  C  992  1  0.85890900  0.80938200  0.27561900  1
  C  1001  1  0.49891300  0.79925200  0.52901100  1
  C  1003  1  0.49970900  0.80340600  0.47452500  1
  C  1004  1  0.52808100  0.82928000  0.47543300  1
  C  1006  1  0.52535300  0.82762400  0.53025500  1
  C  1015  1  0.99811700  0.49787500  0.21971500  1
  C  1017  1  0.99780600  0.49179600  0.27411000  1
  C  1018  1  0.02743450  0.46740100  0.27306100  1
  C  1020  1  0.02605850  0.47096400  0.21827300  1
  C  1029  1  0.85321700  0.30150200  0.71882100  1
  C  1031  1  0.85211900  0.30509200  0.77335000  1
  C  1032  1  0.82351000  0.33070200  0.77250300  1
  C  1034  1  0.82652000  0.32963400  0.71770000  1
  C  1043  1  0.32650800  0.46850100  0.47313200  1
  C  1045  1  0.32625600  0.47359500  0.52749200  1
  C  1046  1  0.35655500  0.49723800  0.52675400  1
  C  1048  1  0.35898000  0.48961100  0.47230500  1
  C  1057  1  0.02533650  0.82977600  0.97182900  1
  C  1059  1  0.02640750  0.82340400  0.02608200  1
  C  1060  1  0.99609300  0.79979700  0.02529000  1
  C  1062  1  0.99288400  0.80860900  0.97100800  1
  C  1071  1  0.52509400  0.96714400  0.27640400  1
  C  1073  1  0.52583400  0.97332200  0.22213100  1
  C  1074  1  0.49533500  0.99668700  0.22297700  1
  C  1076  1  0.49248300  0.98806100  0.27729000  1
  C  1085  1  0.49864700  0.29959600  0.02978400  1
  C  1087  1  0.49995600  0.30408200  0.97529600  1
  C  1088  1  0.52886200  0.32932900  0.97649600  1
  C  1090  1  0.52571700  0.32736000  0.03128000  1
  C  1099  1  0.99748200  0.99688100  0.71926900  1
  C  1101  1  0.99743600  0.99065900  0.77366300  1
  C  1102  1  0.02767150  0.96702500  0.77252100  1
  C  1104  1  0.02603150  0.97062800  0.71772700  1
  C  1113  1  0.82749800  0.96643400  0.47345800  1
  C  1115  1  0.82628900  0.97346100  0.52765100  1
  C  1116  1  0.85666200  0.99699200  0.52673600  1
  C  1118  1  0.85997700  0.98755100  0.47252300  1
  C  1127  1  0.32707800  0.83099900  0.77453900  1
  C  1129  1  0.32488000  0.82304500  0.72044900  1
  C  1130  1  0.35514700  0.79937500  0.72128700  1
  C  1132  1  0.35948800  0.80976100  0.77532000  1
  C  1141  1  0.35255300  0.29992000  0.21902700  1
  C  1143  1  0.35290400  0.30542500  0.27345600  1
  C  1144  1  0.32436300  0.33110800  0.27251800  1
  C  1146  1  0.32587700  0.32806800  0.21771500  1
  C  1155  1  0.82725600  0.46775800  0.97334100  1
  C  1157  1  0.82529700  0.47476100  0.02753500  1
  C  1158  1  0.85544200  0.49859400  0.02685500  1
  C  1160  1  0.85960400  0.48906900  0.97269400  1
  C  1169  1  0.77796300  0.12453900  0.14297700  1
  C  1170  1  0.81414900  0.13277400  0.13577900  1
  C  1171  1  0.81452800  0.16054100  0.11446000  1
  C  1172  1  0.77860300  0.16933200  0.10680400  1
  C  1173  1  0.77151200  0.19798300  0.08626300  1
  C  1174  1  0.80084500  0.21843100  0.07410200  1
  C  1175  1  0.83705000  0.20821600  0.08165800  1
  C  1176  1  0.84411100  0.17934400  0.10174600  1
  C  1177  1  0.84321600  0.11373000  0.14908000  1
  C  1178  1  0.83536600  0.08526600  0.16937900  1
  C  1179  1  0.79887500  0.07582900  0.17664300  1
  C  1180  1  0.77006800  0.09637300  0.16378000  1
  C  1181  1  0.72639800  0.16914100  0.14224300  1
  C  1182  1  0.69056000  0.15993000  0.13465600  1
  C  1183  1  0.69121300  0.13204300  0.11344200  1
  C  1184  1  0.72747600  0.12421700  0.10618700  1
  C  1185  1  0.66234400  0.11256300  0.10027700  1
  C  1186  1  0.67048000  0.08408500  0.08006700  1
  C  1187  1  0.70706300  0.07504300  0.07277600  1
  C  1188  1  0.73565500  0.09597400  0.08553300  1
  C  1189  1  0.73321300  0.19801800  0.16262900  1
  C  1190  1  0.70369800  0.21826200  0.17474000  1
  C  1191  1  0.66759500  0.20755900  0.16730800  1
  C  1192  1  0.66080700  0.17847900  0.14735700  1
  C  1205  1  0.75260800  0.14690400  0.12454800  1
  C  1206  1  0.71440100  0.04659200  0.05180800  1
  C  1207  1  0.70964400  0.24796400  0.19488000  1
  C  1208  1  0.79466700  0.24792200  0.05382400  1
  C  1209  1  0.79184300  0.04735500  0.19765600  1
  C  1214  1  0.22665100  0.17129800  0.64147500  1
  C  1215  1  0.19071800  0.16224400  0.63407500  1
  C  1216  1  0.19110200  0.13420900  0.61299200  1
  C  1217  1  0.22728000  0.12608200  0.60566900  1
  C  1218  1  0.23517100  0.09770300  0.58506900  1
  C  1219  1  0.20638000  0.07686700  0.57249800  1
  C  1220  1  0.16989400  0.08620400  0.57987300  1
  C  1221  1  0.16204400  0.11484700  0.60000100  1
  C  1222  1  0.16114800  0.18101900  0.64684600  1
  C  1223  1  0.16822200  0.21011500  0.66666667  1
  C  1224  1  0.20443300  0.22061700  0.67398300  1
  C  1225  1  0.23375700  0.20023500  0.66173000  1
  C  1226  1  0.27827300  0.12685400  0.64211100  1
  C  1227  1  0.31434800  0.13553600  0.63487000  1
  C  1228  1  0.31438100  0.16317200  0.61343500  1
  C  1229  1  0.27834400  0.17130900  0.60564200  1
  C  1230  1  0.34371600  0.18220200  0.60054600  1
  C  1231  1  0.33628300  0.21062800  0.58010500  1
  C  1232  1  0.29994700  0.22005000  0.57230100  1
  C  1233  1  0.27088300  0.19946700  0.58472400  1
  C  1234  1  0.27074700  0.09846100  0.66279900  1
  C  1235  1  0.29984100  0.07813800  0.67545400  1
  C  1236  1  0.33620100  0.08814800  0.66827000  1
  C  1237  1  0.34367300  0.11682100  0.64809000  1
  C  1250  1  0.25263600  0.14890900  0.62369700  1
  C  1251  1  0.29338000  0.24852500  0.55117500  1
  C  1252  1  0.29329000  0.04883200  0.69578400  1
  C  1253  1  0.21342100  0.04820200  0.55164700  1
  C  1254  1  0.21065400  0.25019700  0.69417700  1
  C  1259  1  0.72781800  0.62501100  0.60687000  1
  C  1260  1  0.69165900  0.63347600  0.61398200  1
  C  1261  1  0.69138300  0.66146400  0.63512600  1
  C  1262  1  0.72735000  0.67005500  0.64280800  1
  C  1263  1  0.73459800  0.69855700  0.66344800  1
  C  1264  1  0.70540000  0.71917400  0.67562200  1
  C  1265  1  0.66914400  0.70944200  0.66781800  1
  C  1266  1  0.66192200  0.68062300  0.64769300  1
  C  1267  1  0.66255500  0.61432200  0.60083900  1
  C  1268  1  0.67033200  0.58567300  0.58068800  1
  C  1269  1  0.70679600  0.57613400  0.57341300  1
  C  1270  1  0.73564400  0.59668800  0.58620000  1
  C  1271  1  0.77928500  0.66967100  0.60719000  1
  C  1272  1  0.81519700  0.66066800  0.61470100  1
  C  1273  1  0.81476100  0.63300500  0.63612000  1
  C  1274  1  0.77856600  0.62500200  0.64348000  1
  C  1275  1  0.84379000  0.61387300  0.64939100  1
  C  1276  1  0.83589100  0.58558300  0.66984300  1
  C  1277  1  0.79938900  0.57636800  0.67727000  1
  C  1278  1  0.77062600  0.59698200  0.66440600  1
  C  1279  1  0.77224400  0.69817600  0.58649500  1
  C  1280  1  0.80161900  0.71832700  0.57405600  1
  C  1281  1  0.83780300  0.70789400  0.58147600  1
  C  1282  1  0.84481000  0.67915800  0.60171500  1
  C  1295  1  0.75325500  0.64748800  0.62510900  1
  C  1296  1  0.79232400  0.54801600  0.69839600  1
  C  1297  1  0.79550000  0.74767600  0.55361200  1
  C  1298  1  0.71181600  0.74795900  0.69651000  1
  C  1299  1  0.71378500  0.54767500  0.55236200  1
  C  1304  1  0.27849100  0.67221200  0.10563600  1
  C  1305  1  0.31460900  0.66400000  0.11309000  1
  C  1306  1  0.31479500  0.63640400  0.13456800  1
  C  1307  1  0.27879600  0.62770200  0.14205600  1
  C  1308  1  0.27149900  0.59936800  0.16285400  1
  C  1309  1  0.30072000  0.57913000  0.17541400  1
  C  1310  1  0.33699900  0.58916500  0.16795800  1
  C  1311  1  0.34425600  0.61777100  0.14765400  1
  C  1312  1  0.34380100  0.68291100  0.09985300  1
  C  1313  1  0.33614400  0.71120900  0.07934200  1
  C  1314  1  0.29972300  0.72062000  0.07181100  1
  C  1315  1  0.27079100  0.70020000  0.08462000  1
  C  1316  1  0.22719800  0.62733100  0.10610900  1
  C  1317  1  0.19117600  0.63592800  0.11360400  1
  C  1318  1  0.19130900  0.66400000  0.13467600  1
  C  1319  1  0.22741900  0.67245200  0.14198100  1
  C  1320  1  0.16212000  0.68328700  0.14754500  1
  C  1321  1  0.16976600  0.71207300  0.16759800  1
  C  1322  1  0.20617900  0.72163900  0.17502900  1
  C  1323  1  0.23510600  0.70095400  0.16251300  1
  C  1324  1  0.23459900  0.59885100  0.08548500  1
  C  1325  1  0.20548400  0.57834800  0.07304500  1
  C  1326  1  0.16917200  0.58809400  0.08065500  1
  C  1327  1  0.16180400  0.61686900  0.10078900  1
  C  1340  1  0.25297400  0.64989000  0.12393900  1
  C  1341  1  0.21301800  0.75024700  0.19597900  1
  C  1342  1  0.21204300  0.54973700  0.05202100  1
  C  1343  1  0.29436000  0.54991700  0.19590700  1
  C  1344  1  0.29292500  0.74895600  0.05061500  1
  C  1349  1  0.48044000  0.42495200  0.35596600  1
  C  1350  1  0.48812600  0.46108700  0.36377000  1
  C  1351  1  0.51598900  0.46135100  0.38506700  1
  C  1352  1  0.52516500  0.42535000  0.39210800  1
  C  1353  1  0.55359700  0.41797100  0.41276200  1
  C  1354  1  0.57353200  0.44711400  0.42577100  1
  C  1355  1  0.56325300  0.48341400  0.41861000  1
  C  1356  1  0.53451300  0.49073900  0.39840300  1
  C  1357  1  0.46860700  0.49010700  0.35086500  1
  C  1358  1  0.44055200  0.48225400  0.33014100  1
  C  1359  1  0.43202300  0.44579800  0.32201400  1
  C  1360  1  0.45274100  0.41705600  0.33476700  1
  C  1361  1  0.52575100  0.37406600  0.35588700  1
  C  1362  1  0.51802100  0.33792300  0.36363800  1
  C  1363  1  0.49021800  0.33763400  0.38498000  1
  C  1364  1  0.48110200  0.37362400  0.39211700  1
  C  1365  1  0.47164700  0.30822200  0.39823200  1
  C  1366  1  0.44291300  0.31551400  0.41844900  1
  C  1367  1  0.43267700  0.35180400  0.42568500  1
  C  1368  1  0.45269700  0.38097000  0.41280800  1
  C  1369  1  0.55335400  0.38195400  0.33459400  1
  C  1370  1  0.57392200  0.35319300  0.32169400  1
  C  1371  1  0.56532000  0.31673400  0.32976400  1
  C  1372  1  0.53737600  0.30889200  0.35058900  1
  C  1385  1  0.50312100  0.39949800  0.37395800  1
  C  1386  1  0.40399500  0.35839500  0.44664800  1
  C  1387  1  0.60115500  0.36018500  0.29955800  1
  C  1388  1  0.60217400  0.44045900  0.44677100  1
  C  1389  1  0.40473000  0.43874000  0.29994600  1
  C  1394  1  0.52594100  0.87385300  0.85558800  1
  C  1395  1  0.51746800  0.83769100  0.86270400  1
  C  1396  1  0.48933300  0.83740500  0.88374600  1
  C  1397  1  0.48061700  0.87338400  0.89124000  1
  C  1398  1  0.45215800  0.88075800  0.91187600  1
  C  1399  1  0.43165600  0.85165600  0.92433300  1
  C  1400  1  0.44144200  0.81536100  0.91667900  1
  C  1401  1  0.47022500  0.80802800  0.89651900  1
  C  1402  1  0.53666500  0.80862500  0.84955000  1
  C  1403  1  0.56534500  0.81644500  0.82942400  1
  C  1404  1  0.57491900  0.85291500  0.82217600  1
  C  1405  1  0.55431300  0.88171900  0.83499000  1
  C  1406  1  0.48084800  0.92493300  0.85546500  1
  C  1407  1  0.48840100  0.96098600  0.86360100  1
  C  1408  1  0.51593700  0.96101000  0.88518800  1
  C  1409  1  0.52500200  0.92493600  0.89207900  1
  C  1410  1  0.53431700  0.99026700  0.89885800  1
  C  1411  1  0.56283000  0.98273600  0.91922800  1
  C  1412  1  0.57301000  0.94636200  0.92621500  1
  C  1413  1  0.55315500  0.91733900  0.91294300  1
  C  1414  1  0.45340600  0.91723500  0.83398900  1
  C  1415  1  0.43275600  0.94608100  0.82133000  1
  C  1416  1  0.44115400  0.98246100  0.82977400  1
  C  1417  1  0.46899700  0.99012300  0.85075300  1
  C  1430  1  0.50317300  0.89927400  0.87355900  1
  C  1431  1  0.60163200  0.93953800  0.94717600  1
  C  1432  1  0.40555600  0.93916200  0.79916600  1
  C  1433  1  0.40307400  0.85831900  0.94539600  1
  C  1434  1  0.60342900  0.85996100  0.80114300  1
  C  1439  1  0.98142100  0.37268200  0.89343000  1
  C  1440  1  0.98975800  0.33664500  0.88577800  1
  C  1441  1  0.01696900  0.33679000  0.86391600  1
  C  1442  1  0.02504600  0.37291600  0.85637500  1
  C  1443  1  0.05234700  0.38071700  0.83479500  1
  C  1444  1  0.07237800  0.35186300  0.82148200  1
  C  1445  1  0.06344600  0.31541800  0.82932700  1
  C  1446  1  0.03571800  0.30767200  0.85038300  1
  C  1447  1  0.97111900  0.30733700  0.89912800  1
  C  1448  1  0.94324000  0.31479200  0.92011800  1
  C  1449  1  0.93405800  0.35113600  0.92807900  1
  C  1450  1  0.95400500  0.38019100  0.91498100  1
  C  1451  1  0.02593100  0.42416500  0.89259700  1
  C  1452  1  0.01716000  0.46021500  0.88536000  1
  C  1453  1  0.98874800  0.46014400  0.86457000  1
  C  1454  1  0.98017300  0.42405100  0.85732400  1
  C  1455  1  0.96936500  0.48930900  0.85175800  1
  C  1456  1  0.94041800  0.48165500  0.83184600  1
  C  1457  1  0.93073800  0.44524500  0.82448000  1
  C  1458  1  0.95149100  0.41635000  0.83698800  1
  C  1459  1  0.05454800  0.41661700  0.91303800  1
  C  1460  1  0.07507200  0.44562400  0.92562700  1
  C  1461  1  0.06521700  0.48198100  0.91824100  1
  C  1462  1  0.03631700  0.48948300  0.89824500  1
  C  1475  1  0.00313995  0.39845800  0.87493900  1
  C  1476  1  0.90202100  0.43829100  0.80360800  1
  C  1477  1  0.10365000  0.43886000  0.94667400  1
  C  1478  1  0.09963000  0.35885300  0.79937500  1
  C  1479  1  0.90659900  0.35782100  0.95006500  1
  C  1484  1  0.02592300  0.92385400  0.39264800  1
  C  1485  1  0.01732900  0.95999400  0.38555900  1
  C  1486  1  0.98926000  0.96020100  0.36445600  1
  C  1487  1  0.98074000  0.92420000  0.35687200  1
  C  1488  1  0.95228900  0.91674200  0.33625400  1
  C  1489  1  0.93170500  0.94577900  0.32379200  1
  C  1490  1  0.94133600  0.98210400  0.33148900  1
  C  1491  1  0.97005400  0.98952100  0.35169200  1
  C  1492  1  0.03643100  0.98910700  0.39873900  1
  C  1493  1  0.06512700  0.98135700  0.41886800  1
  C  1494  1  0.07481800  0.94491000  0.42608700  1
  C  1495  1  0.05430200  0.91605600  0.41325000  1
  C  1496  1  0.98100100  0.87261900  0.39264400  1
  C  1497  1  0.98877200  0.83660400  0.38453300  1
  C  1498  1  0.01638400  0.83670000  0.36301600  1
  C  1499  1  0.02530200  0.87281500  0.35613400  1
  C  1500  1  0.03492500  0.80752200  0.34938100  1
  C  1501  1  0.06345200  0.81517600  0.32905600  1
  C  1502  1  0.07349500  0.85159400  0.32208000  1
  C  1503  1  0.05345000  0.88052900  0.33529400  1
  C  1504  1  0.95338700  0.88018000  0.41401100  1
  C  1505  1  0.93286800  0.85122900  0.42665700  1
  C  1506  1  0.94156300  0.81489000  0.41828500  1
  C  1507  1  0.96950600  0.80736900  0.39737000  1
  C  1520  1  0.00329795  0.89837300  0.37461400  1
  C  1521  1  0.10208400  0.85853100  0.30110800  1
  C  1522  1  0.90548500  0.85797500  0.44872100  1
  C  1523  1  0.90314900  0.93903400  0.30272700  1
  C  1524  1  0.10338600  0.93791500  0.44707900  1
  C  1529  1  0.65323900  0.96726700  0.97323700  1
  C  1531  1  0.65353300  0.97260600  0.02756600  1
  C  1532  1  0.68403300  0.99596800  0.02658300  1
  C  1534  1  0.68583800  0.98818100  0.97214000  1
  C  1543  1  0.35307500  0.32967000  0.47285900  1
  C  1545  1  0.35386300  0.32312400  0.52709700  1
  C  1546  1  0.32358700  0.29947300  0.52612800  1
  C  1548  1  0.32067800  0.30843700  0.47186000  1
  C  1557  1  0.85107900  0.46671200  0.77720000  1
  C  1559  1  0.85240600  0.47336600  0.72295300  1
  C  1560  1  0.82205700  0.49693500  0.72372200  1
  C  1562  1  0.81863400  0.48789000  0.77796500  1
  C  1571  1  0.15332500  0.83053800  0.27477700  1
  C  1573  1  0.15272000  0.82484800  0.22045800  1
  C  1574  1  0.18295000  0.80111500  0.22125200  1
  C  1576  1  0.18577100  0.80938200  0.27561900  1
  C  1585  1  0.82577500  0.79925200  0.52901100  1
  C  1587  1  0.82657100  0.80340600  0.47452500  1
  C  1588  1  0.85494300  0.82928000  0.47543300  1
  C  1590  1  0.85221500  0.82762400  0.53025500  1
  C  1599  1  0.32497900  0.49787500  0.21971500  1
  C  1601  1  0.32466800  0.49179600  0.27411000  1
  C  1602  1  0.35429600  0.46740100  0.27306100  1
  C  1604  1  0.35292000  0.47096400  0.21827300  1
  C  1613  1  0.18007900  0.30150200  0.71882100  1
  C  1615  1  0.17898100  0.30509200  0.77335000  1
  C  1616  1  0.15037200  0.33070200  0.77250300  1
  C  1618  1  0.15338200  0.32963400  0.71770000  1
  C  1627  1  0.65337000  0.46850100  0.47313200  1
  C  1629  1  0.65311800  0.47359500  0.52749200  1
  C  1630  1  0.68341700  0.49723800  0.52675400  1
  C  1632  1  0.68584200  0.48961100  0.47230500  1
  C  1641  1  0.35219800  0.82977600  0.97182900  1
  C  1643  1  0.35326900  0.82340400  0.02608200  1
  C  1644  1  0.32295500  0.79979700  0.02529000  1
  C  1646  1  0.31974600  0.80860900  0.97100800  1
  C  1655  1  0.85195600  0.96714400  0.27640400  1
  C  1657  1  0.85269600  0.97332200  0.22213100  1
  C  1658  1  0.82219700  0.99668700  0.22297700  1
  C  1660  1  0.81934500  0.98806100  0.27729000  1
  C  1669  1  0.82550900  0.29959600  0.02978400  1
  C  1671  1  0.82681800  0.30408200  0.97529600  1
  C  1672  1  0.85572400  0.32932900  0.97649600  1
  C  1674  1  0.85257900  0.32736000  0.03128000  1
  C  1683  1  0.32434400  0.99688100  0.71926900  1
  C  1685  1  0.32429800  0.99065900  0.77366300  1
  C  1686  1  0.35453300  0.96702500  0.77252100  1
  C  1688  1  0.35289300  0.97062800  0.71772700  1
  C  1697  1  0.15436000  0.96643400  0.47345800  1
  C  1699  1  0.15315100  0.97346100  0.52765100  1
  C  1700  1  0.18352400  0.99699200  0.52673600  1
  C  1702  1  0.18683900  0.98755100  0.47252300  1
  C  1711  1  0.65394000  0.83099900  0.77453900  1
  C  1713  1  0.65174200  0.82304500  0.72044900  1
  C  1714  1  0.68200900  0.79937500  0.72128700  1
  C  1716  1  0.68635000  0.80976100  0.77532000  1
  C  1725  1  0.67941500  0.29992000  0.21902700  1
  C  1727  1  0.67976600  0.30542500  0.27345600  1
  C  1728  1  0.65122500  0.33110800  0.27251800  1
  C  1730  1  0.65273900  0.32806800  0.21771500  1
  C  1739  1  0.15411800  0.46775800  0.97334100  1
  C  1741  1  0.15215900  0.47476100  0.02753500  1
  C  1742  1  0.18230400  0.49859400  0.02685500  1
  C  1744  1  0.18646600  0.48906900  0.97269400  1
  N  362  1  0.98520600  0.96064500  0.00120500  1
  N  365  1  0.04503800  0.00200400  0.99870100  1
  N  368  1  0.05041700  0.99662500  0.94638800  1
  N  371  1  0.04030600  0.01548900  0.05184500  1
  N  373  1  0.97854400  0.96056400  0.94800400  1
  N  376  1  0.71411800  0.33581500  0.50074100  1
  N  379  1  0.65465100  0.29390800  0.49836400  1
  N  382  1  0.64821500  0.30042900  0.44623000  1
  N  385  1  0.66043400  0.27935500  0.55120600  1
  N  387  1  0.71980900  0.33713000  0.44746800  1
  N  390  1  0.21244100  0.46073000  0.74940900  1
  N  393  1  0.15284100  0.50243500  0.75138800  1
  N  396  1  0.14590500  0.49581600  0.80347400  1
  N  399  1  0.15917700  0.51705600  0.69856900  1
  N  401  1  0.21765700  0.45931400  0.80270300  1
  N  404  1  0.48488800  0.83704800  0.24693400  1
  N  407  1  0.54436800  0.79518500  0.24899700  1
  N  410  1  0.55072000  0.80100400  0.30119900  1
  N  413  1  0.53846900  0.78103800  0.19608900  1
  N  415  1  0.47900700  0.83752500  0.30019100  1
  N  418  1  0.16067600  0.78891500  0.50087500  1
  N  421  1  0.21211900  0.84013200  0.50350600  1
  N  424  1  0.21270600  0.84204900  0.55598200  1
  N  427  1  0.22059500  0.83777800  0.44972400  1
  N  429  1  0.16352100  0.77787000  0.55371000  1
  N  432  1  0.65865500  0.50653700  0.24788700  1
  N  435  1  0.71272400  0.45816700  0.24495900  1
  N  438  1  0.71500400  0.45813700  0.19259200  1
  N  441  1  0.71976800  0.45880400  0.29882000  1
  N  443  1  0.66182100  0.51932000  0.19527100  1
  N  446  1  0.53762700  0.29095000  0.74693700  1
  N  449  1  0.48579200  0.34177200  0.74448300  1
  N  452  1  0.48550600  0.34422900  0.69202000  1
  N  455  1  0.47708400  0.33869100  0.79821000  1
  N  457  1  0.53509600  0.28033300  0.69404900  1
  N  460  1  0.98509500  0.46171300  0.50098800  1
  N  463  1  0.04466500  0.50345400  0.49898600  1
  N  466  1  0.05063700  0.49823200  0.44670500  1
  N  469  1  0.03922900  0.51689300  0.55207800  1
  N  471  1  0.97892000  0.46172200  0.44776000  1
  N  474  1  0.71339400  0.83598300  0.99964200  1
  N  477  1  0.65385100  0.79417200  0.99759600  1
  N  480  1  0.64715500  0.80052400  0.94545900  1
  N  483  1  0.65987300  0.77985000  0.05049200  1
  N  485  1  0.71879300  0.83719000  0.94634000  1
  N  488  1  0.21305900  0.96095300  0.24855200  1
  N  491  1  0.15318700  0.00228500  0.25071100  1
  N  494  1  0.14678200  0.99604700  0.30287200  1
  N  497  1  0.15885000  0.01650400  0.19777800  1
  N  499  1  0.21873900  0.95997500  0.30183500  1
  N  502  1  0.16045500  0.28967800  0.00152600  1
  N  505  1  0.21293400  0.33976400  0.00465900  1
  N  508  1  0.21322900  0.34136000  0.05710800  1
  N  511  1  0.22176400  0.33753900  0.95094600  1
  N  513  1  0.16253100  0.27822700  0.05431500  1
  N  516  1  0.65790900  0.00518900  0.74748200  1
  N  519  1  0.71309400  0.95816900  0.74437600  1
  N  522  1  0.71531700  0.95828400  0.69202900  1
  N  525  1  0.72042100  0.95896200  0.79818100  1
  N  527  1  0.66053800  0.01809700  0.69485800  1
  N  530  1  0.48562300  0.96058500  0.50129000  1
  N  533  1  0.54523500  0.00227700  0.49901600  1
  N  536  1  0.55204700  0.99534700  0.44694500  1
  N  539  1  0.53908100  0.01725900  0.55178100  1
  N  541  1  0.48035000  0.95886400  0.44799600  1
  N  544  1  0.98474000  0.83643300  0.74682300  1
  N  547  1  0.04422000  0.79453200  0.74886600  1
  N  550  1  0.05202800  0.80238200  0.80073900  1
  N  553  1  0.03711600  0.77865400  0.69637600  1
  N  555  1  0.98040400  0.83903700  0.80017600  1
  N  558  1  0.03768500  0.29033200  0.24717200  1
  N  561  1  0.98591200  0.34119100  0.24444600  1
  N  564  1  0.98417700  0.34181200  0.19197700  1
  N  567  1  0.97862000  0.34003400  0.29837500  1
  N  569  1  0.03394200  0.27800100  0.19458900  1
  N  572  1  0.48503500  0.46185000  0.00103700  1
  N  575  1  0.54438500  0.50392800  0.99928000  1
  N  578  1  0.55198200  0.49692500  0.94729100  1
  N  581  1  0.53735500  0.51902900  0.05193900  1
  N  583  1  0.48046700  0.46002700  0.94770200  1
  N  946  1  0.31206700  0.96064500  0.00120500  1
  N  949  1  0.37189900  0.00200400  0.99870100  1
  N  952  1  0.37727800  0.99662500  0.94638800  1
  N  955  1  0.36716700  0.01548900  0.05184500  1
  N  957  1  0.30540500  0.96056400  0.94800400  1
  N  960  1  0.04097950  0.33581500  0.50074100  1
  N  963  1  0.98151200  0.29390800  0.49836400  1
  N  966  1  0.97507600  0.30042900  0.44623000  1
  N  969  1  0.98729500  0.27935500  0.55120600  1
  N  971  1  0.04667050  0.33713000  0.44746800  1
  N  974  1  0.53930200  0.46073000  0.74940900  1
  N  977  1  0.47970200  0.50243500  0.75138800  1
  N  980  1  0.47276600  0.49581600  0.80347400  1
  N  983  1  0.48603800  0.51705600  0.69856900  1
  N  985  1  0.54451800  0.45931400  0.80270300  1
  N  988  1  0.81174900  0.83704800  0.24693400  1
  N  991  1  0.87122900  0.79518500  0.24899700  1
  N  994  1  0.87758100  0.80100400  0.30119900  1
  N  997  1  0.86533000  0.78103800  0.19608900  1
  N  999  1  0.80586800  0.83752500  0.30019100  1
  N  1002  1  0.48753700  0.78891500  0.50087500  1
  N  1005  1  0.53898000  0.84013200  0.50350600  1
  N  1008  1  0.53956700  0.84204900  0.55598200  1
  N  1011  1  0.54745600  0.83777800  0.44972400  1
  N  1013  1  0.49038200  0.77787000  0.55371000  1
  N  1016  1  0.98551600  0.50653700  0.24788700  1
  N  1019  1  0.03958550  0.45816700  0.24495900  1
  N  1022  1  0.04186550  0.45813700  0.19259200  1
  N  1025  1  0.04662950  0.45880400  0.29882000  1
  N  1027  1  0.98868200  0.51932000  0.19527100  1
  N  1030  1  0.86448800  0.29095000  0.74693700  1
  N  1033  1  0.81265300  0.34177200  0.74448300  1
  N  1036  1  0.81236700  0.34422900  0.69202000  1
  N  1039  1  0.80394500  0.33869100  0.79821000  1
  N  1041  1  0.86195700  0.28033300  0.69404900  1
  N  1044  1  0.31195600  0.46171300  0.50098800  1
  N  1047  1  0.37152600  0.50345400  0.49898600  1
  N  1050  1  0.37749800  0.49823200  0.44670500  1
  N  1053  1  0.36609000  0.51689300  0.55207800  1
  N  1055  1  0.30578100  0.46172200  0.44776000  1
  N  1058  1  0.04025550  0.83598300  0.99964200  1
  N  1061  1  0.98071200  0.79417200  0.99759600  1
  N  1064  1  0.97401600  0.80052400  0.94545900  1
  N  1067  1  0.98673400  0.77985000  0.05049200  1
  N  1069  1  0.04565450  0.83719000  0.94634000  1
  N  1072  1  0.53992000  0.96095300  0.24855200  1
  N  1075  1  0.48004800  0.00228500  0.25071100  1
  N  1078  1  0.47364300  0.99604700  0.30287200  1
  N  1081  1  0.48571100  0.01650400  0.19777800  1
  N  1083  1  0.54560000  0.95997500  0.30183500  1
  N  1086  1  0.48731600  0.28967800  0.00152600  1
  N  1089  1  0.53979500  0.33976400  0.00465900  1
  N  1092  1  0.54009000  0.34136000  0.05710800  1
  N  1095  1  0.54862500  0.33753900  0.95094600  1
  N  1097  1  0.48939200  0.27822700  0.05431500  1
  N  1100  1  0.98477000  0.00518900  0.74748200  1
  N  1103  1  0.03995550  0.95816900  0.74437600  1
  N  1106  1  0.04217850  0.95828400  0.69202900  1
  N  1109  1  0.04728250  0.95896200  0.79818100  1
  N  1111  1  0.98739900  0.01809700  0.69485800  1
  N  1114  1  0.81248400  0.96058500  0.50129000  1
  N  1117  1  0.87209600  0.00227700  0.49901600  1
  N  1120  1  0.87890800  0.99534700  0.44694500  1
  N  1123  1  0.86594200  0.01725900  0.55178100  1
  N  1125  1  0.80721100  0.95886400  0.44799600  1
  N  1128  1  0.31160100  0.83643300  0.74682300  1
  N  1131  1  0.37108100  0.79453200  0.74886600  1
  N  1134  1  0.37888900  0.80238200  0.80073900  1
  N  1137  1  0.36397700  0.77865400  0.69637600  1
  N  1139  1  0.30726500  0.83903700  0.80017600  1
  N  1142  1  0.36454600  0.29033200  0.24717200  1
  N  1145  1  0.31277300  0.34119100  0.24444600  1
  N  1148  1  0.31103800  0.34181200  0.19197700  1
  N  1151  1  0.30548100  0.34003400  0.29837500  1
  N  1153  1  0.36080300  0.27800100  0.19458900  1
  N  1156  1  0.81189600  0.46185000  0.00103700  1
  N  1159  1  0.87124600  0.50392800  0.99928000  1
  N  1162  1  0.87884300  0.49692500  0.94729100  1
  N  1165  1  0.86421600  0.51902900  0.05193900  1
  N  1167  1  0.80732800  0.46002700  0.94770200  1
  N  1530  1  0.63892900  0.96064500  0.00120500  1
  N  1533  1  0.69876100  0.00200400  0.99870100  1
  N  1536  1  0.70414000  0.99662500  0.94638800  1
  N  1539  1  0.69402900  0.01548900  0.05184500  1
  N  1541  1  0.63226700  0.96056400  0.94800400  1
  N  1544  1  0.36784100  0.33581500  0.50074100  1
  N  1547  1  0.30837400  0.29390800  0.49836400  1
  N  1550  1  0.30193800  0.30042900  0.44623000  1
  N  1553  1  0.31415700  0.27935500  0.55120600  1
  N  1555  1  0.37353200  0.33713000  0.44746800  1
  N  1558  1  0.86616400  0.46073000  0.74940900  1
  N  1561  1  0.80656400  0.50243500  0.75138800  1
  N  1564  1  0.79962800  0.49581600  0.80347400  1
  N  1567  1  0.81290000  0.51705600  0.69856900  1
  N  1569  1  0.87138000  0.45931400  0.80270300  1
  N  1572  1  0.13861100  0.83704800  0.24693400  1
  N  1575  1  0.19809100  0.79518500  0.24899700  1
  N  1578  1  0.20444300  0.80100400  0.30119900  1
  N  1581  1  0.19219200  0.78103800  0.19608900  1
  N  1583  1  0.13273000  0.83752500  0.30019100  1
  N  1586  1  0.81439900  0.78891500  0.50087500  1
  N  1589  1  0.86584200  0.84013200  0.50350600  1
  N  1592  1  0.86642900  0.84204900  0.55598200  1
  N  1595  1  0.87431800  0.83777800  0.44972400  1
  N  1597  1  0.81724400  0.77787000  0.55371000  1
  N  1600  1  0.31237800  0.50653700  0.24788700  1
  N  1603  1  0.36644700  0.45816700  0.24495900  1
  N  1606  1  0.36872700  0.45813700  0.19259200  1
  N  1609  1  0.37349100  0.45880400  0.29882000  1
  N  1611  1  0.31554400  0.51932000  0.19527100  1
  N  1614  1  0.19135000  0.29095000  0.74693700  1
  N  1617  1  0.13951500  0.34177200  0.74448300  1
  N  1620  1  0.13922900  0.34422900  0.69202000  1
  N  1623  1  0.13080700  0.33869100  0.79821000  1
  N  1625  1  0.18881900  0.28033300  0.69404900  1
  N  1628  1  0.63881800  0.46171300  0.50098800  1
  N  1631  1  0.69838800  0.50345400  0.49898600  1
  N  1634  1  0.70436000  0.49823200  0.44670500  1
  N  1637  1  0.69295200  0.51689300  0.55207800  1
  N  1639  1  0.63264300  0.46172200  0.44776000  1
  N  1642  1  0.36711700  0.83598300  0.99964200  1
  N  1645  1  0.30757400  0.79417200  0.99759600  1
  N  1648  1  0.30087800  0.80052400  0.94545900  1
  N  1651  1  0.31359600  0.77985000  0.05049200  1
  N  1653  1  0.37251600  0.83719000  0.94634000  1
  N  1656  1  0.86678200  0.96095300  0.24855200  1
  N  1659  1  0.80691000  0.00228500  0.25071100  1
  N  1662  1  0.80050500  0.99604700  0.30287200  1
  N  1665  1  0.81257300  0.01650400  0.19777800  1
  N  1667  1  0.87246200  0.95997500  0.30183500  1
  N  1670  1  0.81417800  0.28967800  0.00152600  1
  N  1673  1  0.86665700  0.33976400  0.00465900  1
  N  1676  1  0.86695200  0.34136000  0.05710800  1
  N  1679  1  0.87548700  0.33753900  0.95094600  1
  N  1681  1  0.81625400  0.27822700  0.05431500  1
  N  1684  1  0.31163200  0.00518900  0.74748200  1
  N  1687  1  0.36681700  0.95816900  0.74437600  1
  N  1690  1  0.36904000  0.95828400  0.69202900  1
  N  1693  1  0.37414400  0.95896200  0.79818100  1
  N  1695  1  0.31426100  0.01809700  0.69485800  1
  N  1698  1  0.13934600  0.96058500  0.50129000  1
  N  1701  1  0.19895800  0.00227700  0.49901600  1
  N  1704  1  0.20577000  0.99534700  0.44694500  1
  N  1707  1  0.19280400  0.01725900  0.55178100  1
  N  1709  1  0.13407300  0.95886400  0.44799600  1
  N  1712  1  0.63846300  0.83643300  0.74682300  1
  N  1715  1  0.69794300  0.79453200  0.74886600  1
  N  1718  1  0.70575100  0.80238200  0.80073900  1
  N  1721  1  0.69083900  0.77865400  0.69637600  1
  N  1723  1  0.63412700  0.83903700  0.80017600  1
  N  1726  1  0.69140800  0.29033200  0.24717200  1
  N  1729  1  0.63963500  0.34119100  0.24444600  1
  N  1732  1  0.63790000  0.34181200  0.19197700  1
  N  1735  1  0.63234300  0.34003400  0.29837500  1
  N  1737  1  0.68766500  0.27800100  0.19458900  1
  N  1740  1  0.13875800  0.46185000  0.00103700  1
  N  1743  1  0.19810800  0.50392800  0.99928000  1
  N  1746  1  0.20570500  0.49692500  0.94729100  1
  N  1749  1  0.19107800  0.51902900  0.05193900  1
  N  1751  1  0.13419000  0.46002700  0.94770200  1
  O  42  1  0.08175000  0.24350700  0.21651100  1
  O  43  1  0.08255300  0.05536600  0.02816800  1
  O  44  1  0.11622300  0.24245500  0.03147000  1
  O  45  1  0.11577900  0.05572800  0.22109400  1
  O  87  1  0.61649300  0.05566500  0.71907600  1
  O  88  1  0.61672700  0.24081000  0.52797600  1
  O  89  1  0.58215100  0.05632700  0.52822300  1
  O  90  1  0.58271500  0.24547000  0.71580700  1
  O  132  1  0.11602700  0.74280900  0.53197800  1
  O  133  1  0.11618100  0.55646500  0.72176300  1
  O  134  1  0.08144800  0.74079600  0.71953900  1
  O  135  1  0.08277100  0.55588800  0.52912900  1
  O  177  1  0.58187800  0.55703700  0.02916800  1
  O  178  1  0.58258900  0.74269400  0.21896200  1
  O  179  1  0.61695900  0.55644100  0.21883600  1
  O  180  1  0.61641400  0.74087200  0.02740500  1
  O  222  1  0.93856600  0.38355300  0.27695100  1
  O  223  1  0.75566800  0.38461800  0.46780400  1
  O  224  1  0.94328900  0.41374100  0.46753400  1
  O  225  1  0.75995500  0.41549000  0.27727600  1
  O  267  1  0.76064700  0.91572900  0.77658900  1
  O  268  1  0.94252900  0.91300800  0.96806400  1
  O  269  1  0.75502200  0.88440200  0.96662200  1
  O  270  1  0.94346900  0.88558200  0.77964000  1
  O  312  1  0.44425400  0.41272800  0.96785500  1
  O  313  1  0.25398300  0.41217200  0.78241600  1
  O  314  1  0.43732400  0.38272200  0.77705700  1
  O  315  1  0.26109100  0.38164900  0.97251000  1
  O  357  1  0.26026500  0.88158900  0.47125200  1
  O  358  1  0.44288900  0.88506400  0.28023800  1
  O  359  1  0.25507200  0.91284500  0.28158400  1
  O  360  1  0.44365700  0.91206800  0.46844000  1
  O  626  1  0.40861100  0.24350700  0.21651100  1
  O  627  1  0.40941400  0.05536600  0.02816800  1
  O  628  1  0.44308400  0.24245500  0.03147000  1
  O  629  1  0.44264000  0.05572800  0.22109400  1
  O  671  1  0.94335400  0.05566500  0.71907600  1
  O  672  1  0.94358800  0.24081000  0.52797600  1
  O  673  1  0.90901200  0.05632700  0.52822300  1
  O  674  1  0.90957600  0.24547000  0.71580700  1
  O  716  1  0.44288800  0.74280900  0.53197800  1
  O  717  1  0.44304200  0.55646500  0.72176300  1
  O  718  1  0.40830900  0.74079600  0.71953900  1
  O  719  1  0.40963200  0.55588800  0.52912900  1
  O  761  1  0.90873900  0.55703700  0.02916800  1
  O  762  1  0.90945000  0.74269400  0.21896200  1
  O  763  1  0.94382000  0.55644100  0.21883600  1
  O  764  1  0.94327500  0.74087200  0.02740500  1
  O  806  1  0.26542700  0.38355300  0.27695100  1
  O  807  1  0.08252950  0.38461800  0.46780400  1
  O  808  1  0.27015000  0.41374100  0.46753400  1
  O  809  1  0.08681650  0.41549000  0.27727600  1
  O  851  1  0.08750850  0.91572900  0.77658900  1
  O  852  1  0.26939000  0.91300800  0.96806400  1
  O  853  1  0.08188350  0.88440200  0.96662200  1
  O  854  1  0.27033000  0.88558200  0.77964000  1
  O  896  1  0.77111500  0.41272800  0.96785500  1
  O  897  1  0.58084400  0.41217200  0.78241600  1
  O  898  1  0.76418500  0.38272200  0.77705700  1
  O  899  1  0.58795200  0.38164900  0.97251000  1
  O  941  1  0.58712600  0.88158900  0.47125200  1
  O  942  1  0.76975000  0.88506400  0.28023800  1
  O  943  1  0.58193300  0.91284500  0.28158400  1
  O  944  1  0.77051800  0.91206800  0.46844000  1
  O  1210  1  0.73547300  0.24350700  0.21651100  1
  O  1211  1  0.73627600  0.05536600  0.02816800  1
  O  1212  1  0.76994600  0.24245500  0.03147000  1
  O  1213  1  0.76950200  0.05572800  0.22109400  1
  O  1255  1  0.27021600  0.05566500  0.71907600  1
  O  1256  1  0.27045000  0.24081000  0.52797600  1
  O  1257  1  0.23587400  0.05632700  0.52822300  1
  O  1258  1  0.23643800  0.24547000  0.71580700  1
  O  1300  1  0.76975000  0.74280900  0.53197800  1
  O  1301  1  0.76990400  0.55646500  0.72176300  1
  O  1302  1  0.73517100  0.74079600  0.71953900  1
  O  1303  1  0.73649400  0.55588800  0.52912900  1
  O  1345  1  0.23560100  0.55703700  0.02916800  1
  O  1346  1  0.23631200  0.74269400  0.21896200  1
  O  1347  1  0.27068200  0.55644100  0.21883600  1
  O  1348  1  0.27013700  0.74087200  0.02740500  1
  O  1390  1  0.59228900  0.38355300  0.27695100  1
  O  1391  1  0.40939100  0.38461800  0.46780400  1
  O  1392  1  0.59701200  0.41374100  0.46753400  1
  O  1393  1  0.41367800  0.41549000  0.27727600  1
  O  1435  1  0.41437000  0.91572900  0.77658900  1
  O  1436  1  0.59625200  0.91300800  0.96806400  1
  O  1437  1  0.40874500  0.88440200  0.96662200  1
  O  1438  1  0.59719200  0.88558200  0.77964000  1
  O  1480  1  0.09797700  0.41272800  0.96785500  1
  O  1481  1  0.90770600  0.41217200  0.78241600  1
  O  1482  1  0.09104700  0.38272200  0.77705700  1
  O  1483  1  0.91481400  0.38164900  0.97251000  1
  O  1525  1  0.91398800  0.88158900  0.47125200  1
  O  1526  1  0.09661200  0.88506400  0.28023800  1
  O  1527  1  0.90879500  0.91284500  0.28158400  1
  O  1528  1  0.09738000  0.91206800  0.46844000  1
