# generated using pymatgen
data_H9C14(N2O)2
_symmetry_space_group_name_H-M   'P 1'
_cell_length_a   42.51780000
_cell_length_b   67.81530000
_cell_length_c   67.81530000
_cell_angle_alpha   90.00000000
_cell_angle_beta   90.00000000
_cell_angle_gamma   90.00000000
_symmetry_Int_Tables_number   1
_chemical_formula_structural   H9C14(N2O)2
_chemical_formula_sum   'H576 C896 N256 O128'
_cell_volume   195535.74453430
_cell_formula_units_Z   64
loop_
 _symmetry_equiv_pos_site_id
 _symmetry_equiv_pos_as_xyz
  1  'x, y, z'
loop_
 _atom_site_type_symbol
 _atom_site_label
 _atom_site_symmetry_multiplicity
 _atom_site_fract_x
 _atom_site_fract_y
 _atom_site_fract_z
 _atom_site_occupancy
  H  7  1  0.17434400  0.12764600  0.32160700  1
  H  8  1  0.10055200  0.14794000  0.35717000  1
  H  15  1  0.16260400  0.08246800  0.24697100  1
  H  16  1  0.14004200  0.08038900  0.30711800  1
  H  19  1  0.08129700  0.10264500  0.29290700  1
  H  20  1  0.05253500  0.11042300  0.30710900  1
  H  21  1  0.14480900  0.14835400  0.26574500  1
  H  22  1  0.13546000  0.14762400  0.28924300  1
  H  33  1  0.17432400  0.88092300  0.78196300  1
  H  34  1  0.10053500  0.86062400  0.74640500  1
  H  41  1  0.16263300  0.92609200  0.85659000  1
  H  42  1  0.14002200  0.92819400  0.79645100  1
  H  45  1  0.08128100  0.90593100  0.81065900  1
  H  46  1  0.05251400  0.89813200  0.79647200  1
  H  47  1  0.14483400  0.86021100  0.83779400  1
  H  48  1  0.13544900  0.86095100  0.81430100  1
  H  59  1  0.17433300  0.73447900  0.17515800  1
  H  60  1  0.10054600  0.69891600  0.19545900  1
  H  67  1  0.16266500  0.80909300  0.12998100  1
  H  68  1  0.14005000  0.74895300  0.12788100  1
  H  71  1  0.08128900  0.76315800  0.15013300  1
  H  72  1  0.05252400  0.74896800  0.15792900  1
  H  73  1  0.14485200  0.79030100  0.19586100  1
  H  74  1  0.13545500  0.76681000  0.19512100  1
  H  85  1  0.17433800  0.27410500  0.92842900  1
  H  86  1  0.10054700  0.30967000  0.90813300  1
  H  93  1  0.16259000  0.19947400  0.97360300  1
  H  94  1  0.14004300  0.25962600  0.97567600  1
  H  97  1  0.08128800  0.24540000  0.95342000  1
  H  98  1  0.05252400  0.25959800  0.94563400  1
  H  99  1  0.14479100  0.21824600  0.90771400  1
  H  100  1  0.13546000  0.24174800  0.90844200  1
  H  111  1  0.77083200  0.88092500  0.32160700  1
  H  112  1  0.84462500  0.86063000  0.35717000  1
  H  119  1  0.78257100  0.92610200  0.24697100  1
  H  120  1  0.80513300  0.92818100  0.30711800  1
  H  123  1  0.86387800  0.90592500  0.29290700  1
  H  124  1  0.89264000  0.89814800  0.30710900  1
  H  125  1  0.80036600  0.86021600  0.26574500  1
  H  126  1  0.80971500  0.86094600  0.28924300  1
  H  137  1  0.77085100  0.12764700  0.78196300  1
  H  138  1  0.84464100  0.14794600  0.74640500  1
  H  145  1  0.78254200  0.08247900  0.85659000  1
  H  146  1  0.80515400  0.08037600  0.79645100  1
  H  149  1  0.86389400  0.10263900  0.81065900  1
  H  150  1  0.89266100  0.11043800  0.79647000  1
  H  151  1  0.80034200  0.14835900  0.83779400  1
  H  152  1  0.80972600  0.14761900  0.81430100  1
  H  163  1  0.77084200  0.27409100  0.17515800  1
  H  164  1  0.84462900  0.30965400  0.19545900  1
  H  171  1  0.78251000  0.19947700  0.12998100  1
  H  172  1  0.80512600  0.25961700  0.12788100  1
  H  175  1  0.86388700  0.24541200  0.15013300  1
  H  176  1  0.89265200  0.25960200  0.15792900  1
  H  177  1  0.80032300  0.21826900  0.19586100  1
  H  178  1  0.80971900  0.24176000  0.19512100  1
  H  189  1  0.77083700  0.73446500  0.92842900  1
  H  190  1  0.84462900  0.69890000  0.90813300  1
  H  197  1  0.78258500  0.80909600  0.97360300  1
  H  198  1  0.80513300  0.74894400  0.97567600  1
  H  201  1  0.86388700  0.76317000  0.95342000  1
  H  202  1  0.89265200  0.74897200  0.94563400  1
  H  203  1  0.80038400  0.79032400  0.90771400  1
  H  204  1  0.80971500  0.76682200  0.90844200  1
  H  215  1  0.76995200  0.88004900  0.78377100  1
  H  216  1  0.84278100  0.86071700  0.74704200  1
  H  223  1  0.78151900  0.92516100  0.85811400  1
  H  224  1  0.80452400  0.92751900  0.79807600  1
  H  227  1  0.86338600  0.90588400  0.81124300  1
  H  228  1  0.89181900  0.89850900  0.79657500  1
  H  229  1  0.80010900  0.85936300  0.83899800  1
  H  230  1  0.80951200  0.86029400  0.81551500  1
  H  241  1  0.76997100  0.12852000  0.31979800  1
  H  242  1  0.84280200  0.14787800  0.35650900  1
  H  249  1  0.78149100  0.08341800  0.24546400  1
  H  250  1  0.80452600  0.08104300  0.30549600  1
  H  253  1  0.86340000  0.10267900  0.29233100  1
  H  254  1  0.89184300  0.11008100  0.30698100  1
  H  255  1  0.80010700  0.14921000  0.26459400  1
  H  256  1  0.80953400  0.14827200  0.28807400  1
  H  267  1  0.76996700  0.27227800  0.92754000  1
  H  268  1  0.84278800  0.30899900  0.90818400  1
  H  275  1  0.78147200  0.19795800  0.97265300  1
  H  276  1  0.80451400  0.25799000  0.97502600  1
  H  279  1  0.86340000  0.24483000  0.95339500  1
  H  280  1  0.89183500  0.25948400  0.94599700  1
  H  281  1  0.80010000  0.21708400  0.90686100  1
  H  282  1  0.80953800  0.24056100  0.90779900  1
  H  293  1  0.76996200  0.73627500  0.17601500  1
  H  294  1  0.84278500  0.69954100  0.19535000  1
  H  301  1  0.78153600  0.81061300  0.13090600  1
  H  302  1  0.80452900  0.75057100  0.12855200  1
  H  305  1  0.86340000  0.76374900  0.15019200  1
  H  306  1  0.89183300  0.74908400  0.15757200  1
  H  307  1  0.80012600  0.79149700  0.19670600  1
  H  308  1  0.80951500  0.76801100  0.19577700  1
  H  319  1  0.17522300  0.12852100  0.78377100  1
  H  320  1  0.10239500  0.14785300  0.74704200  1
  H  327  1  0.16365700  0.08340800  0.85811400  1
  H  328  1  0.14065100  0.08105100  0.79807600  1
  H  331  1  0.08178900  0.10268600  0.81124300  1
  H  332  1  0.05335600  0.11006100  0.79657500  1
  H  333  1  0.14506600  0.14920700  0.83899800  1
  H  334  1  0.13566400  0.14827600  0.81551500  1
  H  345  1  0.17520300  0.88004900  0.31979800  1
  H  346  1  0.10237400  0.86069200  0.35650900  1
  H  353  1  0.16368500  0.92515200  0.24546400  1
  H  354  1  0.14065000  0.92752600  0.30549600  1
  H  357  1  0.08177400  0.90589000  0.29233100  1
  H  358  1  0.05333400  0.89848900  0.30697900  1
  H  359  1  0.14506800  0.85936000  0.26459400  1
  H  360  1  0.13564200  0.86029800  0.28807400  1
  H  371  1  0.17520900  0.73629200  0.92754000  1
  H  372  1  0.10238700  0.69957100  0.90818400  1
  H  379  1  0.16370400  0.81061200  0.97265300  1
  H  380  1  0.14066100  0.75058000  0.97502600  1
  H  383  1  0.08177500  0.76374000  0.95339500  1
  H  384  1  0.05334000  0.74908600  0.94599700  1
  H  385  1  0.14507500  0.79148600  0.90686100  1
  H  386  1  0.13563700  0.76800900  0.90779900  1
  H  397  1  0.17521400  0.27229500  0.17601500  1
  H  398  1  0.10239000  0.30902900  0.19535000  1
  H  405  1  0.16364100  0.19795700  0.13090600  1
  H  406  1  0.14064700  0.25799900  0.12855200  1
  H  409  1  0.08177600  0.24482100  0.15019000  1
  H  410  1  0.05334200  0.25948600  0.15757200  1
  H  411  1  0.14504900  0.21707300  0.19670600  1
  H  412  1  0.13566200  0.24055900  0.19577700  1
  H  423  1  0.67379300  0.62661800  0.82157800  1
  H  424  1  0.60138300  0.64634400  0.85866900  1
  H  431  1  0.66069500  0.58250700  0.74680000  1
  H  432  1  0.63840300  0.58031300  0.80698100  1
  H  435  1  0.57962800  0.60359800  0.79297900  1
  H  436  1  0.55135500  0.61103400  0.80774200  1
  H  437  1  0.64379600  0.64841400  0.76586700  1
  H  438  1  0.63453600  0.64762600  0.78938400  1
  H  449  1  0.67377400  0.38193700  0.28200100  1
  H  450  1  0.60137100  0.36221200  0.24490500  1
  H  457  1  0.66072100  0.42605100  0.35676300  1
  H  458  1  0.63837900  0.42826200  0.29658900  1
  H  461  1  0.57961100  0.40498400  0.31057900  1
  H  462  1  0.55133800  0.39753100  0.29582400  1
  H  463  1  0.64381500  0.36014900  0.33768300  1
  H  464  1  0.63451700  0.36094300  0.31417200  1
  H  475  1  0.67379000  0.23450500  0.67413200  1
  H  476  1  0.60138600  0.19740800  0.69385500  1
  H  483  1  0.66075600  0.30926500  0.63002000  1
  H  484  1  0.63841500  0.24909000  0.62780900  1
  H  487  1  0.57962800  0.26308400  0.65108300  1
  H  488  1  0.55135500  0.24832700  0.65853300  1
  H  489  1  0.64384100  0.29018500  0.69592200  1
  H  490  1  0.63453600  0.26667600  0.69512600  1
  H  501  1  0.67378300  0.77406800  0.42944600  1
  H  502  1  0.60137800  0.81116600  0.40972600  1
  H  509  1  0.66068100  0.69929900  0.47356300  1
  H  510  1  0.63840100  0.75948500  0.47574900  1
  H  513  1  0.57961800  0.74547500  0.45247100  1
  H  514  1  0.55134500  0.76023700  0.44503100  1
  H  515  1  0.64377200  0.71835800  0.40765300  1
  H  516  1  0.63452900  0.74187800  0.40843700  1
  H  527  1  0.27138500  0.38195200  0.82157800  1
  H  528  1  0.34379500  0.36222600  0.85866900  1
  H  535  1  0.28448100  0.42606300  0.74680000  1
  H  536  1  0.30677300  0.42825700  0.80698100  1
  H  539  1  0.36554800  0.40497200  0.79297900  1
  H  540  1  0.39382100  0.39753600  0.80774200  1
  H  541  1  0.30138000  0.36015600  0.76586700  1
  H  542  1  0.31063900  0.36094300  0.78938400  1
  H  553  1  0.27140200  0.62663300  0.28200100  1
  H  554  1  0.34380400  0.64635800  0.24490500  1
  H  561  1  0.28445500  0.58251900  0.35676300  1
  H  562  1  0.30679600  0.58030800  0.29658900  1
  H  565  1  0.36556400  0.60358600  0.31057900  1
  H  566  1  0.39383700  0.61103900  0.29582400  1
  H  567  1  0.30136100  0.64842100  0.33768300  1
  H  568  1  0.31065800  0.64762600  0.31417200  1
  H  579  1  0.27138500  0.77406500  0.67413200  1
  H  580  1  0.34379000  0.81116200  0.69385500  1
  H  587  1  0.28442000  0.69930500  0.63002000  1
  H  588  1  0.30676100  0.75948000  0.62780900  1
  H  591  1  0.36554800  0.74548600  0.65108300  1
  H  592  1  0.39382100  0.76024300  0.65853300  1
  H  593  1  0.30133500  0.71838500  0.69592200  1
  H  594  1  0.31063900  0.74189400  0.69512600  1
  H  605  1  0.27139200  0.23450200  0.42944400  1
  H  606  1  0.34379900  0.19740400  0.40972600  1
  H  613  1  0.28449500  0.30927100  0.47356300  1
  H  614  1  0.30677500  0.24908500  0.47574900  1
  H  617  1  0.36555700  0.26309500  0.45247100  1
  H  618  1  0.39383000  0.24833300  0.44503100  1
  H  619  1  0.30140300  0.29021000  0.40765300  1
  H  620  1  0.31064600  0.26669200  0.40843700  1
  H  631  1  0.27056900  0.38089600  0.28382200  1
  H  632  1  0.34210400  0.36239600  0.24558000  1
  H  639  1  0.28336600  0.42517700  0.35824100  1
  H  640  1  0.30608300  0.42762500  0.29816400  1
  H  643  1  0.36498600  0.40511800  0.31114400  1
  H  644  1  0.39295100  0.39813900  0.29593600  1
  H  645  1  0.30112600  0.35935400  0.33885900  1
  H  646  1  0.31044200  0.36033400  0.31535900  1
  H  657  1  0.27058300  0.62768700  0.81974000  1
  H  658  1  0.34212000  0.64620500  0.85797100  1
  H  665  1  0.28334000  0.58340200  0.74533600  1
  H  666  1  0.30608100  0.58094400  0.80540800  1
  H  669  1  0.36499800  0.60343900  0.79243600  1
  H  670  1  0.39296700  0.61044300  0.80763000  1
  H  671  1  0.30113300  0.64922100  0.76472100  1
  H  672  1  0.31047200  0.64823600  0.78821700  1
  H  683  1  0.27057600  0.77223300  0.42838500  1
  H  684  1  0.34210800  0.81047200  0.40987300  1
  H  691  1  0.28331900  0.69783200  0.47266800  1
  H  692  1  0.30606900  0.75790400  0.47512700  1
  H  695  1  0.36499000  0.74493000  0.45263200  1
  H  696  1  0.39296000  0.76012900  0.44563400  1
  H  697  1  0.30111600  0.71721800  0.40685100  1
  H  698  1  0.31046500  0.74071300  0.40783700  1
  H  709  1  0.27058100  0.23633200  0.67517900  1
  H  710  1  0.34211300  0.19808400  0.69367500  1
  H  717  1  0.28338200  0.31074100  0.63089300  1
  H  718  1  0.30609000  0.25066200  0.62844900  1
  H  721  1  0.36500000  0.26364800  0.65095300  1
  H  722  1  0.39296500  0.24844200  0.65793800  1
  H  723  1  0.30114900  0.29136500  0.69671700  1
  H  724  1  0.31045100  0.26786300  0.69573800  1
  H  735  1  0.67460700  0.62767400  0.28382200  1
  H  736  1  0.60307200  0.64617400  0.24558000  1
  H  743  1  0.66181000  0.58339300  0.35824100  1
  H  744  1  0.63909200  0.58094500  0.29816400  1
  H  747  1  0.58019000  0.60345200  0.31114400  1
  H  748  1  0.55222500  0.61043100  0.29593600  1
  H  749  1  0.64405000  0.64921600  0.33885900  1
  H  750  1  0.63473400  0.64823600  0.31535900  1
  H  761  1  0.67459200  0.38088300  0.81974000  1
  H  762  1  0.60305500  0.36236500  0.85797100  1
  H  769  1  0.66183500  0.42516800  0.74533600  1
  H  770  1  0.63909400  0.42762600  0.80540800  1
  H  773  1  0.58017800  0.40513100  0.79243400  1
  H  774  1  0.55220800  0.39812700  0.80762900  1
  H  775  1  0.64404300  0.35934900  0.76472100  1
  H  776  1  0.63470300  0.36033400  0.78821700  1
  H  787  1  0.67460000  0.23633700  0.42838500  1
  H  788  1  0.60306700  0.19809800  0.40987300  1
  H  795  1  0.66185700  0.31073800  0.47266800  1
  H  796  1  0.63910600  0.25066600  0.47512700  1
  H  799  1  0.58018500  0.26364000  0.45263200  1
  H  800  1  0.55221800  0.24844100  0.44563400  1
  H  801  1  0.64405900  0.29135000  0.40685100  1
  H  802  1  0.63471000  0.26785700  0.40783700  1
  H  813  1  0.67459500  0.77223800  0.67517900  1
  H  814  1  0.60306500  0.81048600  0.69367500  1
  H  821  1  0.66179300  0.69782900  0.63089300  1
  H  822  1  0.63908500  0.75790800  0.62844900  1
  H  825  1  0.58017600  0.74492200  0.65095300  1
  H  826  1  0.55221100  0.76012800  0.65793800  1
  H  827  1  0.64402600  0.71720700  0.69671700  1
  H  828  1  0.63472400  0.74070700  0.69573800  1
  H  838  1  0.19500400  0.01541100  0.25115300  1
  H  840  1  0.11950200  0.99315300  0.29977100  1
  H  841  1  0.12314500  0.02730000  0.29226100  1
  H  846  1  0.17144800  0.04851500  0.25328300  1
  H  848  1  0.14724500  0.96088800  0.29966400  1
  H  854  1  0.19499600  0.99316500  0.85242400  1
  H  856  1  0.11950600  0.01541000  0.80379200  1
  H  857  1  0.12315900  0.98126500  0.81130300  1
  H  862  1  0.17145400  0.96005600  0.85029000  1
  H  864  1  0.14722100  0.04768400  0.80390800  1
  H  870  1  0.19505400  0.80490700  0.06290700  1
  H  872  1  0.11949000  0.75631900  0.04066300  1
  H  873  1  0.12316000  0.76382400  0.07480900  1
  H  878  1  0.17150900  0.80278300  0.09601800  1
  H  880  1  0.14717300  0.75642500  0.00838900  1
  H  886  1  0.19499600  0.20366500  0.04066400  1
  H  888  1  0.11947400  0.25227800  0.06290900  1
  H  889  1  0.12313700  0.24477100  0.02876200  1
  H  894  1  0.17145000  0.20579300  0.00755500  1
  H  896  1  0.14717100  0.25216100  0.09518500  1
  H  902  1  0.75017300  0.99315900  0.25115300  1
  H  904  1  0.82567300  0.01541700  0.29977100  1
  H  905  1  0.82202900  0.98126900  0.29226100  1
  H  910  1  0.77372700  0.96005400  0.25328300  1
  H  912  1  0.79793100  0.04768200  0.29966400  1
  H  918  1  0.75018000  0.01540400  0.85242400  1
  H  920  1  0.82567000  0.99316000  0.80379200  1
  H  921  1  0.82201800  0.02730500  0.81130300  1
  H  926  1  0.77372300  0.04851400  0.85029000  1
  H  928  1  0.79795500  0.96088600  0.80390800  1
  H  934  1  0.75012100  0.20366300  0.06290700  1
  H  936  1  0.82568400  0.25225100  0.04066300  1
  H  937  1  0.82201500  0.24474600  0.07480900  1
  H  942  1  0.77366600  0.20578700  0.09601800  1
  H  944  1  0.79800200  0.25214500  0.00838900  1
  H  950  1  0.75018000  0.80490500  0.04066400  1
  H  952  1  0.82570100  0.75629200  0.06290900  1
  H  953  1  0.82203900  0.76379900  0.02876200  1
  H  958  1  0.77372500  0.80277700  0.00755500  1
  H  960  1  0.79800400  0.75640900  0.09518500  1
  H  966  1  0.69352100  0.51545300  0.75115600  1
  H  968  1  0.61730400  0.49316600  0.79933100  1
  H  969  1  0.62094700  0.52730700  0.79178700  1
  H  974  1  0.66976900  0.54854300  0.75310100  1
  H  976  1  0.64541600  0.46097000  0.79949600  1
  H  982  1  0.69351400  0.49311900  0.35241700  1
  H  984  1  0.61729900  0.51539400  0.30423500  1
  H  985  1  0.62095400  0.48125400  0.31178100  1
  H  990  1  0.66977800  0.46002400  0.35047100  1
  H  992  1  0.64539300  0.54759900  0.30407400  1
  H  998  1  0.69357000  0.30490300  0.56295100  1
  H  1000  1  0.61729400  0.25675800  0.54067900  1
  H  1001  1  0.62096600  0.26429900  0.57481800  1
  H  1006  1  0.66983000  0.30296500  0.59604700  1
  H  1008  1  0.64535500  0.25659000  0.50847400  1
  H  1014  1  0.69351200  0.70366500  0.54062000  1
  H  1016  1  0.61727300  0.75183300  0.56289300  1
  H  1017  1  0.62093700  0.74429200  0.52875400  1
  H  1022  1  0.66976900  0.70560700  0.50752700  1
  H  1024  1  0.64534600  0.75199200  0.59510100  1
  H  1030  1  0.25165400  0.49311700  0.75115600  1
  H  1032  1  0.32787200  0.51540400  0.79933100  1
  H  1033  1  0.32422900  0.48126300  0.79178700  1
  H  1038  1  0.27540700  0.46002700  0.75310100  1
  H  1040  1  0.29975900  0.54760200  0.79949600  1
  H  1046  1  0.25166200  0.51545100  0.35241700  1
  H  1048  1  0.32787700  0.49317600  0.30423500  1
  H  1049  1  0.32422200  0.52731600  0.31178100  1
  H  1054  1  0.27539700  0.54854600  0.35047100  1
  H  1056  1  0.29978300  0.46097100  0.30407400  1
  H  1062  1  0.25160500  0.70366700  0.56295100  1
  H  1064  1  0.32788100  0.75181200  0.54067900  1
  H  1065  1  0.32421000  0.74427100  0.57481800  1
  H  1070  1  0.27534600  0.70560500  0.59604700  1
  H  1072  1  0.29982000  0.75198000  0.50847400  1
  H  1078  1  0.25166600  0.30490500  0.54062000  1
  H  1080  1  0.32790300  0.25673700  0.56289300  1
  H  1081  1  0.32423800  0.26427800  0.52875400  1
  H  1086  1  0.27540700  0.30296300  0.50752700  1
  H  1088  1  0.29983000  0.25657800  0.59510100  1
  H  1094  1  0.23221300  0.13981500  0.38459300  1
  H  1096  1  0.21218100  0.20976200  0.37713900  1
  H  1097  1  0.18349300  0.18674800  0.35766400  1
  H  1102  1  0.20056900  0.13536300  0.35319700  1
  H  1104  1  0.24275500  0.21465400  0.40829300  1
  H  1110  1  0.23217900  0.86874600  0.71895700  1
  H  1112  1  0.21220000  0.79880000  0.72647700  1
  H  1113  1  0.18350400  0.82182500  0.74593600  1
  H  1118  1  0.20053500  0.87322600  0.75034100  1
  H  1120  1  0.24277100  0.79388100  0.69533100  1
  H  1126  1  0.23219400  0.67148400  0.18732500  1
  H  1128  1  0.21221100  0.67896500  0.25727500  1
  H  1129  1  0.18351900  0.69843800  0.23426300  1
  H  1134  1  0.20055500  0.70287700  0.18286600  1
  H  1136  1  0.24277100  0.64780300  0.26216900  1
  H  1142  1  0.23218600  0.33711400  0.91625800  1
  H  1144  1  0.21220200  0.32961400  0.84631000  1
  H  1145  1  0.18351200  0.31014500  0.86932900  1
  H  1150  1  0.20055200  0.30572000  0.92072400  1
  H  1152  1  0.24277100  0.36075300  0.84139400  1
  H  1158  1  0.71296200  0.86875500  0.38459300  1
  H  1160  1  0.73299400  0.79880800  0.37713900  1
  H  1161  1  0.76168300  0.82182200  0.35766400  1
  H  1166  1  0.74460500  0.87320700  0.35319700  1
  H  1168  1  0.70242100  0.79391500  0.40829300  1
  H  1174  1  0.71299800  0.13982400  0.71895700  1
  H  1176  1  0.73297500  0.20977000  0.72647700  1
  H  1177  1  0.76167100  0.18674500  0.74593600  1
  H  1182  1  0.74464100  0.13534400  0.75034100  1
  H  1184  1  0.70240400  0.21468900  0.69533100  1
  H  1190  1  0.71298100  0.33708600  0.18732500  1
  H  1192  1  0.73296300  0.32960500  0.25727500  1
  H  1193  1  0.76165700  0.31013200  0.23426300  1
  H  1198  1  0.74462000  0.30569300  0.18286600  1
  H  1200  1  0.70240400  0.36076700  0.26216900  1
  H  1206  1  0.71299000  0.67145600  0.91625800  1
  H  1208  1  0.73297300  0.67895600  0.84631000  1
  H  1209  1  0.76166400  0.69842500  0.86932900  1
  H  1214  1  0.74462400  0.70285000  0.92072400  1
  H  1216  1  0.70240400  0.64781700  0.84139400  1
  H  1222  1  0.71127400  0.86760500  0.72082200  1
  H  1224  1  0.73439800  0.79787100  0.72668200  1
  H  1225  1  0.76185000  0.82092400  0.74682400  1
  H  1230  1  0.74255200  0.87182500  0.75254700  1
  H  1232  1  0.70409100  0.79322300  0.69517300  1
  H  1238  1  0.71131100  0.14097800  0.38276500  1
  H  1240  1  0.73437900  0.21071200  0.37683700  1
  H  1241  1  0.76184100  0.18764900  0.35671100  1
  H  1246  1  0.74258700  0.13672700  0.35105500  1
  H  1248  1  0.70407700  0.21538800  0.40834000  1
  H  1254  1  0.71129000  0.33522800  0.91509100  1
  H  1256  1  0.73437400  0.32935300  0.84535300  1
  H  1257  1  0.76183100  0.30921200  0.86840400  1
  H  1262  1  0.74256600  0.30351000  0.91931900  1
  H  1264  1  0.70408100  0.36087000  0.84070800  1
  H  1270  1  0.71130400  0.67330200  0.18846000  1
  H  1272  1  0.73437700  0.67921200  0.25819700  1
  H  1273  1  0.76183100  0.69934600  0.23513900  1
  H  1278  1  0.74256900  0.70502400  0.18422400  1
  H  1280  1  0.70408100  0.64771600  0.26287000  1
  H  1286  1  0.23390100  0.14096600  0.72082200  1
  H  1288  1  0.21077700  0.21069900  0.72668200  1
  H  1289  1  0.18332500  0.18764600  0.74682400  1
  H  1294  1  0.20262400  0.13674500  0.75254700  1
  H  1296  1  0.24108500  0.21534700  0.69517300  1
  H  1302  1  0.23386500  0.86759200  0.38276500  1
  H  1304  1  0.21079700  0.79785700  0.37683700  1
  H  1305  1  0.18333600  0.82092100  0.35671100  1
  H  1310  1  0.20258800  0.87184300  0.35105500  1
  H  1312  1  0.24109900  0.79318200  0.40833800  1
  H  1318  1  0.23388600  0.67334200  0.91509100  1
  H  1320  1  0.21080100  0.67921700  0.84535300  1
  H  1321  1  0.18334400  0.69935800  0.86840400  1
  H  1326  1  0.20260900  0.70506000  0.91931900  1
  H  1328  1  0.24109700  0.64770000  0.84070800  1
  H  1334  1  0.23387100  0.33526800  0.18846000  1
  H  1336  1  0.21079800  0.32935800  0.25819700  1
  H  1337  1  0.18334500  0.30922400  0.23513900  1
  H  1342  1  0.20260700  0.30354600  0.18422400  1
  H  1344  1  0.24109400  0.36085400  0.26287000  1
  H  1350  1  0.21376900  0.12536600  0.19928400  1
  H  1352  1  0.12615300  0.17091100  0.19493400  1
  H  1353  1  0.12660800  0.14643800  0.22012600  1
  H  1358  1  0.18271000  0.10629500  0.22376400  1
  H  1360  1  0.17612400  0.17293400  0.15339000  1
  H  1366  1  0.21381700  0.88319600  0.90426500  1
  H  1368  1  0.12621500  0.83763800  0.90861300  1
  H  1369  1  0.12667100  0.86210600  0.88341500  1
  H  1374  1  0.18276600  0.90225800  0.87977800  1
  H  1376  1  0.17618300  0.83563000  0.95016300  1
  H  1382  1  0.21383600  0.85675900  0.17289600  1
  H  1384  1  0.12619500  0.86112400  0.21842100  1
  H  1385  1  0.12665700  0.83592900  0.19395000  1
  H  1390  1  0.18278300  0.83228200  0.15381900  1
  H  1392  1  0.17620000  0.90265900  0.22045600  1
  H  1398  1  0.21376600  0.15179600  0.93070900  1
  H  1400  1  0.12616100  0.14743000  0.88515500  1
  H  1401  1  0.12660000  0.17262200  0.90962900  1
  H  1406  1  0.18270400  0.17627400  0.94977500  1
  H  1408  1  0.17615200  0.10589500  0.88313700  1
  H  1414  1  0.73140600  0.88320500  0.19928400  1
  H  1416  1  0.81902400  0.83765900  0.19493400  1
  H  1417  1  0.81856700  0.86213100  0.22012600  1
  H  1422  1  0.76246600  0.90227500  0.22376400  1
  H  1424  1  0.76905200  0.83563600  0.15339000  1
  H  1430  1  0.73135900  0.12537400  0.90426500  1
  H  1432  1  0.81896000  0.17093200  0.90861300  1
  H  1433  1  0.81850400  0.14646300  0.88341500  1
  H  1438  1  0.76241000  0.10631300  0.87977800  1
  H  1440  1  0.76899300  0.17294000  0.95016300  1
  H  1446  1  0.73134000  0.15181100  0.17289600  1
  H  1448  1  0.81898100  0.14744500  0.21842100  1
  H  1449  1  0.81851800  0.17263900  0.19395000  1
  H  1454  1  0.76239300  0.17628800  0.15381900  1
  H  1456  1  0.76897600  0.10591100  0.22045500  1
  H  1462  1  0.73140900  0.85677400  0.93070900  1
  H  1464  1  0.81901400  0.86114000  0.88515500  1
  H  1465  1  0.81857700  0.83594800  0.90962900  1
  H  1470  1  0.76247100  0.83229600  0.94977500  1
  H  1472  1  0.76902300  0.90267500  0.88313700  1
  H  1478  1  0.71266600  0.62560600  0.69952600  1
  H  1480  1  0.62457800  0.67074800  0.69470600  1
  H  1481  1  0.62497300  0.64627700  0.71989600  1
  H  1486  1  0.68142300  0.60638800  0.72382900  1
  H  1488  1  0.67514300  0.67304600  0.65345700  1
  H  1494  1  0.71271500  0.38295300  0.40402700  1
  H  1496  1  0.62463900  0.33780100  0.40884700  1
  H  1497  1  0.62503200  0.36227100  0.38365200  1
  H  1502  1  0.68147200  0.40216600  0.37971900  1
  H  1504  1  0.67520900  0.33551400  0.45009900  1
  H  1510  1  0.71273600  0.35652000  0.67313500  1
  H  1512  1  0.62461800  0.36135800  0.71825400  1
  H  1513  1  0.62502000  0.33616400  0.69378400  1
  H  1518  1  0.68149500  0.33222100  0.65391000  1
  H  1520  1  0.67521800  0.40259600  0.72056600  1
  H  1526  1  0.71266400  0.65203300  0.43046600  1
  H  1528  1  0.62458800  0.64719900  0.38531600  1
  H  1529  1  0.62496600  0.67238800  0.40978900  1
  H  1534  1  0.68141300  0.67633200  0.44968200  1
  H  1536  1  0.67517300  0.60596000  0.38302100  1
  H  1542  1  0.23250900  0.38296400  0.69952600  1
  H  1544  1  0.32060000  0.33782200  0.69470600  1
  H  1545  1  0.32020200  0.36229300  0.71989600  1
  H  1550  1  0.26375300  0.40218200  0.72382900  1
  H  1552  1  0.27003500  0.33552400  0.65345700  1
  H  1558  1  0.23246100  0.62561700  0.40402700  1
  H  1560  1  0.32053600  0.67076900  0.40884700  1
  H  1561  1  0.32014300  0.64629900  0.38365200  1
  H  1566  1  0.26370400  0.60640400  0.37971900  1
  H  1568  1  0.26996700  0.67305600  0.45009900  1
  H  1574  1  0.23244000  0.65205000  0.67313500  1
  H  1576  1  0.32056000  0.64721200  0.71825400  1
  H  1577  1  0.32015500  0.67240600  0.69378400  1
  H  1582  1  0.26368000  0.67634900  0.65391000  1
  H  1584  1  0.26995700  0.60597400  0.72056600  1
  H  1590  1  0.23251300  0.35653700  0.43046600  1
  H  1592  1  0.32059000  0.36137100  0.38531600  1
  H  1593  1  0.32021200  0.33618200  0.40978900  1
  H  1598  1  0.26376200  0.33223800  0.44968200  1
  H  1600  1  0.27000200  0.40261000  0.38302100  1
  H  1606  1  0.99980000  0.12372100  0.38118800  1
  H  1608  1  0.94427900  0.14470200  0.32236200  1
  H  1609  1  0.00031900  0.14402700  0.32241500  1
  H  1614  1  0.04898700  0.13498400  0.36559000  1
  H  1616  1  0.89494700  0.14061600  0.36405300  1
  H  1622  1  0.99978800  0.88481900  0.72236200  1
  H  1624  1  0.94425600  0.86390900  0.78121000  1
  H  1625  1  0.00029600  0.86458200  0.78115800  1
  H  1630  1  0.04897600  0.87355600  0.73798100  1
  H  1632  1  0.89492800  0.86795900  0.73951000  1
  H  1638  1  0.99980000  0.67485800  0.17128000  1
  H  1640  1  0.94426500  0.73372200  0.19213800  1
  H  1641  1  0.00030500  0.73367200  0.19146700  1
  H  1646  1  0.04898600  0.69048700  0.18253400  1
  H  1648  1  0.89494000  0.69202200  0.18813400  1
  H  1654  1  0.99979300  0.33370200  0.93230400  1
  H  1656  1  0.94426800  0.27484600  0.91140900  1
  H  1657  1  0.00030800  0.27489800  0.91208600  1
  H  1662  1  0.04898500  0.31808300  0.92106800  1
  H  1664  1  0.89493800  0.31654100  0.91542600  1
  H  1670  1  0.94537500  0.88484900  0.38118800  1
  H  1672  1  0.00089800  0.86386800  0.32236200  1
  H  1673  1  0.94485600  0.86454400  0.32241500  1
  H  1678  1  0.89618900  0.87358600  0.36559000  1
  H  1680  1  0.05022900  0.86795400  0.36405300  1
  H  1686  1  0.94539000  0.12375000  0.72236200  1
  H  1688  1  0.00092200  0.14466000  0.78121000  1
  H  1689  1  0.94487900  0.14398800  0.78115800  1
  H  1694  1  0.89620100  0.13501400  0.73798100  1
  H  1696  1  0.05024800  0.14061200  0.73951000  1
  H  1702  1  0.94537800  0.33371200  0.17128000  1
  H  1704  1  0.00091200  0.27484800  0.19213900  1
  H  1705  1  0.94487200  0.27489800  0.19146700  1
  H  1710  1  0.89618900  0.31808300  0.18253400  1
  H  1712  1  0.05023700  0.31654900  0.18813300  1
  H  1718  1  0.94538500  0.67486800  0.93230400  1
  H  1720  1  0.00090700  0.73372400  0.91140900  1
  H  1721  1  0.94486700  0.73367200  0.91208600  1
  H  1726  1  0.89619100  0.69048700  0.92106800  1
  H  1728  1  0.05023900  0.69202900  0.91542600  1
  H  1734  1  0.49983300  0.62351100  0.88263500  1
  H  1736  1  0.44429400  0.64380100  0.82358200  1
  H  1737  1  0.50030800  0.64319700  0.82365800  1
  H  1742  1  0.54909200  0.63471100  0.86687500  1
  H  1744  1  0.39483200  0.64010900  0.86524700  1
  H  1750  1  0.49982800  0.38501900  0.22091500  1
  H  1752  1  0.44427300  0.36481600  0.27999100  1
  H  1753  1  0.50028700  0.36541200  0.27991800  1
  H  1758  1  0.54908300  0.37379900  0.23669600  1
  H  1760  1  0.39481600  0.36847600  0.23831600  1
  H  1766  1  0.49983500  0.17341400  0.67107100  1
  H  1768  1  0.44428900  0.23250500  0.69123900  1
  H  1769  1  0.50030300  0.23243100  0.69063700  1
  H  1774  1  0.54909400  0.18920200  0.68227100  1
  H  1776  1  0.39483400  0.19083300  0.68763100  1
  H  1782  1  0.49982800  0.83514600  0.43251600  1
  H  1784  1  0.44428000  0.77606800  0.41231200  1
  H  1785  1  0.50029400  0.77614200  0.41291400  1
  H  1790  1  0.54909000  0.81936600  0.42132400  1
  H  1792  1  0.39482500  0.81773800  0.41594700  1
  H  1798  1  0.44534300  0.38505800  0.88263500  1
  H  1800  1  0.50088200  0.36476900  0.82358200  1
  H  1801  1  0.44486800  0.36537300  0.82365800  1
  H  1806  1  0.39608300  0.37385900  0.86687500  1
  H  1808  1  0.55034300  0.36846100  0.86524700  1
  H  1814  1  0.44534700  0.62355100  0.22091500  1
  H  1816  1  0.50090300  0.64375400  0.27999100  1
  H  1817  1  0.44488900  0.64315800  0.27991800  1
  H  1822  1  0.39609300  0.63477100  0.23669600  1
  H  1824  1  0.55036000  0.64009400  0.23831600  1
  H  1830  1  0.44534000  0.83515600  0.67107100  1
  H  1832  1  0.50088600  0.77606400  0.69123800  1
  H  1833  1  0.44487200  0.77613900  0.69063700  1
  H  1838  1  0.39608100  0.81936800  0.68227100  1
  H  1840  1  0.55034100  0.81773700  0.68763100  1
  H  1846  1  0.44534700  0.17342400  0.43251600  1
  H  1848  1  0.50089600  0.23250200  0.41231200  1
  H  1849  1  0.44488200  0.23242800  0.41291400  1
  H  1854  1  0.39608600  0.18920400  0.42132400  1
  H  1856  1  0.55035000  0.19083200  0.41594700  1
  C  1  1  0.12928900  0.11787600  0.31269300  1
  C  2  1  0.15092600  0.12765900  0.32516300  1
  C  3  1  0.14071500  0.13855500  0.34170900  1
  C  4  1  0.10819900  0.13950500  0.34559900  1
  C  5  1  0.08598800  0.12953700  0.33363800  1
  C  6  1  0.09637000  0.11883600  0.31675600  1
  C  9  1  0.14108000  0.10914800  0.29503700  1
  C  10  1  0.14584800  0.12041200  0.27751000  1
  C  11  1  0.15464600  0.11040800  0.25985600  1
  C  12  1  0.15773500  0.08959600  0.25988200  1
  C  13  1  0.15276500  0.07836400  0.27716700  1
  C  14  1  0.14459000  0.08841600  0.29460700  1
  C  27  1  0.12927000  0.89070900  0.79086400  1
  C  28  1  0.15091300  0.88093800  0.77838800  1
  C  29  1  0.14070200  0.87003100  0.76184800  1
  C  30  1  0.10818300  0.86906500  0.75797200  1
  C  31  1  0.08596900  0.87902700  0.76993500  1
  C  32  1  0.09635000  0.88973800  0.78681200  1
  C  35  1  0.14106400  0.89943200  0.80852200  1
  C  36  1  0.14585800  0.88815800  0.82604000  1
  C  37  1  0.15467800  0.89815500  0.84369400  1
  C  38  1  0.15779100  0.91896600  0.84367200  1
  C  39  1  0.15276400  0.93020700  0.82639900  1
  C  40  1  0.14458700  0.92016200  0.80895600  1
  C  53  1  0.12927900  0.74337200  0.16536500  1
  C  54  1  0.15092300  0.73090300  0.17514500  1
  C  55  1  0.14070600  0.71438000  0.18607600  1
  C  56  1  0.10819100  0.71048700  0.18702100  1
  C  57  1  0.08598000  0.72243800  0.17704600  1
  C  58  1  0.09636000  0.73931700  0.16633400  1
  C  61  1  0.14107200  0.76103000  0.15664000  1
  C  62  1  0.14586900  0.77854800  0.16791300  1
  C  63  1  0.15469700  0.79619900  0.15791600  1
  C  64  1  0.15779800  0.79617800  0.13710400  1
  C  65  1  0.15280200  0.77890100  0.12586600  1
  C  66  1  0.14459300  0.76146200  0.13591000  1
  C  79  1  0.12928000  0.26519500  0.93819200  1
  C  80  1  0.15092300  0.27767200  0.92842300  1
  C  81  1  0.14071300  0.29422000  0.91753000  1
  C  82  1  0.10819200  0.29809300  0.91656000  1
  C  83  1  0.08598000  0.28613100  0.92652500  1
  C  84  1  0.09636000  0.26925000  0.93723200  1
  C  87  1  0.14107200  0.24753700  0.94692000  1
  C  88  1  0.14583300  0.23001100  0.93565600  1
  C  89  1  0.15461700  0.21235600  0.94566200  1
  C  90  1  0.15772000  0.21238400  0.96647300  1
  C  91  1  0.15275500  0.22967100  0.97770500  1
  C  92  1  0.14457000  0.24711100  0.96765300  1
  C  105  1  0.81588600  0.89069400  0.31269300  1
  C  106  1  0.79425100  0.88091000  0.32516300  1
  C  107  1  0.80446000  0.87001400  0.34170900  1
  C  108  1  0.83697600  0.86906500  0.34559900  1
  C  109  1  0.85918800  0.87903300  0.33363800  1
  C  110  1  0.84880600  0.88973400  0.31675400  1
  C  113  1  0.80409600  0.89942200  0.29503700  1
  C  114  1  0.79932800  0.88815800  0.27751000  1
  C  115  1  0.79053000  0.89816300  0.25985600  1
  C  116  1  0.78744200  0.91897400  0.25988200  1
  C  117  1  0.79241100  0.93020600  0.27716700  1
  C  118  1  0.80058400  0.92015300  0.29460700  1
  C  131  1  0.81590700  0.11786200  0.79086400  1
  C  132  1  0.79426200  0.12763300  0.77838800  1
  C  133  1  0.80447200  0.13853900  0.76184800  1
  C  134  1  0.83699300  0.13950500  0.75797200  1
  C  135  1  0.85920700  0.12954400  0.76993500  1
  C  136  1  0.84882500  0.11883300  0.78681200  1
  C  139  1  0.80411200  0.10913800  0.80852200  1
  C  140  1  0.79931700  0.12041200  0.82604000  1
  C  141  1  0.79049700  0.11041400  0.84369400  1
  C  142  1  0.78738500  0.08960400  0.84367200  1
  C  143  1  0.79241100  0.07836300  0.82639900  1
  C  144  1  0.80058900  0.08840800  0.80895600  1
  C  157  1  0.81589800  0.26519800  0.16536500  1
  C  158  1  0.79425300  0.27766700  0.17514500  1
  C  159  1  0.80447000  0.29419000  0.18607600  1
  C  160  1  0.83698600  0.29808300  0.18702100  1
  C  161  1  0.85919500  0.28613100  0.17704600  1
  C  162  1  0.84881600  0.26925300  0.16633400  1
  C  165  1  0.80410300  0.24754100  0.15664000  1
  C  166  1  0.79930700  0.23002200  0.16791300  1
  C  167  1  0.79048000  0.21237100  0.15791600  1
  C  168  1  0.78737800  0.21239200  0.13710400  1
  C  169  1  0.79237400  0.22966900  0.12586600  1
  C  170  1  0.80058200  0.24710800  0.13591000  1
  C  183  1  0.81589600  0.74337500  0.93819200  1
  C  184  1  0.79425300  0.73089800  0.92842300  1
  C  185  1  0.80446300  0.71435000  0.91753000  1
  C  186  1  0.83698300  0.71047800  0.91656000  1
  C  187  1  0.85919500  0.72243800  0.92652500  1
  C  188  1  0.84881600  0.73932000  0.93723100  1
  C  191  1  0.80410300  0.76103300  0.94692000  1
  C  192  1  0.79934300  0.77856000  0.93565600  1
  C  193  1  0.79055800  0.79621400  0.94566200  1
  C  194  1  0.78745600  0.79618600  0.96647300  1
  C  195  1  0.79242100  0.77889900  0.97770500  1
  C  196  1  0.80060600  0.76145900  0.96765300  1
  C  209  1  0.81510100  0.89017500  0.79215100  1
  C  210  1  0.79325300  0.88025200  0.77992800  1
  C  211  1  0.80314600  0.86955400  0.76318700  1
  C  212  1  0.83551300  0.86895000  0.75883600  1
  C  213  1  0.85797900  0.87906200  0.77049400  1
  C  214  1  0.84788500  0.88963200  0.78754600  1
  C  217  1  0.80367000  0.89878900  0.80998500  1
  C  218  1  0.79888200  0.88738500  0.82743200  1
  C  219  1  0.79006200  0.89722600  0.84518200  1
  C  220  1  0.78697800  0.91804200  0.84525700  1
  C  221  1  0.79205600  0.92946000  0.82817300  1
  C  222  1  0.80010200  0.91952200  0.81056800  1
  C  235  1  0.81511900  0.11838300  0.31142800  1
  C  236  1  0.79326500  0.12829400  0.32365700  1
  C  237  1  0.80315700  0.13900600  0.34039100  1
  C  238  1  0.83553200  0.13963200  0.34472300  1
  C  239  1  0.85800000  0.12952700  0.33306300  1
  C  240  1  0.84790600  0.11894200  0.31602100  1
  C  243  1  0.80368400  0.10977300  0.29359100  1
  C  244  1  0.79887900  0.12118500  0.27615100  1
  C  245  1  0.79004500  0.11134900  0.25840200  1
  C  246  1  0.78693600  0.09053500  0.25832500  1
  C  247  1  0.79201100  0.07911300  0.27540700  1
  C  248  1  0.80009300  0.08904300  0.29300900  1
  C  261  1  0.81511500  0.26391800  0.93768500  1
  C  262  1  0.79325800  0.27614100  0.92776700  1
  C  263  1  0.80315500  0.29285700  0.91702900  1
  C  264  1  0.83552300  0.29721000  0.91642600  1
  C  265  1  0.85799100  0.28556100  0.92654400  1
  C  266  1  0.84789900  0.26851600  0.93712900  1
  C  269  1  0.80368400  0.24608300  0.94629800  1
  C  270  1  0.79887400  0.22864200  0.93488600  1
  C  271  1  0.79003100  0.21089300  0.94472200  1
  C  272  1  0.78693800  0.21081500  0.96553700  1
  C  273  1  0.79203300  0.22789500  0.97695900  1
  C  274  1  0.80010500  0.24549800  0.96702900  1
  C  287  1  0.81511200  0.74465000  0.16589300  1
  C  288  1  0.79325800  0.73242100  0.17580200  1
  C  289  1  0.80314800  0.71567700  0.18649800  1
  C  290  1  0.83552000  0.71134100  0.18712100  1
  C  291  1  0.85798900  0.72299900  0.17701300  1
  C  292  1  0.84789600  0.74004800  0.16643700  1
  C  295  1  0.80368000  0.76248500  0.15727900  1
  C  296  1  0.79889800  0.77993100  0.16868500  1
  C  297  1  0.79009000  0.79768300  0.15884200  1
  C  298  1  0.78699700  0.79775600  0.13802600  1
  C  299  1  0.79207300  0.78067000  0.12660900  1
  C  300  1  0.80012800  0.76306800  0.13654500  1
  C  313  1  0.13007500  0.11839500  0.79215100  1
  C  314  1  0.15192300  0.12831700  0.77992800  1
  C  315  1  0.14203100  0.13901500  0.76318700  1
  C  316  1  0.10966200  0.13962000  0.75883600  1
  C  317  1  0.08719500  0.12950800  0.77049400  1
  C  318  1  0.09729100  0.11893700  0.78754600  1
  C  321  1  0.14150700  0.10978000  0.80998500  1
  C  322  1  0.14629400  0.12118500  0.82743200  1
  C  323  1  0.15511300  0.11134300  0.84518200  1
  C  324  1  0.15819800  0.09052800  0.84525700  1
  C  325  1  0.15312000  0.07911100  0.82817300  1
  C  326  1  0.14507300  0.08904700  0.81056800  1
  C  339  1  0.13005700  0.89018700  0.31142800  1
  C  340  1  0.15191200  0.88027600  0.32365700  1
  C  341  1  0.14201800  0.86956300  0.34039100  1
  C  342  1  0.10964400  0.86893800  0.34472400  1
  C  343  1  0.08717400  0.87904300  0.33306300  1
  C  344  1  0.09727100  0.88962800  0.31602100  1
  C  347  1  0.14149200  0.89879700  0.29359100  1
  C  348  1  0.14629700  0.88738500  0.27615100  1
  C  349  1  0.15513100  0.89722100  0.25840200  1
  C  350  1  0.15824000  0.91803400  0.25832500  1
  C  351  1  0.15316500  0.92945700  0.27540700  1
  C  352  1  0.14508200  0.91952700  0.29300900  1
  C  365  1  0.13006200  0.74465200  0.93768500  1
  C  366  1  0.15191900  0.73242900  0.92776700  1
  C  367  1  0.14202000  0.71571300  0.91702900  1
  C  368  1  0.10965300  0.71136000  0.91642600  1
  C  369  1  0.08718500  0.72300900  0.92654400  1
  C  370  1  0.09727700  0.74005400  0.93712900  1
  C  373  1  0.14149300  0.76248700  0.94629800  1
  C  374  1  0.14630100  0.77992800  0.93488600  1
  C  375  1  0.15514400  0.79767700  0.94472200  1
  C  376  1  0.15823700  0.79775500  0.96553700  1
  C  377  1  0.15314400  0.78067500  0.97695900  1
  C  378  1  0.14507000  0.76307200  0.96702900  1
  C  391  1  0.13006300  0.26392000  0.16589300  1
  C  392  1  0.15191900  0.27614900  0.17580200  1
  C  393  1  0.14202800  0.29289300  0.18649800  1
  C  394  1  0.10965500  0.29722900  0.18712100  1
  C  395  1  0.08718600  0.28557100  0.17701300  1
  C  396  1  0.09727900  0.26852000  0.16643900  1
  C  399  1  0.14149500  0.24608500  0.15727900  1
  C  400  1  0.14627800  0.22863900  0.16868500  1
  C  401  1  0.15508600  0.21088700  0.15884200  1
  C  402  1  0.15817900  0.21081400  0.13802600  1
  C  403  1  0.15310300  0.22790000  0.12660900  1
  C  404  1  0.14504900  0.24550200  0.13654500  1
  C  417  1  0.62833200  0.61782900  0.81276900  1
  C  418  1  0.65045200  0.62718700  0.82521600  1
  C  419  1  0.64094500  0.63783700  0.84210600  1
  C  420  1  0.60859000  0.63842100  0.84663300  1
  C  421  1  0.58585600  0.62904500  0.83456700  1
  C  422  1  0.59556200  0.61888800  0.81719900  1
  C  425  1  0.63963100  0.60910600  0.79498700  1
  C  426  1  0.64447100  0.62041700  0.77750000  1
  C  427  1  0.65306000  0.61043400  0.75979400  1
  C  428  1  0.65594100  0.58961200  0.75974100  1
  C  429  1  0.65094800  0.57834600  0.77699800  1
  C  430  1  0.64290500  0.58836300  0.79448000  1
  C  443  1  0.62831500  0.39074500  0.29079400  1
  C  444  1  0.65044000  0.38138400  0.27835000  1
  C  445  1  0.64093400  0.37072600  0.26146700  1
  C  446  1  0.60857500  0.37013800  0.25693900  1
  C  447  1  0.58584100  0.37951200  0.26900600  1
  C  448  1  0.59554600  0.38968000  0.28636700  1
  C  451  1  0.63961200  0.39946700  0.30857800  1
  C  452  1  0.64447600  0.38814800  0.32605800  1
  C  453  1  0.65308900  0.39812700  0.34376200  1
  C  454  1  0.65599300  0.41894800  0.34381600  1
  C  455  1  0.65094400  0.43022100  0.32657100  1
  C  456  1  0.64289800  0.42020900  0.30908600  1
  C  469  1  0.62833000  0.24329800  0.66532500  1
  C  470  1  0.65045400  0.23085500  0.67468700  1
  C  471  1  0.64094500  0.21397700  0.68535200  1
  C  472  1  0.60858700  0.20944700  0.68593600  1
  C  473  1  0.58585600  0.22150700  0.67655400  1
  C  474  1  0.59556000  0.23887100  0.66638800  1
  C  477  1  0.63962800  0.26108300  0.65660200  1
  C  478  1  0.64449400  0.27856100  0.66792000  1
  C  479  1  0.65311200  0.29626500  0.65794300  1
  C  480  1  0.65600500  0.29632100  0.63712000  1
  C  481  1  0.65098800  0.27907100  0.62585000  1
  C  482  1  0.64291200  0.26159100  0.63586100  1
  C  495  1  0.62832200  0.76526500  0.43823400  1
  C  496  1  0.65044700  0.77771400  0.42888200  1
  C  497  1  0.64094100  0.79460100  0.41823100  1
  C  498  1  0.60858000  0.79912000  0.41763300  1
  C  499  1  0.58584800  0.78705800  0.42701400  1
  C  500  1  0.59555000  0.76969300  0.43717800  1
  C  503  1  0.63962100  0.74748200  0.44695900  1
  C  504  1  0.64445200  0.72999600  0.43564900  1
  C  505  1  0.65303000  0.71229000  0.44563500  1
  C  506  1  0.65592500  0.71224000  0.46645700  1
  C  507  1  0.65093600  0.72949900  0.47772100  1
  C  508  1  0.64288300  0.74697700  0.46770300  1
  C  521  1  0.31684400  0.39074100  0.81276900  1
  C  522  1  0.29472300  0.38138300  0.82521600  1
  C  523  1  0.30423000  0.37073300  0.84210600  1
  C  524  1  0.33658600  0.37014900  0.84663300  1
  C  525  1  0.35932000  0.37952500  0.83456700  1
  C  526  1  0.34961300  0.38968200  0.81719900  1
  C  529  1  0.30554500  0.39946400  0.79498700  1
  C  530  1  0.30070500  0.38815300  0.77750000  1
  C  531  1  0.29211800  0.39813600  0.75979400  1
  C  532  1  0.28923400  0.41895800  0.75974100  1
  C  533  1  0.29422700  0.43022400  0.77699800  1
  C  534  1  0.30227100  0.42020700  0.79448000  1
  C  547  1  0.31686000  0.61782500  0.29079400  1
  C  548  1  0.29473500  0.62718600  0.27835000  1
  C  549  1  0.30424200  0.63784400  0.26146700  1
  C  550  1  0.33660000  0.63843200  0.25693900  1
  C  551  1  0.35933400  0.62905800  0.26900600  1
  C  552  1  0.34963000  0.61889000  0.28636700  1
  C  555  1  0.30556400  0.60910300  0.30857800  1
  C  556  1  0.30070000  0.62042200  0.32605800  1
  C  557  1  0.29208700  0.61044300  0.34376200  1
  C  558  1  0.28918200  0.58962200  0.34381600  1
  C  559  1  0.29423200  0.57834900  0.32657100  1
  C  560  1  0.30227800  0.58836100  0.30908600  1
  C  573  1  0.31684600  0.76527200  0.66532500  1
  C  574  1  0.29472100  0.77771500  0.67468700  1
  C  575  1  0.30423000  0.79459300  0.68535200  1
  C  576  1  0.33658800  0.79912300  0.68593600  1
  C  577  1  0.35932000  0.78706300  0.67655400  1
  C  578  1  0.34961600  0.76969900  0.66638800  1
  C  581  1  0.30554700  0.74748700  0.65660200  1
  C  582  1  0.30068100  0.73000900  0.66792000  1
  C  583  1  0.29206300  0.71230500  0.65794300  1
  C  584  1  0.28917100  0.71224900  0.63712000  1
  C  585  1  0.29418700  0.72949900  0.62585000  1
  C  586  1  0.30226400  0.74697900  0.63586100  1
  C  599  1  0.31685300  0.24330500  0.43823400  1
  C  600  1  0.29472800  0.23085600  0.42888200  1
  C  601  1  0.30423500  0.21396900  0.41823100  1
  C  602  1  0.33659500  0.20945000  0.41763300  1
  C  603  1  0.35932700  0.22151200  0.42701400  1
  C  604  1  0.34962500  0.23887700  0.43717800  1
  C  607  1  0.30555400  0.26108800  0.44695900  1
  C  608  1  0.30072300  0.27857400  0.43564900  1
  C  609  1  0.29214600  0.29628000  0.44563500  1
  C  610  1  0.28925000  0.29633000  0.46645700  1
  C  611  1  0.29423900  0.27907100  0.47772100  1
  C  612  1  0.30229200  0.26159300  0.46770400  1
  C  625  1  0.31605800  0.39026700  0.29205500  1
  C  626  1  0.29379200  0.38069300  0.27986200  1
  C  627  1  0.30304500  0.37032200  0.26275800  1
  C  628  1  0.33523800  0.37010500  0.25781900  1
  C  629  1  0.35816700  0.37966600  0.26959500  1
  C  630  1  0.34869400  0.38970700  0.28709700  1
  C  633  1  0.30506300  0.39886900  0.31000100  1
  C  634  1  0.30022000  0.38742600  0.32741100  1
  C  635  1  0.29159100  0.39724900  0.34520700  1
  C  636  1  0.28870500  0.41807500  0.34535300  1
  C  637  1  0.29380400  0.42952200  0.32829300  1
  C  638  1  0.30171100  0.41961200  0.31065100  1
  C  651  1  0.31607500  0.61830000  0.81151900  1
  C  652  1  0.29380200  0.62787600  0.82370900  1
  C  653  1  0.30305600  0.63826000  0.84080600  1
  C  654  1  0.33525500  0.63848800  0.84573800  1
  C  655  1  0.35818600  0.62892900  0.83396200  1
  C  656  1  0.34871000  0.61887300  0.81646900  1
  C  659  1  0.30507900  0.60970100  0.79357300  1
  C  660  1  0.30022000  0.62114900  0.77616700  1
  C  661  1  0.29157700  0.61132800  0.75837100  1
  C  662  1  0.28866500  0.59050400  0.75822700  1
  C  663  1  0.29375900  0.57905300  0.77528500  1
  C  664  1  0.30170200  0.58896000  0.79292400  1
  C  677  1  0.31606500  0.76401500  0.43777300  1
  C  678  1  0.29379400  0.77620400  0.42819500  1
  C  679  1  0.30304900  0.79329400  0.41780200  1
  C  680  1  0.33524300  0.79823300  0.41758300  1
  C  681  1  0.35817500  0.78646200  0.42715000  1
  C  682  1  0.34870100  0.76896600  0.43720200  1
  C  685  1  0.30507200  0.74606700  0.44637300  1
  C  686  1  0.30020800  0.72866300  0.43492400  1
  C  687  1  0.29155800  0.71086900  0.44474500  1
  C  688  1  0.28866500  0.71072000  0.46556900  1
  C  689  1  0.29377600  0.72777700  0.47702100  1
  C  690  1  0.30170900  0.74541600  0.46711400  1
  C  703  1  0.31607200  0.24455800  0.66580700  1
  C  704  1  0.29380200  0.23236500  0.67537400  1
  C  705  1  0.30305400  0.21526100  0.68574800  1
  C  706  1  0.33525000  0.21033200  0.68597800  1
  C  707  1  0.35818200  0.22210300  0.67641400  1
  C  708  1  0.34870800  0.23960400  0.66636700  1
  C  711  1  0.30507900  0.26250400  0.65720400  1
  C  712  1  0.30023900  0.27991500  0.66864700  1
  C  713  1  0.29162100  0.29771100  0.65882000  1
  C  714  1  0.28872600  0.29785500  0.63799600  1
  C  715  1  0.29382000  0.28079300  0.62655000  1
  C  716  1  0.30173700  0.26315400  0.63646100  1
  C  729  1  0.62911700  0.61830300  0.29205500  1
  C  730  1  0.65138300  0.62787700  0.27986200  1
  C  731  1  0.64213100  0.63824800  0.26275800  1
  C  732  1  0.60993700  0.63846500  0.25781900  1
  C  733  1  0.58700800  0.62890400  0.26959500  1
  C  734  1  0.59648200  0.61886300  0.28709700  1
  C  737  1  0.64011300  0.60970100  0.31000100  1
  C  738  1  0.64495500  0.62114400  0.32741100  1
  C  739  1  0.65358500  0.61132100  0.34520700  1
  C  740  1  0.65647100  0.59049500  0.34535300  1
  C  741  1  0.65137200  0.57904800  0.32829300  1
  C  742  1  0.64346400  0.58895800  0.31065100  1
  C  755  1  0.62910300  0.39027000  0.81151900  1
  C  756  1  0.65137400  0.38069400  0.82370900  1
  C  757  1  0.64211900  0.37031000  0.84080600  1
  C  758  1  0.60992300  0.37008200  0.84573800  1
  C  759  1  0.58699200  0.37964100  0.83396200  1
  C  760  1  0.59646500  0.38969800  0.81646900  1
  C  763  1  0.64009600  0.39886900  0.79357300  1
  C  764  1  0.64495500  0.38742100  0.77616700  1
  C  765  1  0.65360100  0.39724200  0.75837100  1
  C  766  1  0.65651100  0.41806600  0.75822700  1
  C  767  1  0.65141600  0.42951600  0.77528500  1
  C  768  1  0.64347400  0.41961000  0.79292400  1
  C  781  1  0.62911000  0.24455500  0.43777300  1
  C  782  1  0.65138100  0.23236600  0.42819500  1
  C  783  1  0.64212600  0.21527600  0.41780200  1
  C  784  1  0.60993300  0.21033700  0.41758300  1
  C  785  1  0.58700100  0.22210800  0.42715000  1
  C  786  1  0.59647500  0.23960400  0.43720200  1
  C  789  1  0.64010300  0.26250300  0.44637300  1
  C  790  1  0.64496700  0.27990700  0.43492400  1
  C  791  1  0.65361800  0.29770100  0.44474500  1
  C  792  1  0.65651100  0.29785000  0.46556900  1
  C  793  1  0.65140000  0.28079300  0.47702100  1
  C  794  1  0.64346700  0.26315400  0.46711400  1
  C  807  1  0.62910300  0.76401200  0.66580700  1
  C  808  1  0.65137400  0.77620500  0.67537400  1
  C  809  1  0.64212400  0.79330900  0.68574800  1
  C  810  1  0.60992500  0.79823800  0.68597800  1
  C  811  1  0.58699600  0.78646700  0.67641400  1
  C  812  1  0.59646800  0.76896800  0.66636700  1
  C  815  1  0.64009900  0.74606600  0.65720400  1
  C  816  1  0.64493700  0.72865500  0.66864700  1
  C  817  1  0.65355700  0.71085900  0.65882000  1
  C  818  1  0.65644900  0.71071500  0.63799600  1
  C  819  1  0.65135500  0.72777700  0.62655000  1
  C  820  1  0.64343800  0.74541600  0.63646100  1
  C  833  1  0.15965300  0.02484300  0.27099000  1
  C  834  1  0.17887200  0.01076400  0.26137800  1
  C  835  1  0.17702100  0.99029200  0.26566700  1
  C  836  1  0.15498900  0.98341200  0.27988800  1
  C  837  1  0.13563800  0.99751200  0.28940700  1
  C  839  1  0.13783500  0.01775500  0.28504200  1
  C  845  1  0.16210900  0.04484000  0.26621100  1
  C  847  1  0.15239000  0.96367300  0.28563600  1
  C  849  1  0.15965700  0.98372800  0.83258000  1
  C  850  1  0.17886800  0.99781000  0.84219500  1
  C  851  1  0.17701000  0.01828000  0.83790500  1
  C  852  1  0.15498100  0.02515700  0.82368000  1
  C  853  1  0.13564000  0.01105400  0.81415800  1
  C  855  1  0.13784400  0.99081100  0.81852400  1
  C  861  1  0.16211400  0.96373100  0.83736200  1
  C  863  1  0.15236600  0.04489700  0.81793500  1
  C  865  1  0.15968800  0.78508100  0.07234600  1
  C  866  1  0.17891000  0.79468800  0.05826300  1
  C  867  1  0.17704300  0.79040000  0.03779200  1
  C  868  1  0.15499300  0.77618700  0.03091500  1
  C  869  1  0.13564000  0.76667600  0.04501900  1
  C  871  1  0.13785300  0.77104000  0.06526200  1
  C  877  1  0.16216000  0.78985800  0.09234200  1
  C  879  1  0.15236900  0.77044400  0.01117500  1
  C  881  1  0.15964600  0.22350100  0.03122500  1
  C  882  1  0.17886100  0.21389000  0.04530800  1
  C  883  1  0.17699800  0.21817800  0.06577900  1
  C  884  1  0.15496000  0.23239600  0.07265500  1
  C  885  1  0.13561500  0.24191400  0.05855200  1
  C  887  1  0.13782400  0.23755100  0.03830900  1
  C  893  1  0.16211100  0.21872200  0.01122900  1
  C  895  1  0.15233700  0.23813900  0.09239600  1
  C  897  1  0.78552200  0.98372600  0.27099000  1
  C  898  1  0.76630200  0.99780700  0.26137800  1
  C  899  1  0.76815600  0.01827700  0.26566700  1
  C  900  1  0.79018600  0.02515700  0.27988800  1
  C  901  1  0.80953800  0.01105800  0.28940700  1
  C  903  1  0.80734200  0.99081400  0.28504200  1
  C  909  1  0.78306700  0.96373100  0.26621100  1
  C  911  1  0.79278500  0.04489700  0.28563600  1
  C  913  1  0.78551800  0.02484300  0.83258000  1
  C  914  1  0.76630900  0.01076000  0.84219500  1
  C  915  1  0.76816500  0.99028900  0.83790500  1
  C  916  1  0.79019600  0.98341300  0.82368000  1
  C  917  1  0.80953600  0.99751600  0.81415800  1
  C  919  1  0.80733200  0.01775900  0.81852400  1
  C  925  1  0.78306200  0.04483900  0.83736200  1
  C  927  1  0.79280900  0.96367300  0.81793500  1
  C  929  1  0.78548700  0.22348900  0.07234600  1
  C  930  1  0.76626500  0.21388200  0.05826300  1
  C  931  1  0.76813200  0.21817000  0.03779200  1
  C  932  1  0.79018200  0.23238300  0.03091500  1
  C  933  1  0.80953600  0.24189400  0.04501900  1
  C  935  1  0.80732300  0.23753000  0.06526200  1
  C  941  1  0.78301500  0.21871200  0.09234200  1
  C  943  1  0.79280600  0.23812600  0.01117500  1
  C  945  1  0.78552900  0.78506900  0.03122500  1
  C  946  1  0.76631400  0.79468000  0.04530800  1
  C  947  1  0.76817700  0.79039200  0.06577900  1
  C  948  1  0.79021700  0.77617400  0.07265500  1
  C  949  1  0.80955900  0.76665600  0.05855200  1
  C  951  1  0.80735100  0.77101900  0.03830900  1
  C  957  1  0.78306500  0.78984800  0.01122900  1
  C  959  1  0.79283900  0.77043100  0.09239600  1
  C  961  1  0.65780700  0.52486100  0.77075200  1
  C  962  1  0.67723100  0.51079800  0.76127900  1
  C  963  1  0.67538000  0.49033300  0.76559200  1
  C  964  1  0.65314300  0.48345400  0.77968400  1
  C  965  1  0.63358100  0.49753400  0.78905800  1
  C  967  1  0.63578000  0.51776900  0.78467200  1
  C  973  1  0.66030200  0.54485200  0.76598900  1
  C  975  1  0.65055800  0.46373100  0.78546600  1
  C  977  1  0.65780900  0.48370600  0.33281900  1
  C  978  1  0.67722700  0.49777100  0.34229100  1
  C  979  1  0.67537100  0.51823500  0.33797800  1
  C  980  1  0.65313100  0.52511100  0.32388400  1
  C  981  1  0.63357900  0.51102900  0.31451000  1
  C  983  1  0.63578300  0.49079300  0.31889700  1
  C  989  1  0.66030700  0.46371400  0.33758400  1
  C  991  1  0.65053200  0.54483400  0.31810700  1
  C  993  1  0.65784200  0.28532000  0.57236500  1
  C  994  1  0.67726900  0.29478600  0.55829900  1
  C  995  1  0.67540400  0.29047400  0.53783400  1
  C  996  1  0.65314700  0.27639200  0.53095800  1
  C  997  1  0.63358600  0.26702500  0.54504200  1
  C  999  1  0.63579900  0.27140900  0.56527800  1
  C  1005  1  0.66035400  0.29008000  0.59235700  1
  C  1007  1  0.65054100  0.27061400  0.51123500  1
  C  1009  1  0.65779700  0.72325800  0.53120700  1
  C  1010  1  0.67721700  0.71378700  0.54527400  1
  C  1011  1  0.67535700  0.71809900  0.56573800  1
  C  1012  1  0.65311000  0.73218900  0.57261400  1
  C  1013  1  0.63355800  0.74156100  0.55853000  1
  C  1015  1  0.63576600  0.73717700  0.53829400  1
  C  1021  1  0.66030400  0.71849500  0.51121500  1
  C  1023  1  0.65050400  0.73796400  0.59233700  1
  C  1025  1  0.28736900  0.48370900  0.77075200  1
  C  1026  1  0.26794400  0.49777200  0.76127900  1
  C  1027  1  0.26979500  0.51823700  0.76559200  1
  C  1028  1  0.29203500  0.52511600  0.77968400  1
  C  1029  1  0.31159400  0.51103600  0.78905800  1
  C  1031  1  0.30939500  0.49080100  0.78467200  1
  C  1037  1  0.28487400  0.46371800  0.76598900  1
  C  1039  1  0.29461800  0.54483900  0.78546600  1
  C  1041  1  0.28736700  0.52486400  0.33281900  1
  C  1042  1  0.26794900  0.51079900  0.34229100  1
  C  1043  1  0.26980500  0.49033500  0.33797800  1
  C  1044  1  0.29204500  0.48345900  0.32388400  1
  C  1045  1  0.31159600  0.49754100  0.31451000  1
  C  1047  1  0.30939300  0.51777700  0.31889700  1
  C  1053  1  0.28486900  0.54485600  0.33758400  1
  C  1055  1  0.29464400  0.46373600  0.31810700  1
  C  1057  1  0.28733400  0.72325000  0.57236500  1
  C  1058  1  0.26790600  0.71378400  0.55829900  1
  C  1059  1  0.26977200  0.71809600  0.53783400  1
  C  1060  1  0.29202800  0.73217800  0.53095800  1
  C  1061  1  0.31158900  0.74154500  0.54504200  1
  C  1063  1  0.30937600  0.73716100  0.56527800  1
  C  1069  1  0.28482200  0.71849000  0.59235700  1
  C  1071  1  0.29463400  0.73795600  0.51123500  1
  C  1073  1  0.28737800  0.28531200  0.53120700  1
  C  1074  1  0.26795800  0.29478300  0.54527400  1
  C  1075  1  0.26981900  0.29047100  0.56573800  1
  C  1076  1  0.29206600  0.27638100  0.57261400  1
  C  1077  1  0.31162000  0.26700900  0.55853000  1
  C  1079  1  0.30940900  0.27139300  0.53829400  1
  C  1085  1  0.28487400  0.29007500  0.51121600  1
  C  1087  1  0.29467200  0.27060600  0.59233700  1
  C  1089  1  0.20489500  0.16096800  0.36935300  1
  C  1090  1  0.22799100  0.15460500  0.38295000  1
  C  1091  1  0.24529000  0.16811200  0.39471600  1
  C  1092  1  0.23988100  0.18871700  0.39266200  1
  C  1093  1  0.21677400  0.19503000  0.37899500  1
  C  1095  1  0.19966100  0.18146000  0.36753600  1
  C  1101  1  0.18903800  0.14733600  0.35764600  1
  C  1103  1  0.25514500  0.20298100  0.40401300  1
  C  1105  1  0.20488300  0.84759900  0.73422200  1
  C  1106  1  0.22796900  0.85395600  0.72061400  1
  C  1107  1  0.24527400  0.84044300  0.70885700  1
  C  1108  1  0.23987800  0.81984000  0.71093100  1
  C  1109  1  0.21678200  0.81353100  0.72460800  1
  C  1111  1  0.19966500  0.82710700  0.73605600  1
  C  1117  1  0.18901800  0.86123900  0.74591500  1
  C  1119  1  0.25514700  0.80556900  0.69958800  1
  C  1121  1  0.20489700  0.68673700  0.20848100  1
  C  1122  1  0.22798300  0.67313300  0.20211700  1
  C  1123  1  0.24528500  0.66136800  0.21562200  1
  C  1124  1  0.23989000  0.66343000  0.23622700  1
  C  1125  1  0.21679500  0.67710200  0.24254300  1
  C  1127  1  0.19967900  0.68856100  0.22897300  1
  C  1133  1  0.18903500  0.69844200  0.19484800  1
  C  1135  1  0.25515400  0.65207800  0.25049200  1
  C  1137  1  0.20489000  0.32185400  0.89510600  1
  C  1138  1  0.22797500  0.33546100  0.90146700  1
  C  1139  1  0.24527600  0.34722400  0.88795700  1
  C  1140  1  0.23987800  0.34515700  0.86735400  1
  C  1141  1  0.21678500  0.33148000  0.86104300  1
  C  1143  1  0.19967100  0.32002500  0.87461500  1
  C  1149  1  0.18902900  0.31015300  0.90874300  1
  C  1151  1  0.25514500  0.35650300  0.85308600  1
  C  1153  1  0.74028000  0.84760200  0.36935300  1
  C  1154  1  0.71718400  0.85396500  0.38295000  1
  C  1155  1  0.69988500  0.84045800  0.39471600  1
  C  1156  1  0.70529500  0.81985300  0.39266200  1
  C  1157  1  0.72840300  0.81354000  0.37899500  1
  C  1159  1  0.74551300  0.82711000  0.36753600  1
  C  1165  1  0.75613700  0.86123500  0.35764600  1
  C  1167  1  0.69003100  0.80558900  0.40401300  1
  C  1169  1  0.74029200  0.16097100  0.73422200  1
  C  1170  1  0.71720800  0.15461400  0.72061400  1
  C  1171  1  0.69990400  0.16812700  0.70885700  1
  C  1172  1  0.70529700  0.18873000  0.71093100  1
  C  1173  1  0.72839300  0.19503900  0.72460600  1
  C  1175  1  0.74551100  0.18146300  0.73605600  1
  C  1181  1  0.75615800  0.14733100  0.74591500  1
  C  1183  1  0.69002800  0.20300100  0.69958800  1
  C  1185  1  0.74027800  0.32183300  0.20848100  1
  C  1186  1  0.71719300  0.33543700  0.20211700  1
  C  1187  1  0.69989000  0.34720200  0.21562200  1
  C  1188  1  0.70528500  0.34514000  0.23622700  1
  C  1189  1  0.72838200  0.33146800  0.24254300  1
  C  1191  1  0.74549700  0.32000900  0.22897300  1
  C  1197  1  0.75613900  0.31012800  0.19484800  1
  C  1199  1  0.69002100  0.35649200  0.25049200  1
  C  1201  1  0.74028500  0.68671600  0.89510600  1
  C  1202  1  0.71720000  0.67310900  0.90146700  1
  C  1203  1  0.69989900  0.66134600  0.88795700  1
  C  1204  1  0.70529700  0.66341300  0.86735400  1
  C  1205  1  0.72839100  0.67709000  0.86104300  1
  C  1207  1  0.74550400  0.68854500  0.87461500  1
  C  1213  1  0.75614600  0.69841700  0.90874300  1
  C  1215  1  0.69003100  0.65206500  0.85308600  1
  C  1217  1  0.73934400  0.84657700  0.73569400  1
  C  1218  1  0.71613000  0.85285700  0.72214100  1
  C  1219  1  0.69958900  0.83933200  0.70997400  1
  C  1220  1  0.70592300  0.81878700  0.71155300  1
  C  1221  1  0.72916700  0.81255700  0.72516100  1
  C  1223  1  0.74552300  0.82615000  0.73702200  1
  C  1229  1  0.75459900  0.86021100  0.74770700  1
  C  1231  1  0.69125600  0.80454100  0.69987400  1
  C  1233  1  0.73935800  0.16199900  0.36786800  1
  C  1234  1  0.71615400  0.15572400  0.38143100  1
  C  1235  1  0.69960800  0.16925500  0.39359000  1
  C  1236  1  0.70592500  0.18980100  0.39199000  1
  C  1237  1  0.72915800  0.19602600  0.37837300  1
  C  1239  1  0.74551800  0.18242800  0.36652000  1
  C  1245  1  0.75462000  0.14835700  0.35586800  1
  C  1247  1  0.69125600  0.20405600  0.40366100  1
  C  1249  1  0.73934400  0.32034900  0.89406000  1
  C  1250  1  0.71613700  0.33390700  0.90034400  1
  C  1251  1  0.69959400  0.34607400  0.88682000  1
  C  1252  1  0.70591300  0.34448900  0.86627300  1
  C  1253  1  0.72915100  0.33087800  0.86004000  1
  C  1255  1  0.74551100  0.31901500  0.87363300  1
  C  1261  1  0.75460100  0.30833600  0.90769300  1
  C  1263  1  0.69124900  0.35617000  0.85202700  1
  C  1265  1  0.73935100  0.68819400  0.20948500  1
  C  1266  1  0.71614900  0.67463100  0.20320800  1
  C  1267  1  0.69960800  0.66246700  0.21673600  1
  C  1268  1  0.70592500  0.66406100  0.23728100  1
  C  1269  1  0.72915500  0.67767900  0.24351000  1
  C  1271  1  0.74551300  0.68953700  0.22991400  1
  C  1277  1  0.75460600  0.70020200  0.19584800  1
  C  1279  1  0.69126100  0.65238500  0.25153300  1
  C  1281  1  0.20583100  0.16199300  0.73569400  1
  C  1282  1  0.22904600  0.15571300  0.72214100  1
  C  1283  1  0.24558600  0.16923800  0.70997400  1
  C  1284  1  0.23925300  0.18978300  0.71155300  1
  C  1285  1  0.21600900  0.19601300  0.72516100  1
  C  1287  1  0.19965300  0.18242000  0.73702200  1
  C  1293  1  0.19057700  0.14835900  0.74770700  1
  C  1295  1  0.25391900  0.20402900  0.69987400  1
  C  1297  1  0.20581800  0.84657100  0.36786800  1
  C  1298  1  0.22902200  0.85284600  0.38143100  1
  C  1299  1  0.24556800  0.83931500  0.39359000  1
  C  1300  1  0.23925000  0.81876900  0.39199000  1
  C  1301  1  0.21601800  0.81254400  0.37837300  1
  C  1303  1  0.19965700  0.82614200  0.36652000  1
  C  1309  1  0.19055500  0.86021300  0.35586800  1
  C  1311  1  0.25391900  0.80451400  0.40366100  1
  C  1313  1  0.20583200  0.68822100  0.89406200  1
  C  1314  1  0.22903900  0.67466300  0.90034400  1
  C  1315  1  0.24558200  0.66249600  0.88682000  1
  C  1316  1  0.23926200  0.66408100  0.86627300  1
  C  1317  1  0.21602500  0.67769200  0.86004000  1
  C  1319  1  0.19966600  0.68955500  0.87363300  1
  C  1325  1  0.19057400  0.70023400  0.90769300  1
  C  1327  1  0.25392600  0.65240000  0.85202700  1
  C  1329  1  0.20582600  0.32037600  0.20948500  1
  C  1330  1  0.22902700  0.33393900  0.20320800  1
  C  1331  1  0.24556800  0.34610300  0.21673600  1
  C  1332  1  0.23925000  0.34450900  0.23728100  1
  C  1333  1  0.21602000  0.33089100  0.24351000  1
  C  1335  1  0.19966300  0.31903300  0.22991400  1
  C  1341  1  0.19056900  0.30836800  0.19584800  1
  C  1343  1  0.25391500  0.35618500  0.25153200  1
  C  1345  1  0.17032900  0.13345300  0.21219700  1
  C  1346  1  0.19521600  0.13498400  0.19845500  1
  C  1347  1  0.19539700  0.14953600  0.18343300  1
  C  1348  1  0.16991700  0.16302800  0.18191200  1
  C  1349  1  0.14509800  0.16160800  0.19576800  1
  C  1351  1  0.14531400  0.14712300  0.21063700  1
  C  1357  1  0.17080500  0.11863200  0.22643400  1
  C  1359  1  0.16859300  0.17682400  0.16669400  1
  C  1361  1  0.17038500  0.87510000  0.89134700  1
  C  1362  1  0.19526700  0.87357500  0.90509300  1
  C  1363  1  0.19544700  0.85902700  0.92011800  1
  C  1364  1  0.16997200  0.84553200  0.92163800  1
  C  1365  1  0.14515700  0.84694400  0.90777900  1
  C  1367  1  0.14537400  0.86142600  0.89290600  1
  C  1373  1  0.17086300  0.88991800  0.87710900  1
  C  1375  1  0.16864900  0.83173700  0.93686100  1
  C  1377  1  0.17038800  0.84385200  0.18097400  1
  C  1378  1  0.19527800  0.85759200  0.18250900  1
  C  1379  1  0.19545400  0.87261500  0.19705900  1
  C  1380  1  0.16996700  0.87414000  0.21054700  1
  C  1381  1  0.14514500  0.86028600  0.20912200  1
  C  1383  1  0.14536600  0.84541700  0.19463900  1
  C  1389  1  0.17087300  0.82961500  0.16615400  1
  C  1391  1  0.16864100  0.88936100  0.22434200  1
  C  1393  1  0.17032300  0.16470200  0.92261700  1
  C  1394  1  0.19521600  0.15096300  0.92109000  1
  C  1395  1  0.19540500  0.13594100  0.90653700  1
  C  1396  1  0.16992900  0.13441500  0.89304300  1
  C  1397  1  0.14510400  0.14826900  0.89446200  1
  C  1399  1  0.14531100  0.16313700  0.90894500  1
  C  1405  1  0.17078700  0.17893600  0.93744000  1
  C  1407  1  0.16861600  0.11919700  0.87924500  1
  C  1409  1  0.77484700  0.87511600  0.21219700  1
  C  1410  1  0.74995900  0.87358600  0.19845500  1
  C  1411  1  0.74978000  0.85903400  0.18343300  1
  C  1412  1  0.77525800  0.84554200  0.18191200  1
  C  1413  1  0.80007900  0.84696200  0.19576800  1
  C  1415  1  0.79986200  0.86144700  0.21063700  1
  C  1421  1  0.77436900  0.88993800  0.22643400  1
  C  1423  1  0.77658300  0.83174600  0.16669400  1
  C  1425  1  0.77479000  0.13347000  0.89134700  1
  C  1426  1  0.74990900  0.13499400  0.90509300  1
  C  1427  1  0.74972800  0.14954300  0.92011800  1
  C  1428  1  0.77520400  0.16303800  0.92163800  1
  C  1429  1  0.80001800  0.16162600  0.90777900  1
  C  1431  1  0.79980100  0.14714300  0.89290600  1
  C  1437  1  0.77431300  0.11865100  0.87710900  1
  C  1439  1  0.77652600  0.17683300  0.93686100  1
  C  1441  1  0.77478800  0.16471800  0.18097400  1
  C  1442  1  0.74989700  0.15097800  0.18250900  1
  C  1443  1  0.74972100  0.13595500  0.19705900  1
  C  1444  1  0.77520900  0.13442900  0.21054700  1
  C  1445  1  0.80003200  0.14828400  0.20912200  1
  C  1447  1  0.79981100  0.16315300  0.19463900  1
  C  1453  1  0.77430400  0.17895500  0.16615400  1
  C  1455  1  0.77653600  0.11920900  0.22434200  1
  C  1457  1  0.77485200  0.84386800  0.92261700  1
  C  1458  1  0.74996100  0.85760700  0.92109000  1
  C  1459  1  0.74977000  0.87262900  0.90653700  1
  C  1460  1  0.77524700  0.87415500  0.89304300  1
  C  1461  1  0.80007200  0.86030100  0.89446200  1
  C  1463  1  0.79986500  0.84543300  0.90894500  1
  C  1469  1  0.77438800  0.82963400  0.93744000  1
  C  1471  1  0.77655900  0.88937300  0.87924500  1
  C  1473  1  0.66895700  0.63350100  0.71220200  1
  C  1474  1  0.69401500  0.63513800  0.69859400  1
  C  1475  1  0.69423100  0.64969200  0.68357600  1
  C  1476  1  0.66861400  0.66306700  0.68192400  1
  C  1477  1  0.64361700  0.66153000  0.69564100  1
  C  1479  1  0.64380100  0.64704800  0.71050800  1
  C  1485  1  0.66940900  0.61869600  0.72644600  1
  C  1487  1  0.66734400  0.67687200  0.66666667  1
  C  1489  1  0.66901100  0.37505400  0.39135000  1
  C  1490  1  0.69406400  0.37342000  0.40495900  1
  C  1491  1  0.69428300  0.35886900  0.41998000  1
  C  1492  1  0.66867000  0.34549000  0.42163200  1
  C  1493  1  0.64367600  0.34702200  0.40791200  1
  C  1495  1  0.64385700  0.36150200  0.39304200  1
  C  1501  1  0.66946300  0.38985600  0.37710200  1
  C  1503  1  0.66740300  0.33168600  0.43683900  1
  C  1505  1  0.66901600  0.34385300  0.68101900  1
  C  1506  1  0.69407600  0.35745600  0.68266300  1
  C  1507  1  0.69428800  0.37247600  0.69721600  1
  C  1508  1  0.66866300  0.37413400  0.71058300  1
  C  1509  1  0.64366200  0.36042000  0.70904000  1
  C  1511  1  0.64385000  0.34555200  0.69456000  1
  C  1517  1  0.66947700  0.32960500  0.66621700  1
  C  1519  1  0.66739100  0.38934000  0.72438800  1
  C  1521  1  0.66895000  0.66470100  0.42256800  1
  C  1522  1  0.69401300  0.65109800  0.42093300  1
  C  1523  1  0.69424100  0.63608000  0.40637700  1
  C  1524  1  0.66862800  0.63442400  0.39300100  1
  C  1525  1  0.64362400  0.64813700  0.39453500  1
  C  1527  1  0.64379600  0.66300400  0.40901800  1
  C  1533  1  0.66938800  0.67894200  0.43737600  1
  C  1535  1  0.66736700  0.61922000  0.37919300  1
  C  1537  1  0.27621800  0.37506900  0.71220200  1
  C  1538  1  0.25116100  0.37343200  0.69859400  1
  C  1539  1  0.25094400  0.35887800  0.68357600  1
  C  1540  1  0.27656200  0.34550300  0.68192400  1
  C  1541  1  0.30155800  0.34704000  0.69564100  1
  C  1543  1  0.30137700  0.36152200  0.71050800  1
  C  1549  1  0.27576700  0.38987400  0.72644600  1
  C  1551  1  0.27783200  0.33169800  0.66666667  1
  C  1553  1  0.27616400  0.63351600  0.39135000  1
  C  1554  1  0.25111100  0.63515000  0.40495900  1
  C  1555  1  0.25089200  0.64970100  0.41998000  1
  C  1556  1  0.27650500  0.66308000  0.42163200  1
  C  1557  1  0.30149900  0.66154800  0.40791200  1
  C  1559  1  0.30131800  0.64706800  0.39304200  1
  C  1565  1  0.27571300  0.61871400  0.37710200  1
  C  1567  1  0.27777300  0.67688400  0.43683900  1
  C  1569  1  0.27616000  0.66471700  0.68101900  1
  C  1570  1  0.25109900  0.65111400  0.68266300  1
  C  1571  1  0.25088800  0.63609400  0.69721600  1
  C  1572  1  0.27651200  0.63443600  0.71058300  1
  C  1573  1  0.30151400  0.64815000  0.70904000  1
  C  1575  1  0.30132500  0.66301800  0.69456000  1
  C  1581  1  0.27570100  0.67896500  0.66621700  1
  C  1583  1  0.27778500  0.61923000  0.72438800  1
  C  1585  1  0.27622500  0.34386900  0.42256800  1
  C  1586  1  0.25116300  0.35747200  0.42093300  1
  C  1587  1  0.25093500  0.37249000  0.40637700  1
  C  1588  1  0.27654800  0.37414600  0.39300100  1
  C  1589  1  0.30155100  0.36043300  0.39453500  1
  C  1591  1  0.30138000  0.34556600  0.40901800  1
  C  1597  1  0.27578800  0.32962800  0.43737600  1
  C  1599  1  0.27780800  0.38935000  0.37919300  1
  C  1601  1  0.00560800  0.13379000  0.35186400  1
  C  1602  1  0.98818800  0.12812600  0.36869400  1
  C  1603  1  0.95485400  0.12835000  0.36888300  1
  C  1604  1  0.93817800  0.13446500  0.35177400  1
  C  1605  1  0.95557600  0.13995400  0.33483900  1
  C  1607  1  0.98867700  0.13960300  0.33487300  1
  C  1613  1  0.03834500  0.13379100  0.35257700  1
  C  1615  1  0.90551400  0.13588600  0.35187900  1
  C  1617  1  0.00558900  0.87478200  0.75169700  1
  C  1618  1  0.98817200  0.88042800  0.73486000  1
  C  1619  1  0.95484000  0.88020700  0.73467000  1
  C  1620  1  0.93816000  0.87411500  0.75178600  1
  C  1621  1  0.95555500  0.86864100  0.76872900  1
  C  1623  1  0.98865600  0.86899100  0.76869600  1
  C  1629  1  0.03832600  0.87478900  0.75098800  1
  C  1631  1  0.90549600  0.87269700  0.75168100  1
  C  1633  1  0.00560000  0.70420200  0.18129200  1
  C  1634  1  0.98818300  0.68736100  0.17566100  1
  C  1635  1  0.95485100  0.68717100  0.17588200  1
  C  1636  1  0.93816900  0.70428900  0.18196000  1
  C  1637  1  0.95556400  0.72123800  0.18741800  1
  C  1639  1  0.98866500  0.72120600  0.18706800  1
  C  1645  1  0.03833600  0.70349300  0.18128800  1
  C  1647  1  0.90550500  0.70418500  0.18337700  1
  C  1649  1  0.00559900  0.30436200  0.92227800  1
  C  1650  1  0.98817900  0.32120000  0.92791700  1
  C  1651  1  0.95484400  0.32139000  0.92769200  1
  C  1652  1  0.93816900  0.30427300  0.92160300  1
  C  1653  1  0.95556600  0.28732900  0.91613800  1
  C  1655  1  0.98866500  0.28736300  0.91649100  1
  C  1661  1  0.03833500  0.30507400  0.92228300  1
  C  1663  1  0.90550500  0.30437800  0.92018300  1
  C  1665  1  0.93956800  0.87478000  0.35186300  1
  C  1666  1  0.95698900  0.88044400  0.36869400  1
  C  1667  1  0.99032100  0.88022000  0.36888300  1
  C  1668  1  0.00699700  0.87410500  0.35177400  1
  C  1669  1  0.98959900  0.86861600  0.33483900  1
  C  1671  1  0.95650000  0.86896700  0.33487300  1
  C  1677  1  0.90683200  0.87477900  0.35257700  1
  C  1679  1  0.03966100  0.87268300  0.35187900  1
  C  1681  1  0.93958700  0.13378800  0.75169700  1
  C  1682  1  0.95700300  0.12814200  0.73486000  1
  C  1683  1  0.99033800  0.12836300  0.73467000  1
  C  1684  1  0.00701600  0.13445600  0.75178600  1
  C  1685  1  0.98962000  0.13992800  0.76872900  1
  C  1687  1  0.95652100  0.13957900  0.76869600  1
  C  1693  1  0.90685000  0.13378100  0.75098800  1
  C  1695  1  0.03968000  0.13587300  0.75168100  1
  C  1697  1  0.93957500  0.30436800  0.18129200  1
  C  1698  1  0.95699200  0.32120900  0.17565900  1
  C  1699  1  0.99032600  0.32139900  0.17588200  1
  C  1700  1  0.00700600  0.30428100  0.18196000  1
  C  1701  1  0.98961100  0.28733200  0.18741800  1
  C  1703  1  0.95651200  0.28736400  0.18706800  1
  C  1709  1  0.90683900  0.30507700  0.18128800  1
  C  1711  1  0.03966900  0.30438500  0.18337600  1
  C  1713  1  0.93957800  0.70420800  0.92227800  1
  C  1714  1  0.95699600  0.68737000  0.92791700  1
  C  1715  1  0.99033100  0.68718000  0.92769200  1
  C  1716  1  0.00700700  0.70429700  0.92160300  1
  C  1717  1  0.98961100  0.72124100  0.91613800  1
  C  1719  1  0.95651000  0.72120700  0.91649100  1
  C  1725  1  0.90684100  0.70349600  0.92228300  1
  C  1727  1  0.03967100  0.70419200  0.92018300  1
  C  1729  1  0.50564000  0.63327300  0.85321100  1
  C  1730  1  0.48821200  0.62776700  0.87009200  1
  C  1731  1  0.45486600  0.62795100  0.87026900  1
  C  1732  1  0.43816700  0.63386100  0.85309600  1
  C  1733  1  0.45558100  0.63919300  0.83611300  1
  C  1735  1  0.48868200  0.63888400  0.83616100  1
  C  1741  1  0.53839800  0.63333600  0.85390100  1
  C  1743  1  0.40547900  0.63525300  0.85315100  1
  C  1745  1  0.50562600  0.37529400  0.25035000  1
  C  1746  1  0.48820200  0.38078100  0.23346100  1
  C  1747  1  0.45485600  0.38060400  0.23328500  1
  C  1748  1  0.43815300  0.37472100  0.25046600  1
  C  1749  1  0.45556400  0.36940500  0.26745400  1
  C  1751  1  0.48866300  0.36970800  0.26740900  1
  C  1757  1  0.53838100  0.37523100  0.24966200  1
  C  1759  1  0.40546300  0.37333500  0.25040900  1
  C  1761  1  0.50564000  0.20285700  0.68077500  1
  C  1762  1  0.48821400  0.18596400  0.67530200  1
  C  1763  1  0.45486800  0.18578800  0.67548300  1
  C  1764  1  0.43816500  0.20297200  0.68135600  1
  C  1765  1  0.45557800  0.21996500  0.68665700  1
  C  1767  1  0.48867700  0.21991900  0.68635100  1
  C  1773  1  0.53839500  0.20216800  0.68083600  1
  C  1775  1  0.40547700  0.20291700  0.68274700  1
  C  1777  1  0.50563300  0.80570900  0.42279500  1
  C  1778  1  0.48820700  0.82259900  0.42827900  1
  C  1779  1  0.45486100  0.82277600  0.42809600  1
  C  1780  1  0.43815700  0.80559500  0.42221100  1
  C  1781  1  0.45557100  0.78860500  0.41690100  1
  C  1783  1  0.48867000  0.78865100  0.41721000  1
  C  1789  1  0.53838800  0.80639900  0.42273000  1
  C  1791  1  0.40547000  0.80565000  0.42082200  1
  C  1793  1  0.43953600  0.37529700  0.85321100  1
  C  1794  1  0.45696400  0.38080300  0.87009200  1
  C  1795  1  0.49031000  0.38061900  0.87026900  1
  C  1796  1  0.50700900  0.37470900  0.85309600  1
  C  1797  1  0.48959500  0.36937700  0.83611300  1
  C  1799  1  0.45649300  0.36968600  0.83616100  1
  C  1805  1  0.40677800  0.37523400  0.85390100  1
  C  1807  1  0.53969600  0.37331700  0.85315100  1
  C  1809  1  0.43955000  0.63327600  0.25035000  1
  C  1810  1  0.45697300  0.62778900  0.23346100  1
  C  1811  1  0.49031900  0.62796600  0.23328500  1
  C  1812  1  0.50702300  0.63384900  0.25046600  1
  C  1813  1  0.48961100  0.63916500  0.26745400  1
  C  1815  1  0.45651200  0.63886200  0.26740900  1
  C  1821  1  0.40679400  0.63333900  0.24966200  1
  C  1823  1  0.53971300  0.63523500  0.25040900  1
  C  1825  1  0.43953600  0.80571300  0.68077500  1
  C  1826  1  0.45696100  0.82260600  0.67530200  1
  C  1827  1  0.49030700  0.82278200  0.67548300  1
  C  1828  1  0.50701100  0.80559800  0.68135600  1
  C  1829  1  0.48959700  0.78860500  0.68665700  1
  C  1831  1  0.45649800  0.78865100  0.68635100  1
  C  1837  1  0.40678000  0.80640200  0.68083600  1
  C  1839  1  0.53969800  0.80565300  0.68274700  1
  C  1841  1  0.43954300  0.20286100  0.42279500  1
  C  1842  1  0.45696800  0.18597100  0.42827900  1
  C  1843  1  0.49031400  0.18579400  0.42809600  1
  C  1844  1  0.50701800  0.20297500  0.42221100  1
  C  1845  1  0.48960400  0.21996500  0.41690100  1
  C  1847  1  0.45650500  0.21991900  0.41721000  1
  C  1853  1  0.40678700  0.20217100  0.42273000  1
  C  1855  1  0.53970500  0.20292000  0.42082200  1
  N  17  1  0.07500600  0.10991400  0.30459300  1
  N  18  1  0.14165600  0.14041600  0.27749600  1
  N  23  1  0.15324900  0.05865900  0.27800200  1
  N  24  1  0.15777000  0.12100400  0.24336500  1
  N  25  1  0.05513200  0.13090700  0.33708000  1
  N  26  1  0.15994500  0.14950000  0.35280800  1
  N  43  1  0.07498700  0.89865400  0.79897700  1
  N  44  1  0.14166000  0.86815300  0.82604800  1
  N  49  1  0.15325500  0.94991200  0.82557200  1
  N  50  1  0.15781100  0.88755300  0.86018200  1
  N  51  1  0.05511500  0.87767000  0.76648500  1
  N  52  1  0.15993100  0.85907000  0.75076400  1
  N  69  1  0.07499700  0.75147600  0.15741000  1
  N  70  1  0.14167000  0.77855600  0.18791800  1
  N  75  1  0.15328700  0.77807000  0.10616100  1
  N  76  1  0.15782000  0.81268700  0.16851800  1
  N  77  1  0.05512500  0.71898800  0.17839800  1
  N  78  1  0.15994700  0.70328500  0.19702000  1
  N  95  1  0.07499600  0.25708600  0.94614900  1
  N  96  1  0.14164300  0.23000000  0.91565000  1
  N  101  1  0.15324300  0.23050800  0.99740900  1
  N  102  1  0.15774600  0.19586600  0.93506700  1
  N  103  1  0.05512500  0.28957800  0.92516400  1
  N  104  1  0.15994000  0.30531000  0.90657500  1
  N  121  1  0.87016900  0.89865500  0.30459300  1
  N  122  1  0.80352000  0.86815300  0.27749600  1
  N  127  1  0.79192700  0.94991100  0.27800200  1
  N  128  1  0.78740600  0.88756600  0.24336500  1
  N  129  1  0.89004300  0.87766300  0.33708000  1
  N  130  1  0.78523100  0.85907000  0.35280800  1
  N  147  1  0.87018800  0.10991600  0.79897700  1
  N  148  1  0.80351500  0.14041600  0.82604800  1
  N  153  1  0.79192000  0.05865800  0.82557200  1
  N  154  1  0.78736400  0.12101600  0.86018200  1
  N  155  1  0.89006200  0.13090000  0.76648500  1
  N  156  1  0.78524500  0.14950000  0.75076400  1
  N  173  1  0.87017900  0.25709400  0.15741000  1
  N  174  1  0.80350500  0.23001400  0.18791800  1
  N  179  1  0.79188900  0.23050000  0.10616100  1
  N  180  1  0.78735500  0.19588300  0.16851800  1
  N  181  1  0.89005000  0.28958200  0.17839800  1
  N  182  1  0.78522800  0.30528500  0.19702000  1
  N  199  1  0.87017900  0.75148400  0.94614900  1
  N  200  1  0.80353100  0.77857000  0.91565000  1
  N  205  1  0.79193100  0.77806200  0.99740900  1
  N  206  1  0.78743000  0.81270400  0.93506700  1
  N  207  1  0.89005000  0.71899200  0.92516400  1
  N  208  1  0.78523500  0.70326000  0.90657500  1
  N  225  1  0.86943500  0.89876900  0.79941200  1
  N  226  1  0.80313400  0.86738800  0.82728800  1
  N  231  1  0.78996500  0.94909400  0.82999500  1
  N  232  1  0.78626600  0.88643200  0.86153200  1
  N  233  1  0.88877100  0.87824100  0.76647600  1
  N  234  1  0.78393200  0.85857000  0.75212800  1
  N  251  1  0.86945400  0.10981100  0.30415000  1
  N  252  1  0.80313900  0.14118200  0.27630000  1
  N  257  1  0.78993500  0.05947700  0.27357800  1
  N  258  1  0.78625200  0.12214600  0.24205300  1
  N  259  1  0.88879200  0.13034800  0.33708200  1
  N  260  1  0.78394700  0.15000700  0.35143500  1
  N  277  1  0.86945000  0.25665100  0.94626500  1
  N  278  1  0.80312900  0.22879000  0.91488900  1
  N  283  1  0.78993000  0.22607100  0.99659500  1
  N  284  1  0.78623300  0.19454700  0.93392300  1
  N  285  1  0.88878000  0.28958400  0.92573000  1
  N  286  1  0.78393200  0.30391100  0.90604400  1
  N  303  1  0.86944700  0.75192000  0.15730700  1
  N  304  1  0.80314600  0.77978700  0.18868200  1
  N  309  1  0.78997700  0.78249100  0.10697400  1
  N  310  1  0.78628700  0.81403100  0.16963600  1
  N  311  1  0.88878000  0.71897600  0.17782900  1
  N  312  1  0.78393700  0.70462700  0.19749400  1
  N  329  1  0.07574100  0.10980100  0.79941200  1
  N  330  1  0.14204200  0.14118200  0.82728800  1
  N  335  1  0.15521100  0.05947500  0.82999500  1
  N  336  1  0.15890900  0.12213700  0.86153200  1
  N  337  1  0.05640400  0.13032900  0.76647600  1
  N  338  1  0.16124400  0.15000000  0.75212800  1
  N  355  1  0.07572200  0.89875900  0.30415000  1
  N  356  1  0.14203700  0.86738800  0.27630000  1
  N  361  1  0.15524200  0.94909200  0.27357800  1
  N  362  1  0.15892400  0.88642400  0.24205300  1
  N  363  1  0.05638300  0.87822200  0.33708200  1
  N  364  1  0.16122800  0.85856300  0.35143500  1
  N  381  1  0.07572600  0.75191900  0.94626500  1
  N  382  1  0.14204500  0.77978000  0.91488900  1
  N  387  1  0.15524600  0.78249900  0.99659500  1
  N  388  1  0.15894200  0.81402300  0.93392300  1
  N  389  1  0.05639500  0.71898600  0.92573000  1
  N  390  1  0.16124300  0.70465900  0.90604600  1
  N  407  1  0.07572800  0.25665100  0.15730700  1
  N  408  1  0.14203000  0.22878300  0.18868200  1
  N  413  1  0.15519900  0.22607900  0.10697400  1
  N  414  1  0.15888900  0.19453900  0.16963600  1
  N  415  1  0.05639600  0.28959200  0.17782900  1
  N  416  1  0.16123800  0.30394300  0.19749400  1
  N  433  1  0.57375200  0.61046400  0.80499200  1
  N  434  1  0.64057100  0.64044200  0.77758800  1
  N  439  1  0.65137900  0.55864500  0.77778700  1
  N  440  1  0.65621200  0.62106000  0.74333100  1
  N  441  1  0.55511100  0.63037200  0.83839200  1
  N  442  1  0.66052100  0.64781400  0.85393800  1
  N  459  1  0.57373600  0.39810600  0.29857300  1
  N  460  1  0.64057100  0.36812300  0.32596600  1
  N  465  1  0.65138100  0.44992000  0.32578600  1
  N  466  1  0.65625200  0.38749600  0.36022200  1
  N  467  1  0.55509900  0.37820400  0.26516900  1
  N  468  1  0.66050700  0.36073700  0.24964400  1
  N  485  1  0.57375200  0.25107600  0.65795700  1
  N  486  1  0.64059000  0.27847000  0.68794500  1
  N  491  1  0.65141900  0.27828500  0.60614900  1
  N  492  1  0.65626600  0.31272600  0.66857300  1
  N  493  1  0.55511300  0.21767400  0.67786000  1
  N  494  1  0.66051800  0.20214900  0.69533400  1
  N  511  1  0.57374300  0.75748800  0.44560400  1
  N  512  1  0.64055500  0.73008300  0.41562300  1
  N  517  1  0.65137200  0.73029100  0.49742200  1
  N  518  1  0.65618800  0.69582400  0.43501100  1
  N  519  1  0.55510600  0.79089100  0.42570200  1
  N  520  1  0.66051400  0.80643000  0.40824800  1
  N  537  1  0.37142300  0.39810600  0.80499200  1
  N  538  1  0.30460400  0.36812800  0.77758800  1
  N  543  1  0.29379700  0.44992500  0.77778700  1
  N  544  1  0.28896400  0.38751000  0.74333100  1
  N  545  1  0.39006500  0.37819800  0.83839200  1
  N  546  1  0.28465700  0.36075600  0.85393800  1
  N  563  1  0.37144000  0.61046400  0.29857300  1
  N  564  1  0.30460400  0.64044700  0.32596600  1
  N  569  1  0.29379700  0.55865000  0.32578600  1
  N  570  1  0.28892400  0.62107300  0.36022200  1
  N  571  1  0.39007600  0.63036600  0.26516900  1
  N  572  1  0.28466900  0.64783300  0.24964400  1
  N  589  1  0.37142300  0.75749400  0.65795700  1
  N  590  1  0.30458500  0.73010000  0.68794500  1
  N  595  1  0.29375700  0.73028500  0.60614900  1
  N  596  1  0.28891200  0.69584400  0.66857300  1
  N  597  1  0.39006200  0.79089600  0.67786000  1
  N  598  1  0.28465700  0.80642100  0.69533400  1
  N  615  1  0.37143300  0.25108300  0.44560400  1
  N  616  1  0.30462100  0.27848700  0.41562300  1
  N  621  1  0.29380400  0.27827900  0.49742200  1
  N  622  1  0.28898700  0.31274500  0.43501100  1
  N  623  1  0.39007200  0.21767900  0.42570200  1
  N  624  1  0.28466200  0.20214000  0.40824800  1
  N  641  1  0.37064200  0.39840400  0.29900600  1
  N  642  1  0.30420900  0.36741000  0.32717700  1
  N  647  1  0.29176500  0.44915100  0.33015400  1
  N  648  1  0.28777600  0.38643300  0.36153300  1
  N  649  1  0.38884600  0.37886400  0.26525600  1
  N  650  1  0.28350900  0.36020900  0.25104500  1
  N  667  1  0.37065900  0.61017500  0.80456000  1
  N  668  1  0.30421800  0.64116300  0.77640300  1
  N  673  1  0.29173400  0.55942400  0.77342000  1
  N  674  1  0.28776400  0.62214600  0.74204600  1
  N  675  1  0.38886300  0.62972800  0.83830500  1
  N  676  1  0.28352600  0.64838400  0.85250900  1
  N  693  1  0.37065200  0.75706000  0.44590400  1
  N  694  1  0.30420400  0.72890000  0.41490800  1
  N  699  1  0.29172500  0.72591300  0.49664900  1
  N  700  1  0.28774300  0.69454400  0.43392400  1
  N  701  1  0.38885100  0.79080700  0.42635300  1
  N  702  1  0.28351400  0.80500400  0.40768700  1
  N  719  1  0.37065900  0.25151100  0.65766800  1
  N  720  1  0.30422800  0.27968000  0.68866300  1
  N  725  1  0.29177600  0.28265300  0.60692000  1
  N  726  1  0.28779900  0.31403800  0.66963800  1
  N  727  1  0.38885800  0.21775900  0.67720800  1
  N  728  1  0.28352100  0.20355300  0.69586600  1
  N  745  1  0.57453300  0.61016600  0.29900600  1
  N  746  1  0.64096700  0.64116000  0.32717700  1
  N  751  1  0.65341100  0.55941900  0.33015400  1
  N  752  1  0.65740000  0.62213700  0.36153300  1
  N  753  1  0.55632900  0.62970600  0.26525600  1
  N  754  1  0.66166600  0.64836100  0.25104500  1
  N  771  1  0.57451700  0.39839500  0.80456000  1
  N  772  1  0.64095700  0.36740700  0.77640300  1
  N  777  1  0.65344100  0.44914600  0.77342000  1
  N  778  1  0.65741100  0.38642400  0.74204600  1
  N  779  1  0.55631500  0.37884200  0.83830500  1
  N  780  1  0.66165200  0.36018600  0.85250900  1
  N  797  1  0.57452400  0.25151000  0.44590400  1
  N  798  1  0.64097400  0.27967000  0.41490800  1
  N  803  1  0.65345100  0.28265700  0.49664900  1
  N  804  1  0.65743300  0.31402600  0.43392400  1
  N  805  1  0.55632400  0.21776300  0.42635300  1
  N  806  1  0.66166100  0.20356600  0.40768700  1
  N  823  1  0.57451700  0.75705900  0.65766800  1
  N  824  1  0.64094800  0.72889000  0.68866300  1
  N  829  1  0.65339900  0.72591700  0.60692000  1
  N  830  1  0.65737600  0.69453300  0.66963800  1
  N  831  1  0.55632000  0.79081100  0.67720800  1
  N  832  1  0.66165700  0.80501700  0.69586600  1
  N  842  1  0.19740300  0.97674800  0.25620000  1
  N  858  1  0.19738000  0.03182800  0.84737500  1
  N  874  1  0.19742600  0.79986100  0.02424400  1
  N  890  1  0.19737300  0.20870900  0.07932700  1
  N  906  1  0.74777400  0.03182100  0.25620000  1
  N  922  1  0.74779500  0.97674200  0.84737500  1
  N  938  1  0.74775000  0.20870900  0.02424400  1
  N  954  1  0.74780400  0.79986100  0.07932700  1
  N  970  1  0.69596700  0.47679600  0.75628900  1
  N  986  1  0.69594800  0.53177500  0.34728400  1
  N  1002  1  0.69599100  0.29977300  0.52429300  1
  N  1018  1  0.69593600  0.70879600  0.57927800  1
  N  1034  1  0.24920800  0.53177400  0.75628900  1
  N  1050  1  0.24922700  0.47679500  0.34728400  1
  N  1066  1  0.24918500  0.70879700  0.52429300  1
  N  1082  1  0.24923900  0.29977400  0.57927800  1
  N  1098  1  0.26739800  0.16122900  0.40874500  1
  N  1114  1  0.26736800  0.84732200  0.69481800  1
  N  1130  1  0.26738200  0.64733200  0.20873700  1
  N  1146  1  0.26737000  0.36126200  0.89483900  1
  N  1162  1  0.67777700  0.84734100  0.40874500  1
  N  1178  1  0.67780800  0.16124800  0.69481800  1
  N  1194  1  0.67779300  0.36123800  0.20873700  1
  N  1210  1  0.67780500  0.64730800  0.89483900  1
  N  1226  1  0.67732800  0.84615800  0.69600900  1
  N  1242  1  0.67736100  0.16243500  0.40756600  1
  N  1258  1  0.67734200  0.36004300  0.89364800  1
  N  1274  1  0.67736100  0.64849200  0.20991100  1
  N  1290  1  0.26784800  0.16241200  0.69600800  1
  N  1306  1  0.26781500  0.84613500  0.40756600  1
  N  1322  1  0.26783400  0.64852600  0.89364800  1
  N  1338  1  0.26781500  0.36007800  0.20991100  1
  N  1354  1  0.22089800  0.15087400  0.17004000  1
  N  1370  1  0.22094400  0.85769600  0.93351600  1
  N  1386  1  0.22095900  0.88600500  0.19840200  1
  N  1402  1  0.22091200  0.12255200  0.90520100  1
  N  1418  1  0.72427800  0.85769600  0.17004000  1
  N  1434  1  0.72423300  0.15087400  0.93351600  1
  N  1450  1  0.72421600  0.12256500  0.19840200  1
  N  1466  1  0.72426300  0.88601800  0.90520100  1
  N  1482  1  0.71989800  0.65115100  0.67031900  1
  N  1498  1  0.71994800  0.35741500  0.43323800  1
  N  1514  1  0.71996200  0.38572800  0.69867800  1
  N  1530  1  0.71991200  0.62282800  0.40492200  1
  N  1546  1  0.22527800  0.35741900  0.67031900  1
  N  1562  1  0.22522700  0.65115500  0.43323800  1
  N  1578  1  0.22521500  0.62284200  0.69867800  1
  N  1594  1  0.22526300  0.38574200  0.40492200  1
  N  1610  1  0.93803500  0.12238500  0.38591700  1
  N  1626  1  0.93802300  0.88615700  0.71763000  1
  N  1642  1  0.93803500  0.67012400  0.16994700  1
  N  1658  1  0.93802600  0.33843200  0.93363300  1
  N  1674  1  0.00714200  0.88618500  0.38591700  1
  N  1690  1  0.00715300  0.12241300  0.71763000  1
  N  1706  1  0.00714100  0.33844600  0.16994700  1
  N  1722  1  0.00715000  0.67013800  0.93363300  1
  N  1738  1  0.43804200  0.62214700  0.88735400  1
  N  1754  1  0.43803800  0.38639200  0.21619200  1
  N  1770  1  0.43804500  0.16869000  0.66970900  1
  N  1786  1  0.43803800  0.83986900  0.43388000  1
  N  1802  1  0.50713300  0.38642300  0.88735400  1
  N  1818  1  0.50713800  0.62217800  0.21619200  1
  N  1834  1  0.50713100  0.83988000  0.66971000  1
  N  1850  1  0.50713800  0.16870100  0.43388000  1
  O  843  1  0.22577200  0.98041000  0.25988700  1
  O  844  1  0.19350700  0.97678800  0.23783000  1
  O  859  1  0.22575300  0.02817300  0.84369600  1
  O  860  1  0.19347400  0.03178900  0.86574500  1
  O  875  1  0.22579400  0.79616400  0.02789800  1
  O  876  1  0.19354600  0.81823100  0.02428500  1
  O  891  1  0.22574300  0.21239600  0.07567300  1
  O  892  1  0.19347700  0.19033900  0.07928600  1
  O  907  1  0.71940400  0.02816100  0.25988700  1
  O  908  1  0.75166800  0.03178200  0.23783000  1
  O  923  1  0.71942300  0.98039800  0.84369600  1
  O  924  1  0.75170100  0.97678100  0.86574500  1
  O  939  1  0.71938300  0.21240600  0.02789800  1
  O  940  1  0.75163100  0.19033900  0.02428500  1
  O  955  1  0.71943200  0.79617400  0.07567300  1
  O  956  1  0.75169900  0.81823100  0.07928500  1
  O  971  1  0.72425900  0.48050200  0.76015600  1
  O  972  1  0.69238300  0.47679600  0.73789400  1
  O  987  1  0.72424500  0.52807400  0.34342100  1
  O  988  1  0.69235900  0.53177500  0.36567800  1
  O  1003  1  0.72428200  0.29589600  0.52799400  1
  O  1004  1  0.69242300  0.31816900  0.52429600  1
  O  1019  1  0.72423000  0.71266200  0.57557800  1
  O  1020  1  0.69235200  0.69040000  0.57927600  1
  O  1035  1  0.22091600  0.52806800  0.76015600  1
  O  1036  1  0.25279300  0.53177400  0.73789400  1
  O  1051  1  0.22093200  0.48049600  0.34342100  1
  O  1052  1  0.25281600  0.47679500  0.36567800  1
  O  1067  1  0.22089300  0.71267400  0.52799400  1
  O  1068  1  0.25275300  0.69040100  0.52429600  1
  O  1083  1  0.22094500  0.29590800  0.57557800  1
  O  1084  1  0.25282300  0.31817000  0.57927600  1
  O  1099  1  0.28910500  0.15156200  0.40070000  1
  O  1100  1  0.25455400  0.15063400  0.42164100  1
  O  1115  1  0.28906900  0.85700200  0.70285100  1
  O  1116  1  0.25451000  0.85790200  0.68191700  1
  O  1131  1  0.28908400  0.65537000  0.19906100  1
  O  1132  1  0.25452400  0.63443600  0.19815100  1
  O  1147  1  0.28907400  0.35322500  0.90451700  1
  O  1148  1  0.25451200  0.37415900  0.90542400  1
  O  1163  1  0.65607300  0.85700800  0.40070000  1
  O  1164  1  0.69062100  0.85793600  0.42164100  1
  O  1179  1  0.65610600  0.15156800  0.70285100  1
  O  1180  1  0.69066600  0.15066800  0.68191700  1
  O  1195  1  0.65609200  0.35320000  0.19906100  1
  O  1196  1  0.69065200  0.37413400  0.19815100  1
  O  1211  1  0.65610100  0.65534500  0.90451700  1
  O  1212  1  0.69066300  0.63441100  0.90542400  1
  O  1227  1  0.65510700  0.85524600  0.70417700  1
  O  1228  1  0.68982400  0.85727500  0.68342400  1
  O  1243  1  0.65514200  0.15333400  0.39941000  1
  O  1244  1  0.68987100  0.15133300  0.42015700  1
  O  1259  1  0.65512100  0.35188100  0.90274100  1
  O  1260  1  0.68985000  0.37262800  0.90476000  1
  O  1275  1  0.65513900  0.65664800  0.20081400  1
  O  1276  1  0.68987300  0.63590300  0.19880600  1
  O  1291  1  0.29006900  0.15332400  0.70417700  1
  O  1292  1  0.25535200  0.15129500  0.68342400  1
  O  1307  1  0.29003400  0.85523600  0.39941000  1
  O  1308  1  0.25530500  0.85723700  0.42015700  1
  O  1323  1  0.29005500  0.65668900  0.90274100  1
  O  1324  1  0.25532600  0.63594200  0.90476000  1
  O  1339  1  0.29003600  0.35192200  0.20081400  1
  O  1340  1  0.25530200  0.37266700  0.19880600  1
  O  1355  1  0.22397300  0.13530200  0.16018500  1
  O  1356  1  0.24630600  0.15440500  0.17882700  1
  O  1371  1  0.22401000  0.87326900  0.94336600  1
  O  1372  1  0.24635800  0.85416500  0.92473200  1
  O  1387  1  0.22404700  0.89585800  0.18283000  1
  O  1388  1  0.24636300  0.87721500  0.20194000  1
  O  1403  1  0.22398800  0.11269800  0.92077400  1
  O  1404  1  0.24631800  0.13134300  0.90167200  1
  O  1419  1  0.72120400  0.87326700  0.16018500  1
  O  1420  1  0.69886900  0.85416500  0.17882700  1
  O  1435  1  0.72116600  0.13530100  0.94336600  1
  O  1436  1  0.69882000  0.15440500  0.92473200  1
  O  1451  1  0.72112800  0.11271200  0.18283000  1
  O  1452  1  0.69881300  0.13135500  0.20194000  1
  O  1467  1  0.72118700  0.89587100  0.92077400  1
  O  1468  1  0.69885800  0.87722700  0.90167200  1
  O  1483  1  0.72328700  0.63559500  0.66047900  1
  O  1484  1  0.74514400  0.65479600  0.67924300  1
  O  1499  1  0.72333200  0.37297200  0.44307700  1
  O  1500  1  0.74519800  0.35377300  0.42431700  1
  O  1515  1  0.72336700  0.39556700  0.68312400  1
  O  1516  1  0.74520100  0.37680100  0.70233200  1
  O  1531  1  0.72330400  0.61298700  0.42047600  1
  O  1532  1  0.74515800  0.63175500  0.40128000  1
  O  1547  1  0.22188700  0.37297500  0.66047900  1
  O  1548  1  0.20003100  0.35377400  0.67924300  1
  O  1563  1  0.22184300  0.63559800  0.44307700  1
  O  1564  1  0.19997800  0.65479700  0.42431700  1
  O  1579  1  0.22180900  0.61300300  0.68312400  1
  O  1580  1  0.19997500  0.63176900  0.70233200  1
  O  1595  1  0.22187200  0.39558300  0.42047600  1
  O  1596  1  0.20001900  0.37681500  0.40128000  1
  O  1611  1  0.94439700  0.13311700  0.40048600  1
  O  1612  1  0.94379000  0.10474600  0.39030700  1
  O  1627  1  0.94438300  0.87541000  0.70307300  1
  O  1628  1  0.94378300  0.90379100  0.71322200  1
  O  1643  1  0.94439700  0.65557600  0.18070700  1
  O  1644  1  0.94379500  0.66570100  0.15231700  1
  O  1659  1  0.94439000  0.35298700  0.92288100  1
  O  1660  1  0.94378100  0.34284900  0.95126600  1
  O  1675  1  0.00077800  0.87545300  0.40048600  1
  O  1676  1  0.00138700  0.90382400  0.39030700  1
  O  1691  1  0.00079200  0.13316100  0.70307300  1
  O  1692  1  0.00139200  0.10477900  0.71322200  1
  O  1707  1  0.00078000  0.35299400  0.18070700  1
  O  1708  1  0.00138000  0.34286900  0.15231700  1
  O  1723  1  0.00078700  0.65558300  0.92288100  1
  O  1724  1  0.00139400  0.66572100  0.95126600  1
  O  1739  1  0.44436000  0.63303500  0.90181200  1
  O  1740  1  0.44384700  0.60456100  0.89193100  1
  O  1755  1  0.44435000  0.37548400  0.20174600  1
  O  1756  1  0.44385400  0.40397200  0.21159500  1
  O  1771  1  0.44436200  0.15425400  0.68062600  1
  O  1772  1  0.44385400  0.16408100  0.65213300  1
  O  1787  1  0.44435500  0.85431300  0.42297100  1
  O  1788  1  0.44384700  0.84447000  0.45145800  1
  O  1803  1  0.50081600  0.37553500  0.90181200  1
  O  1804  1  0.50132900  0.40400900  0.89193100  1
  O  1819  1  0.50082500  0.63308600  0.20174600  1
  O  1820  1  0.50132200  0.60459800  0.21159500  1
  O  1835  1  0.50081400  0.85431600  0.68062600  1
  O  1836  1  0.50132200  0.84448900  0.65213300  1
  O  1851  1  0.50082100  0.15425700  0.42296900  1
  O  1852  1  0.50132900  0.16410000  0.45145800  1
