# generated using pymatgen
data_H36C47(NO)4
_symmetry_space_group_name_H-M   'P 1'
_cell_length_a   39.62600000
_cell_length_b   39.62600000
_cell_length_c   39.62600000
_cell_angle_alpha   90.00000000
_cell_angle_beta   90.00000000
_cell_angle_gamma   90.00000000
_symmetry_Int_Tables_number   1
_chemical_formula_structural   H36C47(NO)4
_chemical_formula_sum   'H576 C752 N64 O64'
_cell_volume   62221.53280638
_cell_formula_units_Z   16
loop_
 _symmetry_equiv_pos_site_id
 _symmetry_equiv_pos_as_xyz
  1  'x, y, z'
loop_
 _atom_site_type_symbol
 _atom_site_label
 _atom_site_symmetry_multiplicity
 _atom_site_fract_x
 _atom_site_fract_y
 _atom_site_fract_z
 _atom_site_occupancy
  H  25  1  0.07711300  0.89586100  0.00004800  1
  H  26  1  0.03749500  0.90295800  0.95512800  1
  H  27  1  0.94585900  0.96457600  0.89892200  1
  H  28  1  0.90912000  0.01200200  0.89373600  1
  H  29  1  0.94645200  0.05170700  0.98470200  1
  H  30  1  0.03873500  0.98210000  0.04832900  1
  H  31  1  0.94635100  0.95135800  0.01787300  1
  H  32  1  0.90917300  0.99087000  0.10897800  1
  H  33  1  0.94599800  0.03825500  0.10389000  1
  H  34  1  0.03867500  0.02092400  0.95433800  1
  H  35  1  0.03751600  0.10001600  0.04758000  1
  H  36  1  0.07704600  0.10718100  0.00258700  1
  H  39  1  0.00613700  0.95066600  0.92270700  1
  H  40  1  0.97543000  0.92733300  0.94543500  1
  H  42  1  0.97551400  0.07558900  0.05740800  1
  H  43  1  0.00626100  0.05219700  0.08002000  1
  H  45  1  0.88058600  0.05764800  0.92842100  1
  H  47  1  0.10751700  0.93149200  0.04624800  1
  H  49  1  0.88044200  0.94547800  0.07383600  1
  H  51  1  0.10739200  0.07190300  0.95624300  1
  H  76  1  0.42659600  0.10750400  0.50063300  1
  H  77  1  0.46618400  0.10016700  0.45571800  1
  H  78  1  0.55749000  0.03798200  0.39955100  1
  H  79  1  0.59416800  0.99046300  0.39456900  1
  H  80  1  0.55680900  0.95123900  0.48572200  1
  H  81  1  0.46460400  0.02117700  0.54904600  1
  H  82  1  0.55697000  0.05155300  0.51884400  1
  H  83  1  0.59403900  0.01165300  0.60982900  1
  H  84  1  0.55712900  0.96437200  0.60457300  1
  H  85  1  0.46452300  0.98235500  0.45505500  1
  H  86  1  0.46536900  0.90308900  0.54815000  1
  H  87  1  0.42580100  0.89617200  0.50314400  1
  H  90  1  0.49728200  0.05219300  0.42337400  1
  H  91  1  0.52809800  0.07550000  0.44598000  1
  H  93  1  0.52749000  0.92726500  0.55798700  1
  H  94  1  0.49682500  0.95067900  0.58068900  1
  H  96  1  0.62280300  0.94525800  0.43034400  1
  H  98  1  0.39599000  0.07199100  0.54693400  1
  H  100  1  0.62276800  0.05723100  0.57531900  1
  H  102  1  0.39557600  0.93200700  0.45683400  1
  H  127  1  0.36065500  0.84309300  0.25437800  1
  H  128  1  0.35275100  0.80518400  0.20851200  1
  H  129  1  0.29065300  0.71602700  0.15015600  1
  H  130  1  0.24142200  0.68287000  0.14163600  1
  H  131  1  0.20028800  0.71932100  0.23232500  1
  H  132  1  0.27142500  0.80818900  0.29982100  1
  H  133  1  0.30325800  0.71943900  0.27135700  1
  H  134  1  0.26219200  0.68293300  0.36205300  1
  H  135  1  0.21288400  0.71596900  0.35351300  1
  H  136  1  0.23197600  0.80815600  0.20384300  1
  H  137  1  0.15029600  0.80457300  0.29481400  1
  H  138  1  0.14221000  0.84228300  0.24880800  1
  H  141  1  0.30553200  0.77517300  0.17458600  1
  H  142  1  0.32711100  0.74405900  0.19849200  1
  H  144  1  0.17636000  0.74375400  0.30509800  1
  H  145  1  0.19774200  0.77502900  0.32897600  1
  H  147  1  0.17544700  0.67060500  0.19752700  1
  H  149  1  0.31892400  0.87306300  0.30541800  1
  H  151  1  0.32810300  0.67068100  0.30612500  1
  H  153  1  0.18531000  0.87236700  0.19742800  1
  H  178  1  0.14154800  0.16165900  0.75432300  1
  H  179  1  0.14967100  0.19931400  0.70826200  1
  H  180  1  0.21249300  0.28768500  0.64938900  1
  H  181  1  0.26187600  0.32059800  0.64081400  1
  H  182  1  0.30277600  0.28423800  0.73164300  1
  H  183  1  0.23140500  0.19566700  0.79917500  1
  H  184  1  0.19963100  0.28447200  0.77047100  1
  H  185  1  0.24019400  0.32060000  0.86153500  1
  H  186  1  0.28954000  0.28755600  0.85316500  1
  H  187  1  0.27107500  0.19566400  0.70325300  1
  H  188  1  0.35194600  0.19849700  0.79497100  1
  H  189  1  0.36011000  0.16071500  0.74903400  1
  H  192  1  0.19717700  0.22873500  0.67403700  1
  H  193  1  0.17586900  0.26007900  0.69788500  1
  H  195  1  0.32629600  0.25957500  0.80501900  1
  H  196  1  0.30447400  0.22844800  0.82869300  1
  H  198  1  0.32776500  0.33284700  0.69678200  1
  H  200  1  0.18451600  0.13149600  0.80536500  1
  H  202  1  0.17484500  0.33345300  0.80570100  1
  H  204  1  0.31827300  0.13096600  0.69771600  1
  H  229  1  0.64461500  0.17097400  0.74987100  1
  H  230  1  0.65374300  0.20718000  0.79707000  1
  H  231  1  0.71496000  0.29823600  0.85480700  1
  H  232  1  0.76100500  0.33678900  0.85932700  1
  H  233  1  0.80044900  0.30148400  0.76742800  1
  H  234  1  0.73058600  0.21046800  0.70209500  1
  H  235  1  0.70349300  0.30174400  0.73477800  1
  H  236  1  0.74363300  0.33566300  0.64264900  1
  H  237  1  0.78924400  0.29669700  0.64774100  1
  H  238  1  0.77230400  0.21081600  0.80136800  1
  H  239  1  0.84927100  0.20556300  0.70658200  1
  H  240  1  0.85790400  0.16979900  0.75423000  1
  H  243  1  0.70296500  0.23718800  0.83000600  1
  H  244  1  0.67790300  0.26801300  0.80937800  1
  H  246  1  0.82582100  0.26653700  0.69357500  1
  H  247  1  0.80048000  0.23577300  0.67319900  1
  H  249  1  0.80421200  0.36743300  0.82398900  1
  H  251  1  0.67332100  0.14445000  0.69941700  1
  H  253  1  0.70053000  0.36702200  0.67696700  1
  H  255  1  0.82830000  0.14416300  0.80492400  1
  H  280  1  0.85835600  0.83326900  0.25003700  1
  H  281  1  0.84926800  0.79737800  0.29747100  1
  H  282  1  0.78868700  0.70613500  0.35549400  1
  H  283  1  0.74296900  0.66722400  0.36011500  1
  H  284  1  0.70343200  0.70170900  0.26793300  1
  H  285  1  0.77296700  0.79268700  0.20212100  1
  H  286  1  0.80053000  0.70180700  0.23583100  1
  H  287  1  0.76135100  0.66693300  0.14364800  1
  H  288  1  0.71546000  0.70568300  0.14806200  1
  H  289  1  0.73060100  0.79280500  0.30118600  1
  H  290  1  0.65441400  0.79686600  0.20571400  1
  H  291  1  0.64516700  0.83293800  0.25297500  1
  H  294  1  0.80019200  0.76716800  0.33039400  1
  H  295  1  0.82558700  0.73642600  0.31005400  1
  H  297  1  0.67832700  0.73594600  0.19336300  1
  H  298  1  0.70365400  0.76672100  0.17298600  1
  H  300  1  0.69986900  0.63609200  0.32530400  1
  H  302  1  0.82979600  0.85910000  0.19928700  1
  H  304  1  0.80438400  0.63594600  0.17925100  1
  H  306  1  0.67354500  0.85907500  0.30363100  1
  H  331  1  0.59120800  0.39365800  0.50804300  1
  H  332  1  0.55640700  0.40211500  0.45963000  1
  H  333  1  0.47018100  0.46467000  0.39660600  1
  H  334  1  0.43536800  0.51287000  0.38815900  1
  H  335  1  0.46378600  0.55101500  0.48293300  1
  H  336  1  0.55249100  0.48191600  0.55210500  1
  H  337  1  0.46392500  0.45238200  0.52010600  1
  H  338  1  0.43449300  0.49044800  0.61460400  1
  H  339  1  0.46914100  0.53881500  0.60643000  1
  H  340  1  0.55269800  0.52203100  0.45155000  1
  H  341  1  0.55563300  0.60171600  0.54415800  1
  H  342  1  0.59069300  0.61041200  0.49598800  1
  H  345  1  0.52806700  0.45069400  0.42466600  1
  H  346  1  0.49619400  0.42696700  0.44528600  1
  H  348  1  0.49541000  0.57660900  0.55800000  1
  H  349  1  0.52722200  0.55300800  0.57886200  1
  H  351  1  0.40919600  0.56911900  0.44349900  1
  H  353  1  0.61657800  0.42320200  0.55895600  1
  H  355  1  0.40883500  0.43422800  0.55941600  1
  H  357  1  0.61643400  0.58124500  0.44514500  1
  H  382  1  0.91327900  0.61021300  0.00605100  1
  H  383  1  0.94873100  0.60118600  0.95823500  1
  H  384  1  0.03594900  0.53789200  0.89719600  1
  H  385  1  0.07081200  0.48942400  0.88977200  1
  H  386  1  0.04007100  0.45193600  0.98407900  1
  H  387  1  0.95088100  0.52212700  0.05139500  1
  H  388  1  0.04006500  0.55079000  0.02058500  1
  H  389  1  0.06796500  0.51295400  0.11563600  1
  H  390  1  0.03309800  0.46478800  0.10721100  1
  H  391  1  0.95169600  0.48147700  0.95116300  1
  H  392  1  0.94702000  0.40218800  0.04404600  1
  H  393  1  0.91238800  0.39363600  0.99554100  1
  H  396  1  0.97747200  0.55221300  0.92408000  1
  H  397  1  0.00907100  0.57598800  0.94506100  1
  H  399  1  0.00727100  0.42694200  0.05854700  1
  H  400  1  0.97532700  0.45080000  0.07891000  1
  H  402  1  0.09818900  0.43617300  0.94232300  1
  H  404  1  0.88720300  0.58165300  0.05696700  1
  H  406  1  0.09454600  0.56888400  0.06022600  1
  H  408  1  0.88730100  0.42317900  0.94439000  1
  H  414  1  0.93461900  0.86892200  0.13047800  1
  H  416  1  0.84867300  0.89644200  0.07529800  1
  H  418  1  0.93441200  0.83003800  0.17426700  1
  H  419  1  0.90239200  0.79939400  0.17111500  1
  H  420  1  0.89759000  0.83437600  0.19872600  1
  H  422  1  0.78780600  0.84499600  0.12329400  1
  H  423  1  0.79874300  0.85306600  0.08101900  1
  H  424  1  0.79189400  0.88701400  0.10940200  1
  H  434  1  0.56857900  0.13463600  0.63025000  1
  H  436  1  0.65475200  0.10630900  0.57583900  1
  H  438  1  0.56870200  0.17378500  0.67382300  1
  H  439  1  0.60082800  0.20431700  0.67061800  1
  H  440  1  0.60540100  0.16950000  0.69847800  1
  H  442  1  0.71553000  0.15793900  0.62377700  1
  H  443  1  0.70483000  0.14954300  0.58150500  1
  H  444  1  0.71136400  0.11581700  0.61022600  1
  H  454  1  0.37557200  0.68501200  0.40814400  1
  H  456  1  0.34940900  0.62154100  0.32768900  1
  H  458  1  0.41715500  0.67265200  0.44752900  1
  H  459  1  0.44921300  0.64604100  0.43203500  1
  H  460  1  0.41663100  0.62950100  0.45800500  1
  H  462  1  0.40608400  0.55170600  0.34884400  1
  H  463  1  0.39766600  0.57696200  0.31329200  1
  H  464  1  0.36411200  0.55922900  0.33704400  1
  H  474  1  0.13338500  0.32013600  0.91228200  1
  H  476  1  0.14570200  0.37788800  0.82448900  1
  H  478  1  0.09604100  0.33325800  0.95523100  1
  H  479  1  0.06089800  0.35704100  0.94203800  1
  H  480  1  0.09544500  0.37706300  0.96242100  1
  H  482  1  0.08747200  0.44591700  0.84692400  1
  H  483  1  0.09344200  0.41823800  0.81271600  1
  H  484  1  0.12822300  0.43987500  0.83078000  1
  H  494  1  0.56884400  0.86906800  0.37230600  1
  H  496  1  0.65449700  0.89637400  0.42804500  1
  H  498  1  0.56925000  0.83023000  0.32849600  1
  H  499  1  0.60133000  0.79964900  0.33162600  1
  H  500  1  0.60612700  0.83475200  0.30416100  1
  H  502  1  0.71561900  0.84513000  0.38018500  1
  H  503  1  0.70444900  0.85302600  0.42243200  1
  H  504  1  0.71144200  0.88708700  0.39422100  1
  H  514  1  0.93497500  0.13470900  0.87302000  1
  H  516  1  0.84876300  0.10672000  0.92754500  1
  H  518  1  0.93489100  0.17350800  0.82915800  1
  H  519  1  0.90316200  0.20441600  0.83263300  1
  H  520  1  0.89794800  0.16967500  0.80479000  1
  H  522  1  0.78812900  0.15857900  0.87969500  1
  H  523  1  0.79884900  0.15006500  0.92193500  1
  H  524  1  0.79213400  0.11641400  0.89316600  1
  H  534  1  0.12833200  0.68482100  0.09523900  1
  H  536  1  0.15383300  0.62162200  0.17612400  1
  H  538  1  0.08695100  0.67241700  0.05566500  1
  H  539  1  0.05471500  0.64598200  0.07108900  1
  H  540  1  0.08739900  0.62921800  0.04539200  1
  H  542  1  0.09702300  0.55190000  0.15498100  1
  H  543  1  0.10534100  0.57729300  0.19046000  1
  H  544  1  0.13895800  0.55932200  0.16697600  1
  H  554  1  0.37512000  0.31837400  0.59467300  1
  H  556  1  0.34936700  0.38181500  0.67528400  1
  H  558  1  0.41662800  0.33066200  0.55519100  1
  H  559  1  0.44880900  0.35715200  0.57063800  1
  H  560  1  0.41620900  0.37382800  0.54477400  1
  H  562  1  0.40628100  0.45145100  0.65416400  1
  H  563  1  0.39775100  0.42616700  0.68966100  1
  H  564  1  0.36427600  0.44411800  0.66595900  1
  H  574  1  0.07224000  0.08673500  0.85194800  1
  H  576  1  0.12911300  0.12074600  0.93436900  1
  H  578  1  0.08058700  0.10450500  0.79693100  1
  H  579  1  0.09575500  0.14620400  0.79492000  1
  H  580  1  0.12342500  0.11152500  0.78765500  1
  H  582  1  0.18859800  0.17335500  0.88622100  1
  H  583  1  0.16188900  0.17759900  0.92156900  1
  H  584  1  0.18941000  0.14245800  0.91800800  1
  H  594  1  0.43102300  0.91559100  0.35285700  1
  H  596  1  0.37298700  0.88344800  0.43520400  1
  H  598  1  0.42288400  0.89730200  0.29802900  1
  H  599  1  0.40638000  0.85612000  0.29609300  1
  H  600  1  0.37991500  0.89166200  0.28848200  1
  H  602  1  0.31266100  0.83172900  0.38712700  1
  H  603  1  0.33909300  0.82716400  0.42264400  1
  H  604  1  0.31236300  0.86286800  0.41868500  1
  H  614  1  0.61655700  0.31691300  0.62856000  1
  H  616  1  0.65384600  0.40231900  0.67860800  1
  H  618  1  0.57655800  0.31876000  0.58583300  1
  H  619  1  0.54813500  0.35267500  0.58971400  1
  H  620  1  0.58189600  0.35472200  0.56029900  1
  H  622  1  0.60501700  0.46540400  0.63075300  1
  H  623  1  0.61483100  0.45548100  0.67288700  1
  H  624  1  0.64738300  0.45836600  0.64227300  1
  H  634  1  0.88556000  0.68683200  0.12656800  1
  H  636  1  0.85149700  0.60155200  0.17909900  1
  H  638  1  0.92491000  0.68509300  0.08321200  1
  H  639  1  0.95359100  0.65130200  0.08631800  1
  H  640  1  0.91891700  0.64900600  0.05800700  1
  H  642  1  0.89993700  0.53864400  0.13061300  1
  H  643  1  0.89147000  0.54903600  0.17293400  1
  H  644  1  0.85790100  0.54508200  0.14356600  1
  H  654  1  0.43078000  0.08742300  0.65128700  1
  H  656  1  0.37379800  0.12067200  0.56863700  1
  H  658  1  0.42224600  0.10539900  0.70619500  1
  H  659  1  0.40634200  0.14682200  0.70817100  1
  H  660  1  0.37926600  0.11165200  0.71534900  1
  H  662  1  0.31365800  0.17280300  0.61647200  1
  H  663  1  0.34043600  0.17722800  0.58119700  1
  H  664  1  0.31325900  0.14182100  0.58476300  1
  H  674  1  0.07259500  0.91634800  0.15078300  1
  H  676  1  0.13000600  0.88320000  0.06838300  1
  H  678  1  0.08094200  0.89843800  0.20573400  1
  H  679  1  0.09660800  0.85692200  0.20765800  1
  H  680  1  0.12383400  0.89191700  0.21511300  1
  H  682  1  0.18990700  0.83104000  0.11650800  1
  H  683  1  0.16333300  0.82665200  0.08107400  1
  H  684  1  0.19049900  0.86205000  0.08482200  1
  H  694  1  0.88610500  0.31637100  0.87570500  1
  H  696  1  0.85133000  0.40182500  0.82394100  1
  H  698  1  0.92555600  0.31799300  0.91894000  1
  H  699  1  0.95451000  0.35148900  0.91527800  1
  H  700  1  0.92027000  0.35424000  0.94407200  1
  H  702  1  0.90034100  0.46458100  0.87202100  1
  H  703  1  0.89121800  0.45433600  0.82980600  1
  H  704  1  0.85810300  0.45816900  0.85970300  1
  H  714  1  0.61720800  0.68668800  0.37517000  1
  H  716  1  0.65289700  0.60119100  0.32410300  1
  H  718  1  0.57750000  0.68501500  0.41819500  1
  H  719  1  0.54899100  0.65110000  0.41487400  1
  H  720  1  0.58325800  0.64909900  0.44369900  1
  H  722  1  0.60426700  0.53833100  0.37248000  1
  H  723  1  0.61338300  0.54835000  0.33020700  1
  H  724  1  0.64647000  0.54503100  0.36019800  1
  H  753  1  0.07711300  0.89586100  0.32811500  1
  H  754  1  0.03749500  0.90295800  0.28319500  1
  H  755  1  0.94585900  0.96457600  0.22698900  1
  H  756  1  0.90912000  0.01200200  0.22180300  1
  H  757  1  0.94645200  0.05170700  0.31276900  1
  H  758  1  0.03873500  0.98210000  0.37639600  1
  H  759  1  0.94635100  0.95135800  0.34594000  1
  H  760  1  0.90917300  0.99087000  0.43704500  1
  H  761  1  0.94599800  0.03825500  0.43195700  1
  H  762  1  0.03867500  0.02092400  0.28240500  1
  H  763  1  0.03751600  0.10001600  0.37564700  1
  H  764  1  0.07704600  0.10718100  0.33065400  1
  H  767  1  0.00613700  0.95066600  0.25077400  1
  H  768  1  0.97543000  0.92733300  0.27350200  1
  H  770  1  0.97551400  0.07558900  0.38547500  1
  H  771  1  0.00626100  0.05219700  0.40808700  1
  H  773  1  0.88058600  0.05764800  0.25648800  1
  H  775  1  0.10751700  0.93149200  0.37431500  1
  H  777  1  0.88044200  0.94547800  0.40190300  1
  H  779  1  0.10739200  0.07190300  0.28431000  1
  H  804  1  0.42659600  0.10750400  0.82870000  1
  H  805  1  0.46618400  0.10016700  0.78378500  1
  H  806  1  0.55749000  0.03798200  0.72761800  1
  H  807  1  0.59416800  0.99046300  0.72263600  1
  H  808  1  0.55680900  0.95123900  0.81378900  1
  H  809  1  0.46460400  0.02117700  0.87711300  1
  H  810  1  0.55697000  0.05155300  0.84691100  1
  H  811  1  0.59403900  0.01165300  0.93789600  1
  H  812  1  0.55712900  0.96437200  0.93264000  1
  H  813  1  0.46452300  0.98235500  0.78312200  1
  H  814  1  0.46536900  0.90308900  0.87621700  1
  H  815  1  0.42580100  0.89617200  0.83121100  1
  H  818  1  0.49728200  0.05219300  0.75144100  1
  H  819  1  0.52809800  0.07550000  0.77404700  1
  H  821  1  0.52749000  0.92726500  0.88605400  1
  H  822  1  0.49682500  0.95067900  0.90875600  1
  H  824  1  0.62280300  0.94525800  0.75841100  1
  H  826  1  0.39599000  0.07199100  0.87500100  1
  H  828  1  0.62276800  0.05723100  0.90338600  1
  H  830  1  0.39557600  0.93200700  0.78490100  1
  H  855  1  0.36065500  0.84309300  0.58244500  1
  H  856  1  0.35275100  0.80518400  0.53657900  1
  H  857  1  0.29065300  0.71602700  0.47822300  1
  H  858  1  0.24142200  0.68287000  0.46970300  1
  H  859  1  0.20028800  0.71932100  0.56039200  1
  H  860  1  0.27142500  0.80818900  0.62788800  1
  H  861  1  0.30325800  0.71943900  0.59942400  1
  H  862  1  0.26219200  0.68293300  0.69012000  1
  H  863  1  0.21288400  0.71596900  0.68158000  1
  H  864  1  0.23197600  0.80815600  0.53191000  1
  H  865  1  0.15029600  0.80457300  0.62288100  1
  H  866  1  0.14221000  0.84228300  0.57687500  1
  H  869  1  0.30553200  0.77517300  0.50265300  1
  H  870  1  0.32711100  0.74405900  0.52655900  1
  H  872  1  0.17636000  0.74375400  0.63316500  1
  H  873  1  0.19774200  0.77502900  0.65704300  1
  H  875  1  0.17544700  0.67060500  0.52559400  1
  H  877  1  0.31892400  0.87306300  0.63348500  1
  H  879  1  0.32810300  0.67068100  0.63419200  1
  H  881  1  0.18531000  0.87236700  0.52549500  1
  H  906  1  0.14154800  0.16165900  0.08239040  1
  H  907  1  0.14967100  0.19931400  0.03632940  1
  H  908  1  0.21249300  0.28768500  0.97745600  1
  H  909  1  0.26187600  0.32059800  0.96888100  1
  H  910  1  0.30277600  0.28423800  0.05971040  1
  H  911  1  0.23140500  0.19566700  0.12724200  1
  H  912  1  0.19963100  0.28447200  0.09853840  1
  H  913  1  0.24019400  0.32060000  0.18960200  1
  H  914  1  0.28954000  0.28755600  0.18123200  1
  H  915  1  0.27107500  0.19566400  0.03132040  1
  H  916  1  0.35194600  0.19849700  0.12303800  1
  H  917  1  0.36011000  0.16071500  0.07710140  1
  H  920  1  0.19717700  0.22873500  0.00210443  1
  H  921  1  0.17586900  0.26007900  0.02595240  1
  H  923  1  0.32629600  0.25957500  0.13308600  1
  H  924  1  0.30447400  0.22844800  0.15676000  1
  H  926  1  0.32776500  0.33284700  0.02484940  1
  H  928  1  0.18451600  0.13149600  0.13343200  1
  H  930  1  0.17484500  0.33345300  0.13376800  1
  H  932  1  0.31827300  0.13096600  0.02578340  1
  H  957  1  0.64461500  0.17097400  0.07793840  1
  H  958  1  0.65374300  0.20718000  0.12513700  1
  H  959  1  0.71496000  0.29823600  0.18287400  1
  H  960  1  0.76100500  0.33678900  0.18739400  1
  H  961  1  0.80044900  0.30148400  0.09549540  1
  H  962  1  0.73058600  0.21046800  0.03016240  1
  H  963  1  0.70349300  0.30174400  0.06284540  1
  H  964  1  0.74363300  0.33566300  0.97071600  1
  H  965  1  0.78924400  0.29669700  0.97580800  1
  H  966  1  0.77230400  0.21081600  0.12943500  1
  H  967  1  0.84927100  0.20556300  0.03464940  1
  H  968  1  0.85790400  0.16979900  0.08229740  1
  H  971  1  0.70296500  0.23718800  0.15807300  1
  H  972  1  0.67790300  0.26801300  0.13744500  1
  H  974  1  0.82582100  0.26653700  0.02164240  1
  H  975  1  0.80048000  0.23577300  0.00126643  1
  H  977  1  0.80421200  0.36743300  0.15205600  1
  H  979  1  0.67332100  0.14445000  0.02748440  1
  H  981  1  0.70053000  0.36702200  0.00503443  1
  H  983  1  0.82830000  0.14416300  0.13299100  1
  H  1008  1  0.85835600  0.83326900  0.57810400  1
  H  1009  1  0.84926800  0.79737800  0.62553800  1
  H  1010  1  0.78868700  0.70613500  0.68356100  1
  H  1011  1  0.74296900  0.66722400  0.68818200  1
  H  1012  1  0.70343200  0.70170900  0.59600000  1
  H  1013  1  0.77296700  0.79268700  0.53018800  1
  H  1014  1  0.80053000  0.70180700  0.56389800  1
  H  1015  1  0.76135100  0.66693300  0.47171500  1
  H  1016  1  0.71546000  0.70568300  0.47612900  1
  H  1017  1  0.73060100  0.79280500  0.62925300  1
  H  1018  1  0.65441400  0.79686600  0.53378100  1
  H  1019  1  0.64516700  0.83293800  0.58104200  1
  H  1022  1  0.80019200  0.76716800  0.65846100  1
  H  1023  1  0.82558700  0.73642600  0.63812100  1
  H  1025  1  0.67832700  0.73594600  0.52143000  1
  H  1026  1  0.70365400  0.76672100  0.50105300  1
  H  1028  1  0.69986900  0.63609200  0.65337100  1
  H  1030  1  0.82979600  0.85910000  0.52735400  1
  H  1032  1  0.80438400  0.63594600  0.50731800  1
  H  1034  1  0.67354500  0.85907500  0.63169800  1
  H  1059  1  0.59120800  0.39365800  0.83611000  1
  H  1060  1  0.55640700  0.40211500  0.78769700  1
  H  1061  1  0.47018100  0.46467000  0.72467300  1
  H  1062  1  0.43536800  0.51287000  0.71622600  1
  H  1063  1  0.46378600  0.55101500  0.81100000  1
  H  1064  1  0.55249100  0.48191600  0.88017200  1
  H  1065  1  0.46392500  0.45238200  0.84817300  1
  H  1066  1  0.43449300  0.49044800  0.94267100  1
  H  1067  1  0.46914100  0.53881500  0.93449700  1
  H  1068  1  0.55269800  0.52203100  0.77961700  1
  H  1069  1  0.55563300  0.60171600  0.87222500  1
  H  1070  1  0.59069300  0.61041200  0.82405500  1
  H  1073  1  0.52806700  0.45069400  0.75273300  1
  H  1074  1  0.49619400  0.42696700  0.77335300  1
  H  1076  1  0.49541000  0.57660900  0.88606700  1
  H  1077  1  0.52722200  0.55300800  0.90692900  1
  H  1079  1  0.40919600  0.56911900  0.77156600  1
  H  1081  1  0.61657800  0.42320200  0.88702300  1
  H  1083  1  0.40883500  0.43422800  0.88748300  1
  H  1085  1  0.61643400  0.58124500  0.77321200  1
  H  1110  1  0.91327900  0.61021300  0.33411800  1
  H  1111  1  0.94873100  0.60118600  0.28630200  1
  H  1112  1  0.03594900  0.53789200  0.22526300  1
  H  1113  1  0.07081200  0.48942400  0.21783900  1
  H  1114  1  0.04007100  0.45193600  0.31214600  1
  H  1115  1  0.95088100  0.52212700  0.37946200  1
  H  1116  1  0.04006500  0.55079000  0.34865200  1
  H  1117  1  0.06796500  0.51295400  0.44370300  1
  H  1118  1  0.03309800  0.46478800  0.43527800  1
  H  1119  1  0.95169600  0.48147700  0.27923000  1
  H  1120  1  0.94702000  0.40218800  0.37211300  1
  H  1121  1  0.91238800  0.39363600  0.32360800  1
  H  1124  1  0.97747200  0.55221300  0.25214700  1
  H  1125  1  0.00907100  0.57598800  0.27312800  1
  H  1127  1  0.00727100  0.42694200  0.38661400  1
  H  1128  1  0.97532700  0.45080000  0.40697700  1
  H  1130  1  0.09818900  0.43617300  0.27039000  1
  H  1132  1  0.88720300  0.58165300  0.38503400  1
  H  1134  1  0.09454600  0.56888400  0.38829300  1
  H  1136  1  0.88730100  0.42317900  0.27245700  1
  H  1142  1  0.93461900  0.86892200  0.45854500  1
  H  1144  1  0.84867300  0.89644200  0.40336500  1
  H  1146  1  0.93441200  0.83003800  0.50233400  1
  H  1147  1  0.90239200  0.79939400  0.49918200  1
  H  1148  1  0.89759000  0.83437600  0.52679300  1
  H  1150  1  0.78780600  0.84499600  0.45136100  1
  H  1151  1  0.79874300  0.85306600  0.40908600  1
  H  1152  1  0.79189400  0.88701400  0.43746900  1
  H  1162  1  0.56857900  0.13463600  0.95831700  1
  H  1164  1  0.65475200  0.10630900  0.90390600  1
  H  1166  1  0.56870200  0.17378500  0.00189043  1
  H  1167  1  0.60082800  0.20431700  0.99868500  1
  H  1168  1  0.60540100  0.16950000  0.02654540  1
  H  1170  1  0.71553000  0.15793900  0.95184400  1
  H  1171  1  0.70483000  0.14954300  0.90957200  1
  H  1172  1  0.71136400  0.11581700  0.93829300  1
  H  1182  1  0.37557200  0.68501200  0.73621100  1
  H  1184  1  0.34940900  0.62154100  0.65575600  1
  H  1186  1  0.41715500  0.67265200  0.77559600  1
  H  1187  1  0.44921300  0.64604100  0.76010200  1
  H  1188  1  0.41663100  0.62950100  0.78607200  1
  H  1190  1  0.40608400  0.55170600  0.67691100  1
  H  1191  1  0.39766600  0.57696200  0.64135900  1
  H  1192  1  0.36411200  0.55922900  0.66511100  1
  H  1202  1  0.13338500  0.32013600  0.24034900  1
  H  1204  1  0.14570200  0.37788800  0.15255600  1
  H  1206  1  0.09604100  0.33325800  0.28329800  1
  H  1207  1  0.06089800  0.35704100  0.27010500  1
  H  1208  1  0.09544500  0.37706300  0.29048800  1
  H  1210  1  0.08747200  0.44591700  0.17499100  1
  H  1211  1  0.09344200  0.41823800  0.14078300  1
  H  1212  1  0.12822300  0.43987500  0.15884700  1
  H  1222  1  0.56884400  0.86906800  0.70037300  1
  H  1224  1  0.65449700  0.89637400  0.75611200  1
  H  1226  1  0.56925000  0.83023000  0.65656300  1
  H  1227  1  0.60133000  0.79964900  0.65969300  1
  H  1228  1  0.60612700  0.83475200  0.63222800  1
  H  1230  1  0.71561900  0.84513000  0.70825200  1
  H  1231  1  0.70444900  0.85302600  0.75049900  1
  H  1232  1  0.71144200  0.88708700  0.72228800  1
  H  1242  1  0.93497500  0.13470900  0.20108700  1
  H  1244  1  0.84876300  0.10672000  0.25561200  1
  H  1246  1  0.93489100  0.17350800  0.15722500  1
  H  1247  1  0.90316200  0.20441600  0.16070000  1
  H  1248  1  0.89794800  0.16967500  0.13285700  1
  H  1250  1  0.78812900  0.15857900  0.20776200  1
  H  1251  1  0.79884900  0.15006500  0.25000200  1
  H  1252  1  0.79213400  0.11641400  0.22123300  1
  H  1262  1  0.12833200  0.68482100  0.42330600  1
  H  1264  1  0.15383300  0.62162200  0.50419100  1
  H  1266  1  0.08695100  0.67241700  0.38373200  1
  H  1267  1  0.05471500  0.64598200  0.39915600  1
  H  1268  1  0.08739900  0.62921800  0.37345900  1
  H  1270  1  0.09702300  0.55190000  0.48304800  1
  H  1271  1  0.10534100  0.57729300  0.51852700  1
  H  1272  1  0.13895800  0.55932200  0.49504300  1
  H  1282  1  0.37512000  0.31837400  0.92274000  1
  H  1284  1  0.34936700  0.38181500  0.00335143  1
  H  1286  1  0.41662800  0.33066200  0.88325800  1
  H  1287  1  0.44880900  0.35715200  0.89870500  1
  H  1288  1  0.41620900  0.37382800  0.87284100  1
  H  1290  1  0.40628100  0.45145100  0.98223100  1
  H  1291  1  0.39775100  0.42616700  0.01772840  1
  H  1292  1  0.36427600  0.44411800  0.99402600  1
  H  1302  1  0.07224000  0.08673500  0.18001500  1
  H  1304  1  0.12911300  0.12074600  0.26243600  1
  H  1306  1  0.08058700  0.10450500  0.12499800  1
  H  1307  1  0.09575500  0.14620400  0.12298700  1
  H  1308  1  0.12342500  0.11152500  0.11572200  1
  H  1310  1  0.18859800  0.17335500  0.21428800  1
  H  1311  1  0.16188900  0.17759900  0.24963600  1
  H  1312  1  0.18941000  0.14245800  0.24607500  1
  H  1322  1  0.43102300  0.91559100  0.68092400  1
  H  1324  1  0.37298700  0.88344800  0.76327100  1
  H  1326  1  0.42288400  0.89730200  0.62609600  1
  H  1327  1  0.40638000  0.85612000  0.62416000  1
  H  1328  1  0.37991500  0.89166200  0.61654900  1
  H  1330  1  0.31266100  0.83172900  0.71519400  1
  H  1331  1  0.33909300  0.82716400  0.75071100  1
  H  1332  1  0.31236300  0.86286800  0.74675200  1
  H  1342  1  0.61655700  0.31691300  0.95662700  1
  H  1344  1  0.65384600  0.40231900  0.00667543  1
  H  1346  1  0.57655800  0.31876000  0.91390000  1
  H  1347  1  0.54813500  0.35267500  0.91778100  1
  H  1348  1  0.58189600  0.35472200  0.88836600  1
  H  1350  1  0.60501700  0.46540400  0.95882000  1
  H  1351  1  0.61483100  0.45548100  0.00095443  1
  H  1352  1  0.64738300  0.45836600  0.97034000  1
  H  1362  1  0.88556000  0.68683200  0.45463500  1
  H  1364  1  0.85149700  0.60155200  0.50716600  1
  H  1366  1  0.92491000  0.68509300  0.41127900  1
  H  1367  1  0.95359100  0.65130200  0.41438500  1
  H  1368  1  0.91891700  0.64900600  0.38607400  1
  H  1370  1  0.89993700  0.53864400  0.45868000  1
  H  1371  1  0.89147000  0.54903600  0.50100100  1
  H  1372  1  0.85790100  0.54508200  0.47163300  1
  H  1382  1  0.43078000  0.08742300  0.97935400  1
  H  1384  1  0.37379800  0.12067200  0.89670400  1
  H  1386  1  0.42224600  0.10539900  0.03426240  1
  H  1387  1  0.40634200  0.14682200  0.03623840  1
  H  1388  1  0.37926600  0.11165200  0.04341640  1
  H  1390  1  0.31365800  0.17280300  0.94453900  1
  H  1391  1  0.34043600  0.17722800  0.90926400  1
  H  1392  1  0.31325900  0.14182100  0.91283000  1
  H  1402  1  0.07259500  0.91634800  0.47885000  1
  H  1404  1  0.13000600  0.88320000  0.39645000  1
  H  1406  1  0.08094200  0.89843800  0.53380100  1
  H  1407  1  0.09660800  0.85692200  0.53572500  1
  H  1408  1  0.12383400  0.89191700  0.54318000  1
  H  1410  1  0.18990700  0.83104000  0.44457500  1
  H  1411  1  0.16333300  0.82665200  0.40914100  1
  H  1412  1  0.19049900  0.86205000  0.41288900  1
  H  1422  1  0.88610500  0.31637100  0.20377200  1
  H  1424  1  0.85133000  0.40182500  0.15200800  1
  H  1426  1  0.92555600  0.31799300  0.24700700  1
  H  1427  1  0.95451000  0.35148900  0.24334500  1
  H  1428  1  0.92027000  0.35424000  0.27213900  1
  H  1430  1  0.90034100  0.46458100  0.20008800  1
  H  1431  1  0.89121800  0.45433600  0.15787300  1
  H  1432  1  0.85810300  0.45816900  0.18777000  1
  H  1442  1  0.61720800  0.68668800  0.70323700  1
  H  1444  1  0.65289700  0.60119100  0.65217000  1
  H  1446  1  0.57750000  0.68501500  0.74626200  1
  H  1447  1  0.54899100  0.65110000  0.74294100  1
  H  1448  1  0.58325800  0.64909900  0.77176600  1
  H  1450  1  0.60426700  0.53833100  0.70054700  1
  H  1451  1  0.61338300  0.54835000  0.65827400  1
  H  1452  1  0.64647000  0.54503100  0.68826500  1
  C  1  1  0.01469000  0.03206300  0.00103000  1
  C  2  1  0.01454100  0.05565500  0.02801600  1
  C  3  1  0.96841000  0.02319600  0.05753900  1
  C  4  1  0.96861400  0.99817000  0.03186200  1
  C  5  1  0.94663600  0.96992400  0.03580700  1
  C  6  1  0.92483700  0.96670900  0.06391800  1
  C  7  1  0.92460800  0.99254800  0.08832400  1
  C  8  1  0.94629300  0.02026100  0.08533800  1
  C  9  1  0.03738500  0.08303500  0.02809700  1
  C  10  1  0.06067000  0.08720900  0.00185700  1
  C  11  1  0.06095800  0.06472900  0.97436000  1
  C  12  1  0.03788800  0.03752200  0.97409800  1
  C  13  1  0.01469900  0.97093300  0.00166600  1
  C  14  1  0.01452400  0.94731700  0.97469800  1
  C  15  1  0.96834900  0.97972800  0.94520300  1
  C  16  1  0.96861200  0.00481600  0.97082000  1
  C  17  1  0.94620200  0.98261800  0.91742500  1
  C  18  1  0.92456500  0.01036000  0.91438500  1
  C  19  1  0.92486300  0.03627300  0.93871200  1
  C  20  1  0.94668400  0.03309500  0.96681500  1
  C  21  1  0.03792700  0.96549000  0.02857800  1
  C  22  1  0.06104300  0.93832100  0.02827300  1
  C  23  1  0.06073300  0.91583100  0.00078700  1
  C  24  1  0.03738400  0.91995400  0.97460000  1
  C  37  1  0.99156600  0.00149700  0.00134300  1
  C  38  1  0.99104600  0.95010400  0.94584100  1
  C  41  1  0.99112200  0.05281400  0.05692100  1
  C  52  1  0.48845200  0.97105400  0.50174100  1
  C  53  1  0.48850500  0.94740600  0.52868100  1
  C  54  1  0.53474500  0.97964000  0.55827700  1
  C  55  1  0.53461400  0.00474300  0.53267600  1
  C  56  1  0.55664200  0.03293500  0.53672100  1
  C  57  1  0.57844300  0.03601400  0.56485100  1
  C  58  1  0.57863000  0.01007400  0.58915100  1
  C  59  1  0.55687400  0.98242600  0.58608000  1
  C  60  1  0.46556100  0.92011100  0.52870300  1
  C  61  1  0.44225800  0.91607800  0.50245800  1
  C  62  1  0.44205800  0.93861900  0.47501400  1
  C  63  1  0.46523700  0.96573000  0.47479700  1
  C  64  1  0.48870400  0.03218400  0.50237700  1
  C  65  1  0.48897400  0.05574700  0.47536500  1
  C  66  1  0.53500700  0.02308200  0.44591900  1
  C  67  1  0.53469700  0.99809500  0.47163500  1
  C  68  1  0.55711700  0.02001500  0.41812700  1
  C  69  1  0.57870600  0.99222200  0.41519700  1
  C  70  1  0.57841100  0.96645400  0.43967900  1
  C  71  1  0.55659700  0.96977700  0.46775900  1
  C  72  1  0.46547700  0.03774700  0.52926400  1
  C  73  1  0.44250200  0.06503100  0.52892800  1
  C  74  1  0.44290900  0.08748300  0.50141300  1
  C  75  1  0.46622400  0.08320400  0.47521800  1
  C  88  1  0.51170200  0.00152400  0.50211200  1
  C  89  1  0.51240600  0.05278300  0.44648200  1
  C  92  1  0.51194900  0.95008800  0.55757800  1
  C  103  1  0.22104300  0.78488600  0.25098400  1
  C  104  1  0.19643800  0.78374600  0.27704500  1
  C  105  1  0.22882700  0.73832300  0.30743200  1
  C  106  1  0.25460100  0.73898700  0.28252900  1
  C  107  1  0.28382900  0.71874000  0.28833800  1
  C  108  1  0.28820200  0.69966400  0.31829900  1
  C  109  1  0.26084100  0.69782200  0.34100300  1
  C  110  1  0.23166600  0.71695400  0.33577500  1
  C  111  1  0.16804700  0.80523900  0.27603300  1
  C  112  1  0.16324400  0.82742100  0.24903200  1
  C  113  1  0.18637100  0.82829000  0.22209300  1
  C  114  1  0.21525800  0.80740400  0.22350500  1
  C  115  1  0.28234000  0.78498200  0.25264500  1
  C  116  1  0.30686200  0.78399300  0.22649900  1
  C  117  1  0.27466300  0.73835600  0.19623200  1
  C  118  1  0.24890600  0.73894900  0.22115300  1
  C  119  1  0.27188700  0.71694300  0.16791400  1
  C  120  1  0.24275100  0.69775400  0.16269300  1
  C  121  1  0.21537900  0.69956100  0.18538700  1
  C  122  1  0.21972700  0.71862700  0.21535800  1
  C  123  1  0.28808900  0.80752500  0.28010900  1
  C  124  1  0.31678400  0.82869100  0.28135600  1
  C  125  1  0.33977700  0.82801200  0.25429500  1
  C  126  1  0.33506800  0.80572900  0.22736200  1
  C  139  1  0.25172700  0.76186300  0.25183200  1
  C  140  1  0.30476200  0.76027100  0.19784100  1
  C  143  1  0.19862300  0.76008700  0.30574900  1
  C  154  1  0.28177700  0.21880800  0.75050200  1
  C  155  1  0.30616500  0.21974800  0.77677300  1
  C  156  1  0.27384800  0.26539400  0.80690500  1
  C  157  1  0.24824300  0.26488200  0.78182500  1
  C  158  1  0.21903300  0.28520900  0.78747800  1
  C  159  1  0.21449500  0.30412100  0.81750900  1
  C  160  1  0.24173400  0.30589000  0.84036700  1
  C  161  1  0.27091300  0.28673900  0.83525700  1
  C  162  1  0.33436900  0.19800300  0.77601800  1
  C  163  1  0.33922900  0.17579200  0.74905100  1
  C  164  1  0.31637800  0.17517700  0.72186400  1
  C  165  1  0.28765000  0.19629700  0.72304000  1
  C  166  1  0.22048200  0.21890800  0.75202100  1
  C  167  1  0.19586700  0.22006800  0.72597300  1
  C  168  1  0.22835000  0.26539900  0.69553300  1
  C  169  1  0.25410100  0.26474800  0.72045900  1
  C  170  1  0.23125800  0.28670100  0.66714500  1
  C  171  1  0.26048300  0.30574900  0.66189100  1
  C  172  1  0.28781600  0.30392200  0.68463400  1
  C  173  1  0.28337000  0.28493400  0.71463900  1
  C  174  1  0.21467000  0.19643300  0.77952600  1
  C  175  1  0.18573500  0.17562200  0.78100700  1
  C  176  1  0.16259800  0.17649800  0.75406800  1
  C  177  1  0.16743300  0.19863400  0.72703300  1
  C  190  1  0.25116400  0.24192700  0.75119100  1
  C  191  1  0.19809600  0.24370000  0.69724700  1
  C  194  1  0.30390700  0.24341100  0.80546900  1
  C  205  1  0.78215300  0.23133100  0.75274300  1
  C  206  1  0.80535800  0.22987700  0.72547300  1
  C  207  1  0.77388300  0.27595300  0.69475600  1
  C  208  1  0.74920300  0.27738100  0.72071600  1
  C  209  1  0.72181400  0.30037900  0.71663800  1
  C  210  1  0.71931800  0.32193500  0.68826800  1
  C  211  1  0.74483900  0.32052400  0.66355200  1
  C  212  1  0.77150900  0.29756700  0.66652500  1
  C  213  1  0.83263300  0.20694300  0.72631400  1
  C  214  1  0.83768700  0.18586600  0.75421400  1
  C  215  1  0.81622700  0.18782100  0.78248400  1
  C  216  1  0.78838600  0.21015000  0.78119200  1
  C  217  1  0.72102900  0.23168300  0.75047200  1
  C  218  1  0.69787300  0.23080000  0.77780800  1
  C  219  1  0.72993500  0.27684600  0.80795200  1
  C  220  1  0.75454300  0.27773400  0.78189800  1
  C  221  1  0.73264000  0.29872100  0.83596100  1
  C  222  1  0.75956700  0.32142000  0.83860900  1
  C  223  1  0.78498700  0.32231400  0.81376900  1
  C  224  1  0.78217300  0.30049700  0.78563600  1
  C  225  1  0.71450800  0.21023900  0.72228600  1
  C  226  1  0.68641800  0.18820300  0.72129900  1
  C  227  1  0.66499000  0.18683900  0.74963200  1
  C  228  1  0.67034500  0.20816100  0.77728800  1
  C  241  1  0.75172900  0.25461600  0.75145400  1
  C  242  1  0.70110000  0.25313700  0.80753300  1
  C  245  1  0.80245500  0.25193600  0.69550800  1
  C  256  1  0.72126900  0.77184400  0.25265500  1
  C  257  1  0.69829400  0.77295000  0.22517800  1
  C  258  1  0.73030600  0.72686100  0.19505400  1
  C  259  1  0.75478000  0.72578900  0.22122800  1
  C  260  1  0.78233000  0.70291700  0.21755200  1
  C  261  1  0.78517100  0.68117900  0.18936500  1
  C  262  1  0.75987500  0.68224400  0.16440900  1
  C  263  1  0.73304400  0.70505700  0.16699500  1
  C  264  1  0.67088500  0.79572800  0.22560000  1
  C  265  1  0.66545700  0.81696900  0.25330100  1
  C  266  1  0.68667500  0.81538600  0.28177700  1
  C  267  1  0.71465500  0.79319400  0.28089400  1
  C  268  1  0.78240800  0.77197300  0.25073700  1
  C  269  1  0.80542100  0.77326300  0.27817600  1
  C  270  1  0.77363600  0.72715100  0.30849700  1
  C  271  1  0.74910900  0.72591000  0.28238000  1
  C  272  1  0.77105200  0.70540600  0.33661200  1
  C  273  1  0.74430700  0.68250600  0.33932300  1
  C  274  1  0.71895000  0.68126500  0.31443500  1
  C  275  1  0.72164500  0.70295500  0.28618800  1
  C  276  1  0.78891900  0.79322900  0.22240300  1
  C  277  1  0.81683200  0.81549500  0.22138800  1
  C  278  1  0.83806800  0.81728900  0.24984100  1
  C  279  1  0.83275600  0.79613100  0.27762600  1
  C  292  1  0.75189000  0.74879400  0.25175300  1
  C  293  1  0.80227100  0.75109300  0.30803300  1
  C  296  1  0.70158500  0.75070400  0.19539100  1
  C  307  1  0.53209300  0.53242800  0.50002500  1
  C  308  1  0.53279200  0.55647800  0.52658100  1
  C  309  1  0.48790700  0.52436500  0.55830500  1
  C  310  1  0.48623100  0.49958900  0.53243600  1
  C  311  1  0.46480800  0.47114800  0.53782400  1
  C  312  1  0.44685100  0.46653500  0.56835900  1
  C  313  1  0.44803400  0.49240400  0.59274000  1
  C  314  1  0.46814000  0.52097900  0.58774800  1
  C  315  1  0.55484300  0.58444000  0.52495100  1
  C  316  1  0.57553400  0.58951700  0.49677000  1
  C  317  1  0.57419900  0.56719800  0.46914900  1
  C  318  1  0.55305400  0.53852800  0.47139800  1
  C  319  1  0.53224100  0.47134700  0.50351500  1
  C  320  1  0.53324100  0.44727500  0.47699200  1
  C  321  1  0.48846700  0.47917500  0.44489700  1
  C  322  1  0.48646100  0.50394200  0.47075200  1
  C  323  1  0.46895000  0.48249900  0.41528000  1
  C  324  1  0.44874300  0.51097500  0.41013500  1
  C  325  1  0.44720100  0.53681700  0.43452800  1
  C  326  1  0.46494200  0.53227700  0.46520500  1
  C  327  1  0.55304900  0.46538900  0.53228700  1
  C  328  1  0.57433000  0.43683700  0.53470200  1
  C  329  1  0.57594000  0.41447300  0.50713200  1
  C  330  1  0.55540600  0.41941200  0.47881200  1
  C  343  1  0.50902900  0.50182500  0.50168300  1
  C  344  1  0.51152500  0.44988600  0.44677700  1
  C  347  1  0.51085400  0.55375500  0.55662200  1
  C  358  1  0.97164000  0.47111000  0.99992200  1
  C  359  1  0.97042400  0.44718100  0.02656800  1
  C  360  1  0.01506800  0.47914500  0.05877800  1
  C  361  1  0.01723500  0.50381300  0.03284400  1
  C  362  1  0.03877500  0.53213000  0.03838800  1
  C  363  1  0.05638700  0.53674900  0.06912500  1
  C  364  1  0.05468400  0.51100500  0.09360800  1
  C  365  1  0.03444400  0.48254900  0.08847800  1
  C  366  1  0.94817000  0.41938600  0.02478500  1
  C  367  1  0.92773200  0.41439000  0.99640600  1
  C  368  1  0.92957400  0.43659000  0.96871800  1
  C  369  1  0.95097900  0.46505600  0.97106500  1
  C  370  1  0.97188500  0.53220600  0.00302900  1
  C  371  1  0.97142500  0.55606900  0.97630100  1
  C  372  1  0.01662100  0.52375200  0.94520300  1
  C  373  1  0.01795000  0.49910700  0.97122300  1
  C  374  1  0.03678600  0.52020600  0.91603000  1
  C  375  1  0.05704300  0.49164900  0.91148500  1
  C  376  1  0.05789900  0.46602000  0.93609500  1
  C  377  1  0.03940400  0.47062800  0.96627500  1
  C  378  1  0.95070900  0.53851000  0.03145100  1
  C  379  1  0.92957400  0.56721100  0.03335400  1
  C  380  1  0.92845100  0.58932000  0.00554900  1
  C  381  1  0.94936400  0.58404300  0.97756800  1
  C  394  1  0.99489200  0.50155700  0.00175600  1
  C  395  1  0.99363300  0.55313400  0.94646700  1
  C  398  1  0.99198300  0.44988100  0.05688700  1
  C  409  1  0.89487000  0.88652900  0.09981000  1
  C  410  1  0.90927900  0.86688000  0.12586700  1
  C  411  1  0.88975400  0.84559900  0.14688100  1
  C  412  1  0.85419200  0.84360300  0.14170200  1
  C  413  1  0.83911100  0.86234000  0.11497900  1
  C  415  1  0.85971800  0.88330400  0.09460400  1
  C  417  1  0.90710400  0.82634400  0.17419100  1
  C  421  1  0.80236200  0.86164600  0.10695000  1
  C  425  1  0.91540400  0.90960200  0.08076100  1
  C  426  1  0.83410900  0.82339900  0.16367600  1
  C  429  1  0.60845200  0.11665400  0.59997000  1
  C  430  1  0.59394600  0.13658400  0.62575300  1
  C  431  1  0.61343800  0.15792100  0.64674500  1
  C  432  1  0.64903900  0.15973200  0.64176600  1
  C  433  1  0.66421300  0.14072300  0.61528800  1
  C  435  1  0.64364600  0.11968000  0.59495500  1
  C  437  1  0.59601800  0.17740100  0.67384800  1
  C  441  1  0.70101200  0.14120200  0.60748800  1
  C  445  1  0.58797800  0.09346300  0.58101000  1
  C  446  1  0.66906300  0.17997800  0.66374600  1
  C  449  1  0.35897600  0.65759600  0.36563600  1
  C  450  1  0.37853200  0.66294600  0.39505600  1
  C  451  1  0.40215800  0.63903000  0.40718500  1
  C  452  1  0.40642000  0.60809100  0.38937100  1
  C  453  1  0.38727100  0.60214500  0.35942300  1
  C  455  1  0.36395600  0.62684900  0.34835000  1
  C  457  1  0.42233400  0.64737300  0.43785900  1
  C  461  1  0.38908800  0.57072900  0.33873000  1
  C  465  1  0.33312200  0.68108100  0.35591300  1
  C  466  1  0.43117100  0.58427800  0.39993900  1
  C  469  1  0.14334300  0.34464700  0.86601500  1
  C  470  1  0.12753500  0.34073100  0.89785800  1
  C  471  1  0.10408200  0.36427600  0.91097300  1
  C  472  1  0.09575000  0.39332000  0.89151100  1
  C  473  1  0.11080600  0.39773900  0.85907000  1
  C  475  1  0.13431400  0.37356000  0.84721400  1
  C  477  1  0.08831900  0.35742900  0.94448900  1
  C  481  1  0.10445800  0.42712100  0.83636500  1
  C  485  1  0.16923000  0.32151100  0.85520600  1
  C  486  1  0.07130800  0.41679200  0.90352300  1
  C  489  1  0.60842400  0.88658000  0.40324800  1
  C  490  1  0.59415800  0.86701900  0.37704300  1
  C  491  1  0.61379100  0.84579800  0.35606700  1
  C  492  1  0.64932600  0.84378400  0.36141900  1
  C  493  1  0.66426100  0.86242400  0.38829300  1
  C  495  1  0.64354700  0.88332200  0.40862800  1
  C  497  1  0.59656500  0.82660100  0.32863800  1
  C  501  1  0.70096700  0.86171000  0.39651500  1
  C  505  1  0.58775600  0.90957000  0.42225600  1
  C  506  1  0.66954300  0.82363600  0.33951700  1
  C  509  1  0.89508400  0.11690100  0.90338200  1
  C  510  1  0.90962300  0.13675600  0.87755500  1
  C  511  1  0.89018300  0.15815800  0.85657900  1
  C  512  1  0.85460300  0.16012400  0.86161600  1
  C  513  1  0.83938300  0.14112700  0.88807900  1
  C  515  1  0.85990000  0.12003300  0.90841100  1
  C  517  1  0.90762100  0.17744900  0.82935200  1
  C  521  1  0.80259700  0.14175100  0.89593500  1
  C  525  1  0.91552000  0.09368100  0.92235700  1
  C  526  1  0.83463100  0.18042400  0.83964100  1
  C  529  1  0.14461000  0.65754600  0.13796500  1
  C  530  1  0.12522900  0.66282500  0.10841400  1
  C  531  1  0.10159600  0.63893400  0.09625600  1
  C  532  1  0.09712600  0.60809300  0.11418600  1
  C  533  1  0.11608400  0.60221800  0.14426700  1
  C  535  1  0.13942800  0.62688900  0.15535700  1
  C  537  1  0.08163300  0.64719900  0.06542000  1
  C  541  1  0.11403600  0.57090500  0.16509900  1
  C  545  1  0.17047600  0.68100500  0.14773100  1
  C  546  1  0.07235800  0.58431600  0.10358300  1
  C  549  1  0.35870100  0.34579100  0.63725600  1
  C  550  1  0.37817800  0.34041500  0.60778500  1
  C  551  1  0.40184000  0.36427900  0.59562200  1
  C  552  1  0.40625300  0.39517500  0.61346800  1
  C  553  1  0.38720800  0.40113300  0.64347900  1
  C  555  1  0.36382400  0.37650000  0.65456500  1
  C  557  1  0.42191000  0.35591300  0.56488200  1
  C  561  1  0.38919100  0.43249600  0.66423800  1
  C  565  1  0.33280400  0.32235900  0.64701200  1
  C  566  1  0.43100700  0.41895500  0.60281900  1
  C  569  1  0.09788700  0.09997000  0.89651500  1
  C  570  1  0.09191600  0.10056400  0.86142400  1
  C  571  1  0.11155800  0.12030800  0.83909300  1
  C  572  1  0.13857300  0.14016300  0.85222300  1
  C  573  1  0.14542200  0.13962600  0.88752300  1
  C  575  1  0.12501800  0.11954500  0.90890100  1
  C  577  1  0.10221900  0.12057800  0.80267000  1
  C  581  1  0.17286000  0.15945700  0.90398200  1
  C  585  1  0.07505500  0.08261800  0.91848500  1
  C  586  1  0.15503800  0.16398400  0.83102000  1
  C  589  1  0.40484800  0.90326100  0.39737300  1
  C  590  1  0.41100800  0.90225100  0.36232500  1
  C  591  1  0.39109400  0.88273400  0.34003400  1
  C  592  1  0.36356900  0.86357200  0.35315500  1
  C  593  1  0.35655900  0.86451600  0.38841200  1
  C  595  1  0.37726700  0.88432100  0.40975400  1
  C  597  1  0.40069700  0.88197700  0.30368700  1
  C  601  1  0.32861000  0.84541000  0.40487100  1
  C  605  1  0.42788800  0.92037100  0.41932300  1
  C  606  1  0.34666400  0.83997400  0.33201700  1
  C  609  1  0.63886800  0.35623100  0.65658700  1
  C  610  1  0.61673900  0.34248700  0.63222600  1
  C  611  1  0.59616200  0.36292100  0.61137400  1
  C  612  1  0.59741100  0.39870000  0.61511600  1
  C  613  1  0.61867000  0.41319100  0.64022600  1
  C  615  1  0.63879300  0.39169000  0.66049800  1
  C  617  1  0.57455500  0.34623700  0.58543400  1
  C  621  1  0.62145600  0.45015400  0.64667600  1
  C  625  1  0.66153800  0.33472200  0.67497100  1
  C  626  1  0.57889300  0.41963100  0.59248200  1
  C  629  1  0.86483900  0.64756700  0.15588400  1
  C  630  1  0.88597100  0.66132300  0.13065500  1
  C  631  1  0.90630900  0.64095000  0.10951800  1
  C  632  1  0.90580900  0.60522400  0.11381000  1
  C  633  1  0.88566300  0.59073600  0.13981600  1
  C  635  1  0.86574200  0.61217900  0.16035100  1
  C  637  1  0.92702000  0.65762100  0.08285300  1
  C  641  1  0.88380900  0.55383300  0.14690500  1
  C  645  1  0.84237900  0.66901300  0.17462600  1
  C  646  1  0.92434500  0.58436600  0.09115600  1
  C  649  1  0.40511800  0.10028200  0.60662200  1
  C  650  1  0.41100000  0.10104400  0.64172500  1
  C  651  1  0.39110400  0.12065100  0.66395300  1
  C  652  1  0.36391000  0.14018500  0.65070900  1
  C  653  1  0.35718000  0.13950700  0.61538900  1
  C  655  1  0.37784000  0.11957800  0.59411800  1
  C  657  1  0.40034800  0.12108800  0.70039600  1
  C  661  1  0.32959200  0.15902000  0.59879400  1
  C  665  1  0.42814300  0.08304400  0.58476000  1
  C  666  1  0.34706800  0.16383800  0.67181700  1
  C  669  1  0.09846500  0.90352600  0.10622200  1
  C  670  1  0.09245200  0.90278100  0.14130600  1
  C  671  1  0.11223500  0.88315300  0.16361600  1
  C  672  1  0.13949100  0.86362700  0.15048000  1
  C  673  1  0.14641100  0.86435200  0.11520300  1
  C  675  1  0.12582900  0.88426800  0.09384300  1
  C  677  1  0.10278500  0.88265000  0.20000600  1
  C  681  1  0.17408100  0.84484200  0.09874800  1
  C  685  1  0.07543700  0.92066100  0.08427600  1
  C  686  1  0.15607000  0.83981000  0.17160600  1
  C  689  1  0.86499800  0.35572400  0.84679300  1
  C  690  1  0.88642100  0.34189700  0.87173800  1
  C  691  1  0.90701100  0.36220200  0.89269900  1
  C  692  1  0.90646800  0.39794600  0.88852800  1
  C  693  1  0.88593900  0.41251500  0.86286500  1
  C  695  1  0.86580500  0.39113500  0.84247700  1
  C  697  1  0.92793400  0.34544500  0.91914700  1
  C  701  1  0.88396000  0.44944200  0.85593300  1
  C  705  1  0.84236900  0.33435900  0.82816100  1
  C  706  1  0.92513300  0.41876300  0.91113700  1
  C  709  1  0.63871500  0.64730700  0.34659300  1
  C  710  1  0.61707200  0.66113900  0.37134500  1
  C  711  1  0.59663600  0.64079100  0.39241400  1
  C  712  1  0.59752400  0.60502200  0.38850000  1
  C  713  1  0.61821500  0.59045600  0.36296900  1
  C  715  1  0.63823000  0.61186900  0.34249700  1
  C  717  1  0.57548600  0.65753800  0.41868500  1
  C  721  1  0.62054200  0.55350000  0.35631200  1
  C  725  1  0.66131600  0.66870000  0.32797700  1
  C  726  1  0.57902400  0.58421000  0.41122700  1
  C  729  1  0.01469000  0.03206300  0.32909700  1
  C  730  1  0.01454100  0.05565500  0.35608300  1
  C  731  1  0.96841000  0.02319600  0.38560600  1
  C  732  1  0.96861400  0.99817000  0.35992900  1
  C  733  1  0.94663600  0.96992400  0.36387400  1
  C  734  1  0.92483700  0.96670900  0.39198500  1
  C  735  1  0.92460800  0.99254800  0.41639100  1
  C  736  1  0.94629300  0.02026100  0.41340500  1
  C  737  1  0.03738500  0.08303500  0.35616400  1
  C  738  1  0.06067000  0.08720900  0.32992400  1
  C  739  1  0.06095800  0.06472900  0.30242700  1
  C  740  1  0.03788800  0.03752200  0.30216500  1
  C  741  1  0.01469900  0.97093300  0.32973300  1
  C  742  1  0.01452400  0.94731700  0.30276500  1
  C  743  1  0.96834900  0.97972800  0.27327000  1
  C  744  1  0.96861200  0.00481600  0.29888700  1
  C  745  1  0.94620200  0.98261800  0.24549200  1
  C  746  1  0.92456500  0.01036000  0.24245200  1
  C  747  1  0.92486300  0.03627300  0.26677900  1
  C  748  1  0.94668400  0.03309500  0.29488200  1
  C  749  1  0.03792700  0.96549000  0.35664500  1
  C  750  1  0.06104300  0.93832100  0.35634000  1
  C  751  1  0.06073300  0.91583100  0.32885400  1
  C  752  1  0.03738400  0.91995400  0.30266700  1
  C  765  1  0.99156600  0.00149700  0.32941000  1
  C  766  1  0.99104600  0.95010400  0.27390800  1
  C  769  1  0.99112200  0.05281400  0.38498800  1
  C  780  1  0.48845200  0.97105400  0.82980800  1
  C  781  1  0.48850500  0.94740600  0.85674800  1
  C  782  1  0.53474500  0.97964000  0.88634400  1
  C  783  1  0.53461400  0.00474300  0.86074300  1
  C  784  1  0.55664200  0.03293500  0.86478800  1
  C  785  1  0.57844300  0.03601400  0.89291800  1
  C  786  1  0.57863000  0.01007400  0.91721800  1
  C  787  1  0.55687400  0.98242600  0.91414700  1
  C  788  1  0.46556100  0.92011100  0.85677000  1
  C  789  1  0.44225800  0.91607800  0.83052500  1
  C  790  1  0.44205800  0.93861900  0.80308100  1
  C  791  1  0.46523700  0.96573000  0.80286400  1
  C  792  1  0.48870400  0.03218400  0.83044400  1
  C  793  1  0.48897400  0.05574700  0.80343200  1
  C  794  1  0.53500700  0.02308200  0.77398600  1
  C  795  1  0.53469700  0.99809500  0.79970200  1
  C  796  1  0.55711700  0.02001500  0.74619400  1
  C  797  1  0.57870600  0.99222200  0.74326400  1
  C  798  1  0.57841100  0.96645400  0.76774600  1
  C  799  1  0.55659700  0.96977700  0.79582600  1
  C  800  1  0.46547700  0.03774700  0.85733100  1
  C  801  1  0.44250200  0.06503100  0.85699500  1
  C  802  1  0.44290900  0.08748300  0.82948000  1
  C  803  1  0.46622400  0.08320400  0.80328500  1
  C  816  1  0.51170200  0.00152400  0.83017900  1
  C  817  1  0.51240600  0.05278300  0.77454900  1
  C  820  1  0.51194900  0.95008800  0.88564500  1
  C  831  1  0.22104300  0.78488600  0.57905100  1
  C  832  1  0.19643800  0.78374600  0.60511200  1
  C  833  1  0.22882700  0.73832300  0.63549900  1
  C  834  1  0.25460100  0.73898700  0.61059600  1
  C  835  1  0.28382900  0.71874000  0.61640500  1
  C  836  1  0.28820200  0.69966400  0.64636600  1
  C  837  1  0.26084100  0.69782200  0.66907000  1
  C  838  1  0.23166600  0.71695400  0.66384200  1
  C  839  1  0.16804700  0.80523900  0.60410000  1
  C  840  1  0.16324400  0.82742100  0.57709900  1
  C  841  1  0.18637100  0.82829000  0.55016000  1
  C  842  1  0.21525800  0.80740400  0.55157200  1
  C  843  1  0.28234000  0.78498200  0.58071200  1
  C  844  1  0.30686200  0.78399300  0.55456600  1
  C  845  1  0.27466300  0.73835600  0.52429900  1
  C  846  1  0.24890600  0.73894900  0.54922000  1
  C  847  1  0.27188700  0.71694300  0.49598100  1
  C  848  1  0.24275100  0.69775400  0.49076000  1
  C  849  1  0.21537900  0.69956100  0.51345400  1
  C  850  1  0.21972700  0.71862700  0.54342500  1
  C  851  1  0.28808900  0.80752500  0.60817600  1
  C  852  1  0.31678400  0.82869100  0.60942300  1
  C  853  1  0.33977700  0.82801200  0.58236200  1
  C  854  1  0.33506800  0.80572900  0.55542900  1
  C  867  1  0.25172700  0.76186300  0.57989900  1
  C  868  1  0.30476200  0.76027100  0.52590800  1
  C  871  1  0.19862300  0.76008700  0.63381600  1
  C  882  1  0.28177700  0.21880800  0.07856940  1
  C  883  1  0.30616500  0.21974800  0.10484000  1
  C  884  1  0.27384800  0.26539400  0.13497200  1
  C  885  1  0.24824300  0.26488200  0.10989200  1
  C  886  1  0.21903300  0.28520900  0.11554500  1
  C  887  1  0.21449500  0.30412100  0.14557600  1
  C  888  1  0.24173400  0.30589000  0.16843400  1
  C  889  1  0.27091300  0.28673900  0.16332400  1
  C  890  1  0.33436900  0.19800300  0.10408500  1
  C  891  1  0.33922900  0.17579200  0.07711840  1
  C  892  1  0.31637800  0.17517700  0.04993140  1
  C  893  1  0.28765000  0.19629700  0.05110740  1
  C  894  1  0.22048200  0.21890800  0.08008840  1
  C  895  1  0.19586700  0.22006800  0.05404040  1
  C  896  1  0.22835000  0.26539900  0.02360040  1
  C  897  1  0.25410100  0.26474800  0.04852640  1
  C  898  1  0.23125800  0.28670100  0.99521200  1
  C  899  1  0.26048300  0.30574900  0.98995800  1
  C  900  1  0.28781600  0.30392200  0.01270140  1
  C  901  1  0.28337000  0.28493400  0.04270640  1
  C  902  1  0.21467000  0.19643300  0.10759300  1
  C  903  1  0.18573500  0.17562200  0.10907400  1
  C  904  1  0.16259800  0.17649800  0.08213540  1
  C  905  1  0.16743300  0.19863400  0.05510040  1
  C  918  1  0.25116400  0.24192700  0.07925840  1
  C  919  1  0.19809600  0.24370000  0.02531440  1
  C  922  1  0.30390700  0.24341100  0.13353600  1
  C  933  1  0.78215300  0.23133100  0.08081040  1
  C  934  1  0.80535800  0.22987700  0.05354040  1
  C  935  1  0.77388300  0.27595300  0.02282340  1
  C  936  1  0.74920300  0.27738100  0.04878340  1
  C  937  1  0.72181400  0.30037900  0.04470540  1
  C  938  1  0.71931800  0.32193500  0.01633540  1
  C  939  1  0.74483900  0.32052400  0.99161900  1
  C  940  1  0.77150900  0.29756700  0.99459200  1
  C  941  1  0.83263300  0.20694300  0.05438140  1
  C  942  1  0.83768700  0.18586600  0.08228140  1
  C  943  1  0.81622700  0.18782100  0.11055100  1
  C  944  1  0.78838600  0.21015000  0.10925900  1
  C  945  1  0.72102900  0.23168300  0.07853940  1
  C  946  1  0.69787300  0.23080000  0.10587500  1
  C  947  1  0.72993500  0.27684600  0.13601900  1
  C  948  1  0.75454300  0.27773400  0.10996500  1
  C  949  1  0.73264000  0.29872100  0.16402800  1
  C  950  1  0.75956700  0.32142000  0.16667600  1
  C  951  1  0.78498700  0.32231400  0.14183600  1
  C  952  1  0.78217300  0.30049700  0.11370300  1
  C  953  1  0.71450800  0.21023900  0.05035340  1
  C  954  1  0.68641800  0.18820300  0.04936640  1
  C  955  1  0.66499000  0.18683900  0.07769940  1
  C  956  1  0.67034500  0.20816100  0.10535500  1
  C  969  1  0.75172900  0.25461600  0.07952140  1
  C  970  1  0.70110000  0.25313700  0.13560000  1
  C  973  1  0.80245500  0.25193600  0.02357540  1
  C  984  1  0.72126900  0.77184400  0.58072200  1
  C  985  1  0.69829400  0.77295000  0.55324500  1
  C  986  1  0.73030600  0.72686100  0.52312100  1
  C  987  1  0.75478000  0.72578900  0.54929500  1
  C  988  1  0.78233000  0.70291700  0.54561900  1
  C  989  1  0.78517100  0.68117900  0.51743200  1
  C  990  1  0.75987500  0.68224400  0.49247600  1
  C  991  1  0.73304400  0.70505700  0.49506200  1
  C  992  1  0.67088500  0.79572800  0.55366700  1
  C  993  1  0.66545700  0.81696900  0.58136800  1
  C  994  1  0.68667500  0.81538600  0.60984400  1
  C  995  1  0.71465500  0.79319400  0.60896100  1
  C  996  1  0.78240800  0.77197300  0.57880400  1
  C  997  1  0.80542100  0.77326300  0.60624300  1
  C  998  1  0.77363600  0.72715100  0.63656400  1
  C  999  1  0.74910900  0.72591000  0.61044700  1
  C  1000  1  0.77105200  0.70540600  0.66467900  1
  C  1001  1  0.74430700  0.68250600  0.66739000  1
  C  1002  1  0.71895000  0.68126500  0.64250200  1
  C  1003  1  0.72164500  0.70295500  0.61425500  1
  C  1004  1  0.78891900  0.79322900  0.55047000  1
  C  1005  1  0.81683200  0.81549500  0.54945500  1
  C  1006  1  0.83806800  0.81728900  0.57790800  1
  C  1007  1  0.83275600  0.79613100  0.60569300  1
  C  1020  1  0.75189000  0.74879400  0.57982000  1
  C  1021  1  0.80227100  0.75109300  0.63610000  1
  C  1024  1  0.70158500  0.75070400  0.52345800  1
  C  1035  1  0.53209300  0.53242800  0.82809200  1
  C  1036  1  0.53279200  0.55647800  0.85464800  1
  C  1037  1  0.48790700  0.52436500  0.88637200  1
  C  1038  1  0.48623100  0.49958900  0.86050300  1
  C  1039  1  0.46480800  0.47114800  0.86589100  1
  C  1040  1  0.44685100  0.46653500  0.89642600  1
  C  1041  1  0.44803400  0.49240400  0.92080700  1
  C  1042  1  0.46814000  0.52097900  0.91581500  1
  C  1043  1  0.55484300  0.58444000  0.85301800  1
  C  1044  1  0.57553400  0.58951700  0.82483700  1
  C  1045  1  0.57419900  0.56719800  0.79721600  1
  C  1046  1  0.55305400  0.53852800  0.79946500  1
  C  1047  1  0.53224100  0.47134700  0.83158200  1
  C  1048  1  0.53324100  0.44727500  0.80505900  1
  C  1049  1  0.48846700  0.47917500  0.77296400  1
  C  1050  1  0.48646100  0.50394200  0.79881900  1
  C  1051  1  0.46895000  0.48249900  0.74334700  1
  C  1052  1  0.44874300  0.51097500  0.73820200  1
  C  1053  1  0.44720100  0.53681700  0.76259500  1
  C  1054  1  0.46494200  0.53227700  0.79327200  1
  C  1055  1  0.55304900  0.46538900  0.86035400  1
  C  1056  1  0.57433000  0.43683700  0.86276900  1
  C  1057  1  0.57594000  0.41447300  0.83519900  1
  C  1058  1  0.55540600  0.41941200  0.80687900  1
  C  1071  1  0.50902900  0.50182500  0.82975000  1
  C  1072  1  0.51152500  0.44988600  0.77484400  1
  C  1075  1  0.51085400  0.55375500  0.88468900  1
  C  1086  1  0.97164000  0.47111000  0.32798900  1
  C  1087  1  0.97042400  0.44718100  0.35463500  1
  C  1088  1  0.01506800  0.47914500  0.38684500  1
  C  1089  1  0.01723500  0.50381300  0.36091100  1
  C  1090  1  0.03877500  0.53213000  0.36645500  1
  C  1091  1  0.05638700  0.53674900  0.39719200  1
  C  1092  1  0.05468400  0.51100500  0.42167500  1
  C  1093  1  0.03444400  0.48254900  0.41654500  1
  C  1094  1  0.94817000  0.41938600  0.35285200  1
  C  1095  1  0.92773200  0.41439000  0.32447300  1
  C  1096  1  0.92957400  0.43659000  0.29678500  1
  C  1097  1  0.95097900  0.46505600  0.29913200  1
  C  1098  1  0.97188500  0.53220600  0.33109600  1
  C  1099  1  0.97142500  0.55606900  0.30436800  1
  C  1100  1  0.01662100  0.52375200  0.27327000  1
  C  1101  1  0.01795000  0.49910700  0.29929000  1
  C  1102  1  0.03678600  0.52020600  0.24409700  1
  C  1103  1  0.05704300  0.49164900  0.23955200  1
  C  1104  1  0.05789900  0.46602000  0.26416200  1
  C  1105  1  0.03940400  0.47062800  0.29434200  1
  C  1106  1  0.95070900  0.53851000  0.35951800  1
  C  1107  1  0.92957400  0.56721100  0.36142100  1
  C  1108  1  0.92845100  0.58932000  0.33361600  1
  C  1109  1  0.94936400  0.58404300  0.30563500  1
  C  1122  1  0.99489200  0.50155700  0.32982300  1
  C  1123  1  0.99363300  0.55313400  0.27453400  1
  C  1126  1  0.99198300  0.44988100  0.38495400  1
  C  1137  1  0.89487000  0.88652900  0.42787700  1
  C  1138  1  0.90927900  0.86688000  0.45393400  1
  C  1139  1  0.88975400  0.84559900  0.47494800  1
  C  1140  1  0.85419200  0.84360300  0.46976900  1
  C  1141  1  0.83911100  0.86234000  0.44304600  1
  C  1143  1  0.85971800  0.88330400  0.42267100  1
  C  1145  1  0.90710400  0.82634400  0.50225800  1
  C  1149  1  0.80236200  0.86164600  0.43501700  1
  C  1153  1  0.91540400  0.90960200  0.40882800  1
  C  1154  1  0.83410900  0.82339900  0.49174300  1
  C  1157  1  0.60845200  0.11665400  0.92803700  1
  C  1158  1  0.59394600  0.13658400  0.95382000  1
  C  1159  1  0.61343800  0.15792100  0.97481200  1
  C  1160  1  0.64903900  0.15973200  0.96983300  1
  C  1161  1  0.66421300  0.14072300  0.94335500  1
  C  1163  1  0.64364600  0.11968000  0.92302200  1
  C  1165  1  0.59601800  0.17740100  0.00191543  1
  C  1169  1  0.70101200  0.14120200  0.93555500  1
  C  1173  1  0.58797800  0.09346300  0.90907700  1
  C  1174  1  0.66906300  0.17997800  0.99181300  1
  C  1177  1  0.35897600  0.65759600  0.69370300  1
  C  1178  1  0.37853200  0.66294600  0.72312300  1
  C  1179  1  0.40215800  0.63903000  0.73525200  1
  C  1180  1  0.40642000  0.60809100  0.71743800  1
  C  1181  1  0.38727100  0.60214500  0.68749000  1
  C  1183  1  0.36395600  0.62684900  0.67641700  1
  C  1185  1  0.42233400  0.64737300  0.76592600  1
  C  1189  1  0.38908800  0.57072900  0.66679700  1
  C  1193  1  0.33312200  0.68108100  0.68398000  1
  C  1194  1  0.43117100  0.58427800  0.72800600  1
  C  1197  1  0.14334300  0.34464700  0.19408200  1
  C  1198  1  0.12753500  0.34073100  0.22592500  1
  C  1199  1  0.10408200  0.36427600  0.23904000  1
  C  1200  1  0.09575000  0.39332000  0.21957800  1
  C  1201  1  0.11080600  0.39773900  0.18713700  1
  C  1203  1  0.13431400  0.37356000  0.17528100  1
  C  1205  1  0.08831900  0.35742900  0.27255600  1
  C  1209  1  0.10445800  0.42712100  0.16443200  1
  C  1213  1  0.16923000  0.32151100  0.18327300  1
  C  1214  1  0.07130800  0.41679200  0.23159000  1
  C  1217  1  0.60842400  0.88658000  0.73131500  1
  C  1218  1  0.59415800  0.86701900  0.70511000  1
  C  1219  1  0.61379100  0.84579800  0.68413400  1
  C  1220  1  0.64932600  0.84378400  0.68948600  1
  C  1221  1  0.66426100  0.86242400  0.71636000  1
  C  1223  1  0.64354700  0.88332200  0.73669500  1
  C  1225  1  0.59656500  0.82660100  0.65670500  1
  C  1229  1  0.70096700  0.86171000  0.72458200  1
  C  1233  1  0.58775600  0.90957000  0.75032300  1
  C  1234  1  0.66954300  0.82363600  0.66758400  1
  C  1237  1  0.89508400  0.11690100  0.23144900  1
  C  1238  1  0.90962300  0.13675600  0.20562200  1
  C  1239  1  0.89018300  0.15815800  0.18464600  1
  C  1240  1  0.85460300  0.16012400  0.18968300  1
  C  1241  1  0.83938300  0.14112700  0.21614600  1
  C  1243  1  0.85990000  0.12003300  0.23647800  1
  C  1245  1  0.90762100  0.17744900  0.15741900  1
  C  1249  1  0.80259700  0.14175100  0.22400200  1
  C  1253  1  0.91552000  0.09368100  0.25042400  1
  C  1254  1  0.83463100  0.18042400  0.16770800  1
  C  1257  1  0.14461000  0.65754600  0.46603200  1
  C  1258  1  0.12522900  0.66282500  0.43648100  1
  C  1259  1  0.10159600  0.63893400  0.42432300  1
  C  1260  1  0.09712600  0.60809300  0.44225300  1
  C  1261  1  0.11608400  0.60221800  0.47233400  1
  C  1263  1  0.13942800  0.62688900  0.48342400  1
  C  1265  1  0.08163300  0.64719900  0.39348700  1
  C  1269  1  0.11403600  0.57090500  0.49316600  1
  C  1273  1  0.17047600  0.68100500  0.47579800  1
  C  1274  1  0.07235800  0.58431600  0.43165000  1
  C  1277  1  0.35870100  0.34579100  0.96532300  1
  C  1278  1  0.37817800  0.34041500  0.93585200  1
  C  1279  1  0.40184000  0.36427900  0.92368900  1
  C  1280  1  0.40625300  0.39517500  0.94153500  1
  C  1281  1  0.38720800  0.40113300  0.97154600  1
  C  1283  1  0.36382400  0.37650000  0.98263200  1
  C  1285  1  0.42191000  0.35591300  0.89294900  1
  C  1289  1  0.38919100  0.43249600  0.99230500  1
  C  1293  1  0.33280400  0.32235900  0.97507900  1
  C  1294  1  0.43100700  0.41895500  0.93088600  1
  C  1297  1  0.09788700  0.09997000  0.22458200  1
  C  1298  1  0.09191600  0.10056400  0.18949100  1
  C  1299  1  0.11155800  0.12030800  0.16716000  1
  C  1300  1  0.13857300  0.14016300  0.18029000  1
  C  1301  1  0.14542200  0.13962600  0.21559000  1
  C  1303  1  0.12501800  0.11954500  0.23696800  1
  C  1305  1  0.10221900  0.12057800  0.13073700  1
  C  1309  1  0.17286000  0.15945700  0.23204900  1
  C  1313  1  0.07505500  0.08261800  0.24655200  1
  C  1314  1  0.15503800  0.16398400  0.15908700  1
  C  1317  1  0.40484800  0.90326100  0.72544000  1
  C  1318  1  0.41100800  0.90225100  0.69039200  1
  C  1319  1  0.39109400  0.88273400  0.66810100  1
  C  1320  1  0.36356900  0.86357200  0.68122200  1
  C  1321  1  0.35655900  0.86451600  0.71647900  1
  C  1323  1  0.37726700  0.88432100  0.73782100  1
  C  1325  1  0.40069700  0.88197700  0.63175400  1
  C  1329  1  0.32861000  0.84541000  0.73293800  1
  C  1333  1  0.42788800  0.92037100  0.74739000  1
  C  1334  1  0.34666400  0.83997400  0.66008400  1
  C  1337  1  0.63886800  0.35623100  0.98465400  1
  C  1338  1  0.61673900  0.34248700  0.96029300  1
  C  1339  1  0.59616200  0.36292100  0.93944100  1
  C  1340  1  0.59741100  0.39870000  0.94318300  1
  C  1341  1  0.61867000  0.41319100  0.96829300  1
  C  1343  1  0.63879300  0.39169000  0.98856500  1
  C  1345  1  0.57455500  0.34623700  0.91350100  1
  C  1349  1  0.62145600  0.45015400  0.97474300  1
  C  1353  1  0.66153800  0.33472200  0.00303843  1
  C  1354  1  0.57889300  0.41963100  0.92054900  1
  C  1357  1  0.86483900  0.64756700  0.48395100  1
  C  1358  1  0.88597100  0.66132300  0.45872200  1
  C  1359  1  0.90630900  0.64095000  0.43758500  1
  C  1360  1  0.90580900  0.60522400  0.44187700  1
  C  1361  1  0.88566300  0.59073600  0.46788300  1
  C  1363  1  0.86574200  0.61217900  0.48841800  1
  C  1365  1  0.92702000  0.65762100  0.41092000  1
  C  1369  1  0.88380900  0.55383300  0.47497200  1
  C  1373  1  0.84237900  0.66901300  0.50269300  1
  C  1374  1  0.92434500  0.58436600  0.41922300  1
  C  1377  1  0.40511800  0.10028200  0.93468900  1
  C  1378  1  0.41100000  0.10104400  0.96979200  1
  C  1379  1  0.39110400  0.12065100  0.99202000  1
  C  1380  1  0.36391000  0.14018500  0.97877600  1
  C  1381  1  0.35718000  0.13950700  0.94345600  1
  C  1383  1  0.37784000  0.11957800  0.92218500  1
  C  1385  1  0.40034800  0.12108800  0.02846340  1
  C  1389  1  0.32959200  0.15902000  0.92686100  1
  C  1393  1  0.42814300  0.08304400  0.91282700  1
  C  1394  1  0.34706800  0.16383800  0.99988400  1
  C  1397  1  0.09846500  0.90352600  0.43428900  1
  C  1398  1  0.09245200  0.90278100  0.46937300  1
  C  1399  1  0.11223500  0.88315300  0.49168300  1
  C  1400  1  0.13949100  0.86362700  0.47854700  1
  C  1401  1  0.14641100  0.86435200  0.44327000  1
  C  1403  1  0.12582900  0.88426800  0.42191000  1
  C  1405  1  0.10278500  0.88265000  0.52807300  1
  C  1409  1  0.17408100  0.84484200  0.42681500  1
  C  1413  1  0.07543700  0.92066100  0.41234300  1
  C  1414  1  0.15607000  0.83981000  0.49967300  1
  C  1417  1  0.86499800  0.35572400  0.17486000  1
  C  1418  1  0.88642100  0.34189700  0.19980500  1
  C  1419  1  0.90701100  0.36220200  0.22076600  1
  C  1420  1  0.90646800  0.39794600  0.21659500  1
  C  1421  1  0.88593900  0.41251500  0.19093200  1
  C  1423  1  0.86580500  0.39113500  0.17054400  1
  C  1425  1  0.92793400  0.34544500  0.24721400  1
  C  1429  1  0.88396000  0.44944200  0.18400000  1
  C  1433  1  0.84236900  0.33435900  0.15622800  1
  C  1434  1  0.92513300  0.41876300  0.23920400  1
  C  1437  1  0.63871500  0.64730700  0.67466000  1
  C  1438  1  0.61707200  0.66113900  0.69941200  1
  C  1439  1  0.59663600  0.64079100  0.72048100  1
  C  1440  1  0.59752400  0.60502200  0.71656700  1
  C  1441  1  0.61821500  0.59045600  0.69103600  1
  C  1443  1  0.63823000  0.61186900  0.67056400  1
  C  1445  1  0.57548600  0.65753800  0.74675200  1
  C  1449  1  0.62054200  0.55350000  0.68437900  1
  C  1453  1  0.66131600  0.66870000  0.65604400  1
  C  1454  1  0.57902400  0.58421000  0.73929400  1
  N  44  1  0.90385600  0.06335100  0.93393200  1
  N  46  1  0.08406400  0.93313200  0.05341300  1
  N  48  1  0.90372000  0.93967300  0.06853300  1
  N  50  1  0.08395200  0.06988000  0.94918200  1
  N  95  1  0.59945700  0.93933300  0.43517900  1
  N  97  1  0.41945700  0.07029000  0.55401800  1
  N  99  1  0.59954800  0.06301200  0.56966600  1
  N  101  1  0.41905800  0.93362400  0.44981800  1
  N  146  1  0.18605600  0.68209500  0.17860000  1
  N  148  1  0.32348700  0.84906600  0.30832000  1
  N  150  1  0.31752900  0.68219600  0.32505400  1
  N  152  1  0.17959600  0.84854900  0.19506800  1
  N  197  1  0.31719100  0.32131200  0.67786300  1
  N  199  1  0.17911500  0.15532800  0.80808300  1
  N  201  1  0.18501200  0.32128900  0.82440100  1
  N  203  1  0.32316400  0.15488800  0.69482700  1
  N  248  1  0.81111400  0.34465800  0.81786700  1
  N  250  1  0.67926900  0.16782300  0.69426600  1
  N  252  1  0.69342600  0.34445100  0.68371500  1
  N  254  1  0.82305800  0.16774300  0.80983200  1
  N  299  1  0.69301500  0.65877000  0.31871200  1
  N  301  1  0.82405000  0.83565300  0.19419300  1
  N  303  1  0.81121200  0.65876700  0.18528400  1
  N  305  1  0.67939000  0.83568100  0.30885500  1
  N  350  1  0.42814100  0.56504800  0.42835800  1
  N  352  1  0.59311100  0.42973100  0.56282000  1
  N  354  1  0.42790800  0.43820500  0.57441600  1
  N  356  1  0.59303500  0.57453200  0.44112200  1
  N  401  1  0.07677100  0.43768500  0.93034100  1
  N  403  1  0.91048300  0.57469300  0.06118100  1
  N  405  1  0.07549300  0.56495200  0.07526700  1
  N  407  1  0.91085200  0.42942800  0.94057400  1
  N  772  1  0.90385600  0.06335100  0.26199900  1
  N  774  1  0.08406400  0.93313200  0.38148000  1
  N  776  1  0.90372000  0.93967300  0.39660000  1
  N  778  1  0.08395200  0.06988000  0.27724900  1
  N  823  1  0.59945700  0.93933300  0.76324600  1
  N  825  1  0.41945700  0.07029000  0.88208500  1
  N  827  1  0.59954800  0.06301200  0.89773300  1
  N  829  1  0.41905800  0.93362400  0.77788500  1
  N  874  1  0.18605600  0.68209500  0.50666700  1
  N  876  1  0.32348700  0.84906600  0.63638700  1
  N  878  1  0.31752900  0.68219600  0.65312100  1
  N  880  1  0.17959600  0.84854900  0.52313500  1
  N  925  1  0.31719100  0.32131200  0.00593043  1
  N  927  1  0.17911500  0.15532800  0.13615000  1
  N  929  1  0.18501200  0.32128900  0.15246800  1
  N  931  1  0.32316400  0.15488800  0.02289440  1
  N  976  1  0.81111400  0.34465800  0.14593400  1
  N  978  1  0.67926900  0.16782300  0.02233340  1
  N  980  1  0.69342600  0.34445100  0.01178240  1
  N  982  1  0.82305800  0.16774300  0.13789900  1
  N  1027  1  0.69301500  0.65877000  0.64677900  1
  N  1029  1  0.82405000  0.83565300  0.52226000  1
  N  1031  1  0.81121200  0.65876700  0.51335100  1
  N  1033  1  0.67939000  0.83568100  0.63692200  1
  N  1078  1  0.42814100  0.56504800  0.75642500  1
  N  1080  1  0.59311100  0.42973100  0.89088700  1
  N  1082  1  0.42790800  0.43820500  0.90248300  1
  N  1084  1  0.59303500  0.57453200  0.76918900  1
  N  1129  1  0.07677100  0.43768500  0.25840800  1
  N  1131  1  0.91048300  0.57469300  0.38924800  1
  N  1133  1  0.07549300  0.56495200  0.40333400  1
  N  1135  1  0.91085200  0.42942800  0.26864100  1
  O  427  1  0.94907600  0.90355600  0.07933800  1
  O  428  1  0.83330100  0.78987000  0.15715400  1
  O  447  1  0.55435800  0.09966700  0.57917500  1
  O  448  1  0.67005500  0.21346800  0.65703100  1
  O  467  1  0.32280300  0.70346700  0.37966700  1
  O  468  1  0.45799700  0.58015400  0.37914500  1
  O  487  1  0.17951600  0.29800600  0.87788300  1
  O  488  1  0.04206600  0.41878800  0.88591600  1
  O  507  1  0.55405000  0.90364900  0.42333100  1
  O  508  1  0.67029200  0.79012500  0.34617200  1
  O  527  1  0.94917200  0.09973900  0.92405700  1
  O  528  1  0.83472700  0.21408800  0.84552600  1
  O  547  1  0.18084500  0.70339200  0.12399800  1
  O  548  1  0.04540000  0.58036600  0.12423700  1
  O  567  1  0.32246800  0.29993200  0.62330300  1
  O  568  1  0.45789900  0.42306800  0.62353000  1
  O  587  1  0.04206100  0.08194800  0.90939800  1
  O  588  1  0.14413000  0.19629600  0.83344300  1
  O  607  1  0.46091200  0.92055700  0.41031900  1
  O  608  1  0.35670000  0.80741400  0.33487100  1
  O  627  1  0.65320000  0.30169600  0.67834300  1
  O  628  1  0.54505400  0.42097400  0.59711300  1
  O  647  1  0.85026500  0.70223300  0.17709300  1
  O  648  1  0.95803000  0.58209000  0.09646800  1
  O  667  1  0.46111600  0.08263300  0.59393300  1
  O  668  1  0.35751800  0.19629500  0.66929500  1
  O  687  1  0.04245100  0.92106400  0.09340300  1
  O  688  1  0.14480200  0.80760100  0.16952400  1
  O  707  1  0.85014100  0.30110800  0.82567500  1
  O  708  1  0.95898400  0.41996700  0.90659200  1
  O  727  1  0.65317500  0.70181500  0.32497100  1
  O  728  1  0.54527100  0.58218600  0.40625300  1
  O  1155  1  0.94907600  0.90355600  0.40740500  1
  O  1156  1  0.83330100  0.78987000  0.48522100  1
  O  1175  1  0.55435800  0.09966700  0.90724200  1
  O  1176  1  0.67005500  0.21346800  0.98509800  1
  O  1195  1  0.32280300  0.70346700  0.70773400  1
  O  1196  1  0.45799700  0.58015400  0.70721200  1
  O  1215  1  0.17951600  0.29800600  0.20595000  1
  O  1216  1  0.04206600  0.41878800  0.21398300  1
  O  1235  1  0.55405000  0.90364900  0.75139800  1
  O  1236  1  0.67029200  0.79012500  0.67423900  1
  O  1255  1  0.94917200  0.09973900  0.25212400  1
  O  1256  1  0.83472700  0.21408800  0.17359300  1
  O  1275  1  0.18084500  0.70339200  0.45206500  1
  O  1276  1  0.04540000  0.58036600  0.45230400  1
  O  1295  1  0.32246800  0.29993200  0.95137000  1
  O  1296  1  0.45789900  0.42306800  0.95159700  1
  O  1315  1  0.04206100  0.08194800  0.23746500  1
  O  1316  1  0.14413000  0.19629600  0.16151000  1
  O  1335  1  0.46091200  0.92055700  0.73838600  1
  O  1336  1  0.35670000  0.80741400  0.66293800  1
  O  1355  1  0.65320000  0.30169600  0.00641043  1
  O  1356  1  0.54505400  0.42097400  0.92518000  1
  O  1375  1  0.85026500  0.70223300  0.50516000  1
  O  1376  1  0.95803000  0.58209000  0.42453500  1
  O  1395  1  0.46111600  0.08263300  0.92200000  1
  O  1396  1  0.35751800  0.19629500  0.99736200  1
  O  1415  1  0.04245100  0.92106400  0.42147000  1
  O  1416  1  0.14480200  0.80760100  0.49759100  1
  O  1435  1  0.85014100  0.30110800  0.15374200  1
  O  1436  1  0.95898400  0.41996700  0.23465900  1
  O  1455  1  0.65317500  0.70181500  0.65303800  1
  O  1456  1  0.54527100  0.58218600  0.73432000  1
