# generated using pymatgen
data_Cu3H24C48(N5O6)2
_symmetry_space_group_name_H-M   'P 1'
_cell_length_a   35.04286000
_cell_length_b   35.03813000
_cell_length_c   35.62710756
_cell_angle_alpha   60.54460936
_cell_angle_beta   60.56332909
_cell_angle_gamma   90.01499000
_symmetry_Int_Tables_number   1
_chemical_formula_structural   Cu3H24C48(N5O6)2
_chemical_formula_sum   'Cu24 H192 C384 N80 O96'
_cell_volume   31438.86607211
_cell_formula_units_Z   8
loop_
 _symmetry_equiv_pos_site_id
 _symmetry_equiv_pos_as_xyz
  1  'x, y, z'
loop_
 _atom_site_type_symbol
 _atom_site_label
 _atom_site_symmetry_multiplicity
 _atom_site_fract_x
 _atom_site_fract_y
 _atom_site_fract_z
 _atom_site_occupancy
  Cu  Cu1  1  0.06658000  0.77969000  0.99996000  1.0
  Cu  Cu2  1  0.25998000  0.04005000  0.77139000  1.0
  Cu  Cu3  1  0.91289000  0.28722000  1.00000000  1.0
  Cu  Cu4  1  0.08711000  0.71278000  1.00000000  1.0
  Cu  Cu5  1  0.96854000  0.18848000  0.77145000  1.0
  Cu  Cu6  1  0.77961000  0.93350000  0.00001000  1.0
  Cu  Cu7  1  0.24519000  0.33757000  0.70480000  1.0
  Cu  Cu8  1  0.18849000  0.25993000  0.77147000  1.0
  Cu  Cu9  1  0.94998000  0.04244000  0.29524000  1.0
  Cu  Cu10  1  0.71276000  0.91289000  0.99997000  1.0
  Cu  Cu11  1  0.28725000  0.08710000  0.00003000  1.0
  Cu  Cu12  1  0.93342000  0.22030000  0.00004000  1.0
  Cu  Cu13  1  0.95993000  0.03131000  0.22864000  1.0
  Cu  Cu14  1  0.33766000  0.05002000  0.70477000  1.0
  Cu  Cu15  1  0.04007000  0.96868000  0.77136000  1.0
  Cu  Cu16  1  0.22039000  0.06650000  0.99999000  1.0
  Cu  Cu17  1  0.04234000  0.75482000  0.29527000  1.0
  Cu  Cu18  1  0.75481000  0.66243000  0.29520000  1.0
  Cu  Cu19  1  0.81151000  0.74008000  0.22852000  1.0
  Cu  Cu20  1  0.03146000  0.81152000  0.22855000  1.0
  Cu  Cu21  1  0.05001000  0.95756000  0.70476000  1.0
  Cu  Cu22  1  0.66234000  0.94998000  0.29523000  1.0
  Cu  Cu23  1  0.95766000  0.24518000  0.70473000  1.0
  Cu  Cu24  1  0.74002000  0.95995000  0.22861000  1.0
  H  H1  1  0.71734000  0.33485000  0.24544000  1.0
  H  H2  1  0.21417000  0.46117000  0.77731000  1.0
  H  H3  1  0.27402000  0.04907000  0.22928000  1.0
  H  H4  1  0.60767000  0.80050000  0.40573000  1.0
  H  H5  1  0.17825000  0.01393000  0.72328000  1.0
  H  H6  1  0.59489000  0.96979000  0.21710000  1.0
  H  H7  1  0.10100000  0.22297000  0.36681000  1.0
  H  H8  1  0.77708000  0.46776000  0.63323000  1.0
  H  H9  1  0.66514000  0.96289000  0.75455000  1.0
  H  H10  1  0.58965000  0.89886000  0.63338000  1.0
  H  H11  1  0.96517000  0.76355000  0.48546000  1.0
  H  H12  1  0.28265000  0.66514000  0.75457000  1.0
  H  H13  1  0.58317000  0.32554000  0.27111000  1.0
  H  H14  1  0.60054000  0.98119000  0.68178000  1.0
  H  H15  1  0.84584000  0.07140000  0.86728000  1.0
  H  H16  1  0.52922000  0.92622000  0.86674000  1.0
  H  H17  1  0.03705000  0.41949000  0.24567000  1.0
  H  H18  1  0.40228000  0.71393000  0.63887000  1.0
  H  H19  1  0.80026000  0.98650000  0.40593000  1.0
  H  H20  1  0.52785000  0.26783000  0.44282000  1.0
  H  H21  1  0.75102000  0.96522000  0.48543000  1.0
  H  H22  1  0.41375000  0.72037000  0.17192000  1.0
  H  H23  1  0.72598000  0.95093000  0.77072000  1.0
  H  H24  1  0.39708000  0.57134000  0.71562000  1.0
  H  H25  1  0.33704000  0.60047000  0.68182000  1.0
  H  H26  1  0.81179000  0.18685000  0.78312000  1.0
  H  H27  1  0.94733000  0.61188000  0.09514000  1.0
  H  H28  1  0.11258000  0.28718000  0.28434000  1.0
  H  H29  1  0.66724000  0.09226000  0.24295000  1.0
  H  H30  1  0.88741000  0.71282000  0.71566000  1.0
  H  H31  1  0.66482000  0.66731000  0.24288000  1.0
  H  H32  1  0.90755000  0.91014000  0.75708000  1.0
  H  H33  1  0.04119000  0.35288000  0.36103000  1.0
  H  H34  1  0.28614000  0.04124000  0.36098000  1.0
  H  H35  1  0.67430000  0.85444000  0.72881000  1.0
  H  H36  1  0.03015000  0.81211000  0.78295000  1.0
  H  H37  1  0.90133000  0.73723000  0.27667000  1.0
  H  H38  1  0.45050000  0.24881000  0.51479000  1.0
  H  H39  1  0.49663000  0.72172000  0.22919000  1.0
  H  H40  1  0.41443000  0.10780000  0.17163000  1.0
  H  H41  1  0.40314000  0.58326000  0.27115000  1.0
  H  H42  1  0.40511000  0.03021000  0.78290000  1.0
  H  H43  1  0.71771000  0.33709000  0.68176000  1.0
  H  H44  1  0.61187000  0.95759000  0.09513000  1.0
  H  H45  1  0.95749000  0.29287000  0.09511000  1.0
  H  H46  1  0.41683000  0.67446000  0.72889000  1.0
  H  H47  1  0.92615000  0.60409000  0.86668000  1.0
  H  H48  1  0.98673000  0.26356000  0.27937000  1.0
  H  H49  1  0.91015000  0.64665000  0.40684000  1.0
  H  H50  1  0.96985000  0.18789000  0.21705000  1.0
  H  H51  1  0.35283000  0.59790000  0.36101000  1.0
  H  H52  1  0.53233000  0.41042000  0.36657000  1.0
  H  H53  1  0.10948000  0.65361000  0.11950000  1.0
  H  H54  1  0.27833000  0.72586000  0.77080000  1.0
  H  H55  1  0.72036000  0.41436000  0.17178000  1.0
  H  H56  1  0.23647000  0.45058000  0.51466000  1.0
  H  H57  1  0.82175000  0.98607000  0.27672000  1.0
  H  H58  1  0.33517000  0.33269000  0.75712000  1.0
  H  H59  1  0.59686000  0.41674000  0.72885000  1.0
  H  H60  1  0.26780000  0.02939000  0.44278000  1.0
  H  H61  1  0.04905000  0.49660000  0.22933000  1.0
  H  H62  1  0.70688000  0.05268000  0.90491000  1.0
  H  H63  1  0.79291000  0.47068000  0.13330000  1.0
  H  H64  1  0.09245000  0.08986000  0.24292000  1.0
  H  H65  1  0.26365000  0.15739000  0.25548000  1.0
  H  H66  1  0.76152000  0.21425000  0.77731000  1.0
  H  H67  1  0.26597000  0.54294000  0.72076000  1.0
  H  H68  1  0.54296000  0.01325000  0.72069000  1.0
  H  H69  1  0.46767000  0.58958000  0.63343000  1.0
  H  H70  1  0.18681000  0.40511000  0.78303000  1.0
  H  H71  1  0.73403000  0.45706000  0.27924000  1.0
  H  H72  1  0.99151000  0.23833000  0.22276000  1.0
  H  H73  1  0.01881000  0.28223000  0.31829000  1.0
  H  H74  1  0.07919000  0.57700000  0.18496000  1.0
  H  H75  1  0.20628000  0.39243000  0.59417000  1.0
  H  H76  1  0.94652000  0.91031000  0.40687000  1.0
  H  H77  1  0.68293000  0.94661000  0.40668000  1.0
  H  H78  1  0.96294000  0.58051000  0.75433000  1.0
  H  H79  1  0.26351000  0.73397000  0.27930000  1.0
  H  H80  1  0.01349000  0.20614000  0.59406000  1.0
  H  H81  1  0.39946000  0.01881000  0.31822000  1.0
  H  H82  1  0.73648000  0.26603000  0.72070000  1.0
  H  H83  1  0.48082000  0.58716000  0.25535000  1.0
  H  H84  1  0.58030000  0.28253000  0.75457000  1.0
  H  H85  1  0.77088000  0.22678000  0.11954000  1.0
  H  H86  1  0.89051000  0.34640000  0.88050000  1.0
  H  H87  1  0.29311000  0.94732000  0.09509000  1.0
  H  H88  1  0.41035000  0.10114000  0.36662000  1.0
  H  H89  1  0.18821000  0.81315000  0.21688000  1.0
  H  H90  1  0.91017000  0.33542000  0.75708000  1.0
  H  H91  1  0.04250000  0.70713000  0.90489000  1.0
  H  H92  1  0.05267000  0.38812000  0.90486000  1.0
  H  H93  1  0.60292000  0.42866000  0.28438000  1.0
  H  H94  1  0.24897000  0.03478000  0.51457000  1.0
  H  H95  1  0.65376000  0.77112000  0.11939000  1.0
  H  H96  1  0.10616000  0.07229000  0.12565000  1.0
  H  H97  1  0.08983000  0.66457000  0.24293000  1.0
  H  H98  1  0.41969000  0.71747000  0.24543000  1.0
  H  H99  1  0.64716000  0.40210000  0.63899000  1.0
  H  H100  1  0.76205000  0.92084000  0.81493000  1.0
  H  H101  1  0.07155000  0.28686000  0.86711000  1.0
  H  H102  1  0.05348000  0.08969000  0.59313000  1.0
  H  H103  1  0.22912000  0.77322000  0.88046000  1.0
  H  H104  1  0.98119000  0.71777000  0.68171000  1.0
  H  H105  1  0.03482000  0.23646000  0.51454000  1.0
  H  H106  1  0.98651000  0.79386000  0.40594000  1.0
  H  H107  1  0.57140000  0.88730000  0.71569000  1.0
  H  H108  1  0.32569000  0.14556000  0.27119000  1.0
  H  H109  1  0.92770000  0.23177000  0.87448000  1.0
  H  H110  1  0.89216000  0.58620000  0.82816000  1.0
  H  H111  1  0.93870000  0.15383000  0.13288000  1.0
  H  H112  1  0.35324000  0.31697000  0.59332000  1.0
  H  H113  1  0.92844000  0.71314000  0.13289000  1.0
  H  H114  1  0.38812000  0.04241000  0.90487000  1.0
  H  H115  1  0.85440000  0.59680000  0.72869000  1.0
  H  H116  1  0.10784000  0.41380000  0.17184000  1.0
  H  H117  1  0.28933000  0.52785000  0.44286000  1.0
  H  H118  1  0.92081000  0.42300000  0.81504000  1.0
  H  H119  1  0.98599000  0.90166000  0.27672000  1.0
  H  H120  1  0.01401000  0.09835000  0.72328000  1.0
  H  H121  1  0.51918000  0.41284000  0.74465000  1.0
  H  H122  1  0.22291000  0.53224000  0.36678000  1.0
  H  H123  1  0.76830000  0.80220000  0.12555000  1.0
  H  H124  1  0.42860000  0.11271000  0.28431000  1.0
  H  H125  1  0.26419000  0.76207000  0.81496000  1.0
  H  H126  1  0.95881000  0.64712000  0.63897000  1.0
  H  H127  1  0.39578000  0.79298000  0.13336000  1.0
  H  H128  1  0.84260000  0.51895000  0.74460000  1.0
  H  H129  1  0.72167000  0.27414000  0.22920000  1.0
  H  H130  1  0.76352000  0.54942000  0.48534000  1.0
  H  H131  1  0.28692000  0.60303000  0.28440000  1.0
  H  H132  1  0.47215000  0.73217000  0.55718000  1.0
  H  H133  1  0.77317000  0.89043000  0.88044000  1.0
  H  H134  1  0.19974000  0.01350000  0.59407000  1.0
  H  H135  1  0.27964000  0.58564000  0.82822000  1.0
  H  H136  1  0.26281000  0.17800000  0.72336000  1.0
  H  H137  1  0.71308000  0.39697000  0.71560000  1.0
  H  H138  1  0.58625000  0.27963000  0.82808000  1.0
  H  H139  1  0.19799000  0.89395000  0.87428000  1.0
  H  H140  1  0.06129000  0.84617000  0.86712000  1.0
  H  H141  1  0.73719000  0.82200000  0.27664000  1.0
  H  H142  1  0.33275000  0.90775000  0.75705000  1.0
  H  H143  1  0.07230000  0.76822000  0.12553000  1.0
  H  H144  1  0.73635000  0.84262000  0.74452000  1.0
  H  H145  1  0.33486000  0.03711000  0.24545000  1.0
  H  H146  1  0.15740000  0.48104000  0.25541000  1.0
  H  H147  1  0.58717000  0.26362000  0.25533000  1.0
  H  H148  1  0.28229000  0.66291000  0.31824000  1.0
  H  H149  1  0.53897000  0.99153000  0.22269000  1.0
  H  H150  1  0.07385000  0.39591000  0.13332000  1.0
  H  H151  1  0.59771000  0.28607000  0.36113000  1.0
  H  H152  1  0.14560000  0.40320000  0.27131000  1.0
  H  H153  1  0.89384000  0.92771000  0.87435000  1.0
  H  H154  1  0.81319000  0.59489000  0.21697000  1.0
  H  H155  1  0.57704000  0.73592000  0.18496000  1.0
  H  H156  1  0.73219000  0.97061000  0.55722000  1.0
  H  H157  1  0.42296000  0.26408000  0.81504000  1.0
  H  H158  1  0.15416000  0.92860000  0.13272000  1.0
  H  H159  1  0.46102000  0.00847000  0.77731000  1.0
  H  H160  1  0.95095000  0.50340000  0.77067000  1.0
  H  H161  1  0.41283000  0.73638000  0.74467000  1.0
  H  H162  1  0.02932000  0.28930000  0.44297000  1.0
  H  H163  1  0.31707000  0.05339000  0.59332000  1.0
  H  H164  1  0.22683000  0.10957000  0.11956000  1.0
  H  H165  1  0.39233000  0.19950000  0.59427000  1.0
  H  H166  1  0.97067000  0.71070000  0.55703000  1.0
  H  H167  1  0.45703000  0.98675000  0.27931000  1.0
  H  H168  1  0.71308000  0.93873000  0.13297000  1.0
  H  H169  1  0.47078000  0.07378000  0.13326000  1.0
  H  H170  1  0.08985000  0.35334000  0.59317000  1.0
  H  H171  1  0.09867000  0.26277000  0.72334000  1.0
  H  H172  1  0.50336000  0.27828000  0.77081000  1.0
  H  H173  1  0.78583000  0.53883000  0.22269000  1.0
  H  H174  1  0.23795000  0.07916000  0.18507000  1.0
  H  H175  1  0.20708000  0.52933000  0.86670000  1.0
  H  H176  1  0.23170000  0.19779000  0.87446000  1.0
  H  H177  1  0.00849000  0.76167000  0.77724000  1.0
  H  H178  1  0.64675000  0.68303000  0.40668000  1.0
  H  H179  1  0.89900000  0.77703000  0.63319000  1.0
  H  H180  1  0.58556000  0.89221000  0.82837000  1.0
  H  H181  1  0.60422000  0.20702000  0.86664000  1.0
  H  H182  1  0.71067000  0.47215000  0.55714000  1.0
  H  H183  1  0.71385000  0.95876000  0.63902000  1.0
  H  H184  1  0.01326000  0.73644000  0.72063000  1.0
  H  H185  1  0.80201000  0.10605000  0.12572000  1.0
  H  H186  1  0.28691000  0.06127000  0.86703000  1.0
  H  H187  1  0.23848000  0.78575000  0.22269000  1.0
  H  H188  1  0.34623000  0.22888000  0.88061000  1.0
  H  H189  1  0.73581000  0.23793000  0.18504000  1.0
  H  H190  1  0.54950000  0.75118000  0.48522000  1.0
  H  H191  1  0.66296000  0.39953000  0.31818000  1.0
  H  H192  1  0.79371000  0.60756000  0.40584000  1.0
  C  C1  1  0.20165000  0.01974000  0.68540000  1.0
  C  C2  1  0.83363000  0.13201000  0.82112000  1.0
  C  C3  1  0.96010000  0.95660000  0.31155000  1.0
  C  C4  1  0.19026000  0.49629000  0.81941000  1.0
  C  C5  1  0.45871000  0.34037000  0.77031000  1.0
  C  C6  1  0.58434000  0.96841000  0.72251000  1.0
  C  C7  1  0.08805000  0.25152000  0.36540000  1.0
  C  C8  1  0.77106000  0.88932000  0.77018000  1.0
  C  C9  1  0.51780000  0.67351000  0.54093000  1.0
  C  C10  1  0.66523000  0.90912000  0.74102000  1.0
  C  C11  1  0.67182000  0.23141000  0.79675000  1.0
  C  C12  1  0.88590000  0.90893000  0.79257000  1.0
  C  C13  1  0.83697000  0.67138000  0.21050000  1.0
  C  C14  1  0.36812000  0.21423000  0.61200000  1.0
  C  C15  1  0.86709000  0.00481000  0.31197000  1.0
  C  C16  1  0.53242000  0.38422000  0.74702000  1.0
  C  C17  1  0.90349000  0.42448000  0.79652000  1.0
  C  C18  1  0.75050000  0.96595000  0.33887000  1.0
  C  C19  1  0.53392000  0.99349000  0.19431000  1.0
  C  C20  1  0.45532000  0.06202000  0.17365000  1.0
  C  C21  1  0.10814000  0.34580000  0.61199000  1.0
  C  C22  1  0.06500000  0.25160000  0.41075000  1.0
  C  C23  1  0.61684000  0.91194000  0.63466000  1.0
  C  C24  1  0.67127000  0.95254000  0.21059000  1.0
  C  C25  1  0.88698000  0.70518000  0.31457000  1.0
  C  C26  1  0.96588000  0.91065000  0.33895000  1.0
  C  C27  1  0.93500000  0.74840000  0.58925000  1.0
  C  C28  1  0.71628000  0.95559000  0.49588000  1.0
  C  C29  1  0.66479000  0.94603000  0.11080000  1.0
  C  C30  1  0.12474000  0.42405000  0.26181000  1.0
  C  C31  1  0.09651000  0.57551000  0.20349000  1.0
  C  C32  1  0.99311000  0.69327000  0.07000000  1.0
  C  C33  1  0.38426000  0.72070000  0.74702000  1.0
  C  C34  1  0.26464000  0.10466000  0.24035000  1.0
  C  C35  1  0.82616000  0.63183000  0.38807000  1.0
  C  C36  1  0.41382000  0.60661000  0.68093000  1.0
  C  C37  1  0.94526000  0.67532000  0.63766000  1.0
  C  C38  1  0.19998000  0.08766000  0.07238000  1.0
  C  C39  1  0.04742000  0.88193000  0.78951000  1.0
  C  C40  1  0.04839000  0.28877000  0.40831000  1.0
  C  C41  1  0.81586000  0.98781000  0.33901000  1.0
  C  C42  1  0.22219000  0.87805000  0.85874000  1.0
  C  C43  1  0.67853000  0.70159000  0.20739000  1.0
  C  C44  1  0.23136000  0.53149000  0.79683000  1.0
  C  C45  1  0.25771000  0.92530000  0.11839000  1.0
  C  C46  1  0.23572000  0.54472000  0.82633000  1.0
  C  C47  1  0.32147000  0.29841000  0.79261000  1.0
  C  C48  1  0.74836000  0.47570000  0.58931000  1.0
  C  C49  1  0.74850000  0.45342000  0.63464000  1.0
  C  C50  1  0.03411000  0.08935000  0.66105000  1.0
  C  C51  1  0.28570000  0.07109000  0.23740000  1.0
  C  C52  1  0.92893000  0.52318000  0.76254000  1.0
  C  C53  1  0.54658000  0.38316000  0.36534000  1.0
  C  C54  1  0.91057000  0.69525000  0.33883000  1.0
  C  C55  1  0.18966000  0.10138000  0.13862000  1.0
  C  C56  1  0.22452000  0.94323000  0.11073000  1.0
  C  C57  1  0.45661000  0.69696000  0.59181000  1.0
  C  C58  1  0.73535000  0.89534000  0.75965000  1.0
  C  C59  1  0.93603000  0.56680000  0.75315000  1.0
  C  C60  1  0.96630000  0.24472000  0.15578000  1.0
  C  C61  1  0.54128000  0.65962000  0.22970000  1.0
  C  C62  1  0.29849000  0.88598000  0.79254000  1.0
  C  C63  1  0.67179000  0.76011000  0.13855000  1.0
  C  C64  1  0.97182000  0.67179000  0.79676000  1.0
  C  C65  1  0.98778000  0.84519000  0.33899000  1.0
  C  C66  1  0.67341000  0.94122000  0.54098000  1.0
  C  C67  1  0.08546000  0.31920000  0.85988000  1.0
  C  C68  1  0.71248000  0.41380000  0.68092000  1.0
  C  C69  1  0.57556000  0.70006000  0.20346000  1.0
  C  C70  1  0.59940000  0.96633000  0.15577000  1.0
  C  C71  1  0.71972000  0.04292000  0.21251000  1.0
  C  C72  1  0.29639000  0.73113000  0.25531000  1.0
  C  C73  1  0.84966000  0.61394000  0.18700000  1.0
  C  C74  1  0.33772000  0.06499000  0.41071000  1.0
  C  C75  1  0.99345000  0.27172000  0.19435000  1.0
  C  C76  1  0.83813000  0.89908000  0.81649000  1.0
  C  C77  1  0.31345000  0.59721000  0.75223000  1.0
  C  C78  1  0.10090000  0.65461000  0.18348000  1.0
  C  C79  1  0.12203000  0.40059000  0.84425000  1.0
  C  C80  1  0.38101000  0.72365000  0.19537000  1.0
  C  C81  1  0.73786000  0.96439000  0.41274000  1.0
  C  C82  1  0.05474000  0.32468000  0.36234000  1.0
  C  C83  1  0.92529000  0.62397000  0.11843000  1.0
  C  C84  1  0.28028000  0.95708000  0.78750000  1.0
  C  C85  1  0.26214000  0.03561000  0.58726000  1.0
  C  C86  1  0.69696000  0.95160000  0.59180000  1.0
  C  C87  1  0.32680000  0.18407000  0.66105000  1.0
  C  C88  1  0.98643000  0.70354000  0.74468000  1.0
  C  C89  1  0.00971000  0.31557000  0.18063000  1.0
  C  C90  1  0.93682000  0.23665000  0.07008000  1.0
  C  C91  1  0.10133000  0.67169000  0.13860000  1.0
  C  C92  1  0.95654000  0.72844000  0.31146000  1.0
  C  C93  1  0.27639000  0.57641000  0.80469000  1.0
  C  C94  1  0.57601000  0.38645000  0.73822000  1.0
  C  C95  1  0.76428000  0.45528000  0.17367000  1.0
  C  C96  1  0.65954000  0.22888000  0.22978000  1.0
  C  C97  1  0.26709000  0.90568000  0.81413000  1.0
  C  C98  1  0.84506000  0.67319000  0.33901000  1.0
  C  C99  1  0.27183000  0.81226000  0.19428000  1.0
  C  C100  1  0.32818000  0.76859000  0.20325000  1.0
  C  C101  1  0.78778000  0.54852000  0.49586000  1.0
  C  C102  1  0.91454000  0.68080000  0.14012000  1.0
  C  C103  1  0.76000000  0.18961000  0.13860000  1.0
  C  C104  1  0.65423000  0.72013000  0.38796000  1.0
  C  C105  1  0.30677000  0.06307000  0.92999000  1.0
  C  C106  1  0.80090000  0.15035000  0.81306000  1.0
  C  C107  1  0.65064000  0.31340000  0.75218000  1.0
  C  C108  1  0.59382000  0.34989000  0.74093000  1.0
  C  C109  1  0.68002000  0.93599000  0.75329000  1.0
  C  C110  1  0.72002000  0.95783000  0.38800000  1.0
  C  C111  1  0.15034000  0.38606000  0.81300000  1.0
  C  C112  1  0.69997000  0.22089000  0.20352000  1.0
  C  C113  1  0.21434000  0.01992000  0.61194000  1.0
  C  C114  1  0.81229000  0.53385000  0.19428000  1.0
  C  C115  1  0.94322000  0.66484000  0.11076000  1.0
  C  C116  1  0.01993000  0.17369000  0.61194000  1.0
  C  C117  1  0.69323000  0.93693000  0.07001000  1.0
  C  C118  1  0.68435000  0.19029000  0.81943000  1.0
  C  C119  1  0.94599000  0.22429000  0.11081000  1.0
  C  C120  1  0.53146000  0.97180000  0.79679000  1.0
  C  C121  1  0.28442000  0.83820000  0.81648000  1.0
  C  C122  1  0.48220000  0.32649000  0.45907000  1.0
  C  C123  1  0.26316000  0.22208000  0.85880000  1.0
  C  C124  1  0.32820000  0.23989000  0.86145000  1.0
  C  C125  1  0.49625000  0.99029000  0.81934000  1.0
  C  C126  1  0.42444000  0.29994000  0.79654000  1.0
  C  C127  1  0.77780000  0.12195000  0.14126000  1.0
  C  C128  1  0.30003000  0.77911000  0.79648000  1.0
  C  C129  1  0.67548000  0.39518000  0.68292000  1.0
  C  C130  1  0.47685000  0.69149000  0.23744000  1.0
  C  C131  1  0.81034000  0.89863000  0.86138000  1.0
  C  C132  1  0.71985000  0.73300000  0.18580000  1.0
  C  C133  1  0.70150000  0.11402000  0.20746000  1.0
  C  C134  1  0.04346000  0.27156000  0.68854000  1.0
  C  C135  1  0.73291000  0.09432000  0.18587000  1.0
  C  C136  1  0.72057000  0.86873000  0.74703000  1.0
  C  C137  1  0.01222000  0.15480000  0.66102000  1.0
  C  C138  1  0.73115000  0.44823000  0.25522000  1.0
  C  C139  1  0.04294000  0.06777000  0.21251000  1.0
  C  C140  1  0.17908000  0.31679000  0.68806000  1.0
  C  C141  1  0.98006000  0.82631000  0.38806000  1.0
  C  C142  1  0.18771000  0.46615000  0.80572000  1.0
  C  C143  1  0.34531000  0.04691000  0.82100000  1.0
  C  C144  1  0.49500000  0.65501000  0.24034000  1.0
  C  C145  1  0.05678000  0.33516000  0.88924000  1.0
  C  C146  1  0.95161000  0.71123000  0.59169000  1.0
  C  C147  1  0.92191000  0.67545000  0.68282000  1.0
  C  C148  1  0.96339000  0.19893000  0.18701000  1.0
  C  C149  1  0.03990000  0.04340000  0.68845000  1.0
  C  C150  1  0.26804000  0.03986000  0.68853000  1.0
  C  C151  1  0.29483000  0.20154000  0.68547000  1.0
  C  C152  1  0.38316000  0.08806000  0.36534000  1.0
  C  C153  1  0.43324000  0.68926000  0.24679000  1.0
  C  C154  1  0.40279000  0.06564000  0.24774000  1.0
  C  C155  1  0.88183000  0.16301000  0.78951000  1.0
  C  C156  1  0.39521000  0.64162000  0.68293000  1.0
  C  C157  1  0.42399000  0.61354000  0.26179000  1.0
  C  C158  1  0.33477000  0.09088000  0.25898000  1.0
  C  C159  1  0.10465000  0.49499000  0.24033000  1.0
  C  C160  1  0.30675000  0.69092000  0.27753000  1.0
  C  C161  1  0.80974000  0.50370000  0.18060000  1.0
  C  C162  1  0.15072000  0.37712000  0.58724000  1.0
  C  C163  1  0.62290000  0.73795000  0.41271000  1.0
  C  C164  1  0.37604000  0.04367000  0.88156000  1.0
  C  C165  1  0.00655000  0.72828000  0.80565000  1.0
  C  C166  1  0.34046000  0.77112000  0.77022000  1.0
  C  C167  1  0.34935000  0.68661000  0.24782000  1.0
  C  C168  1  0.30474000  0.24940000  0.66119000  1.0
  C  C169  1  0.12200000  0.08093000  0.14127000  1.0
  C  C170  1  0.62395000  0.95633000  0.11844000  1.0
  C  C171  1  0.11817000  0.83699000  0.21049000  1.0
  C  C172  1  0.90530000  0.71242000  0.68086000  1.0
  C  C173  1  0.08765000  0.72763000  0.07239000  1.0
  C  C174  1  0.45342000  0.61684000  0.63466000  1.0
  C  C175  1  0.62909000  0.23571000  0.82626000  1.0
  C  C176  1  0.65468000  0.95308000  0.17901000  1.0
  C  C177  1  0.38608000  0.03664000  0.81295000  1.0
  C  C178  1  0.07106000  0.47682000  0.23746000  1.0
  C  C179  1  0.18414000  0.01220000  0.66099000  1.0
  C  C180  1  0.03661000  0.80107000  0.81299000  1.0
  C  C181  1  0.22093000  0.09652000  0.20355000  1.0
  C  C182  1  0.03566000  0.15059000  0.58723000  1.0
  C  C183  1  0.05400000  0.77572000  0.88919000  1.0
  C  C184  1  0.72360000  0.42359000  0.19531000  1.0
  C  C185  1  0.30303000  0.04840000  0.40820000  1.0
  C  C186  1  0.47572000  0.66230000  0.58928000  1.0
  C  C187  1  0.24488000  0.87797000  0.15571000  1.0
  C  C188  1  0.68576000  0.87528000  0.73827000  1.0
  C  C189  1  0.72845000  0.73205000  0.31141000  1.0
  C  C190  1  0.91235000  0.27237000  0.92761000  1.0
  C  C191  1  0.89535000  0.50501000  0.75967000  1.0
  C  C192  1  0.09436000  0.08125000  0.18586000  1.0
  C  C193  1  0.65002000  0.33469000  0.25905000  1.0
  C  C194  1  0.25150000  0.54658000  0.36536000  1.0
  C  C195  1  0.61899000  0.27635000  0.80463000  1.0
  C  C196  1  0.00489000  0.82107000  0.31187000  1.0
  C  C197  1  0.94536000  0.17896000  0.14011000  1.0
  C  C198  1  0.04372000  0.74251000  0.88154000  1.0
  C  C199  1  0.25164000  0.52430000  0.41069000  1.0
  C  C200  1  0.70360000  0.26888000  0.74469000  1.0
  C  C201  1  0.99029000  0.68443000  0.81937000  1.0
  C  C202  1  0.02818000  0.32822000  0.20324000  1.0
  C  C203  1  0.31997000  0.06400000  0.24672000  1.0
  C  C204  1  0.16010000  0.80000000  0.92770000  1.0
  C  C205  1  0.52428000  0.33770000  0.41072000  1.0
  C  C206  1  0.54857000  0.71638000  0.49580000  1.0
  C  C207  1  0.68324000  0.86715000  0.31191000  1.0
  C  C208  1  0.69143000  0.28564000  0.23745000  1.0
  C  C209  1  0.09470000  0.28758000  0.31914000  1.0
  C  C210  1  0.01357000  0.29645000  0.25533000  1.0
  C  C211  1  0.27942000  0.13127000  0.25297000  1.0
  C  C212  1  0.40618000  0.65011000  0.25907000  1.0
  C  C213  1  0.05464000  0.82104000  0.85989000  1.0
  C  C214  1  0.11302000  0.29483000  0.68543000  1.0
  C  C215  1  0.95559000  0.78788000  0.49587000  1.0
  C  C216  1  0.69526000  0.75060000  0.33881000  1.0
  C  C217  1  0.91883000  0.28023000  0.81411000  1.0
  C  C218  1  0.59721000  0.93437000  0.75226000  1.0
  C  C219  1  0.23687000  0.99313000  0.07003000  1.0
  C  C220  1  0.93231000  0.25549000  0.78741000  1.0
  C  C221  1  0.09089000  0.40621000  0.25908000  1.0
  C  C222  1  0.71430000  0.92890000  0.76261000  1.0
  C  C223  1  0.78566000  0.98008000  0.38806000  1.0
  C  C224  1  0.06769000  0.74451000  0.21259000  1.0
  C  C225  1  0.13202000  0.34526000  0.82105000  1.0
  C  C226  1  0.58298000  0.31308000  0.36224000  1.0
  C  C227  1  0.95776000  0.89198000  0.38809000  1.0
  C  C228  1  0.03155000  0.30678000  0.27757000  1.0
  C  C229  1  0.30857000  0.71436000  0.76255000  1.0
  C  C230  1  0.95258000  0.11807000  0.21049000  1.0
  C  C231  1  0.16187000  0.10092000  0.18351000  1.0
  C  C232  1  0.72817000  0.18774000  0.80572000  1.0
  C  C233  1  0.04685000  0.83377000  0.82110000  1.0
  C  C234  1  0.90900000  0.32156000  0.79256000  1.0
  C  C235  1  0.22893000  0.11067000  0.22983000  1.0
  C  C236  1  0.91895000  0.61895000  0.80462000  1.0
  C  C237  1  0.61391000  0.96336000  0.18706000  1.0
  C  C238  1  0.03370000  0.75528000  0.84422000  1.0
  C  C239  1  0.46853000  0.02820000  0.20321000  1.0
  C  C240  1  0.08942000  0.30475000  0.66117000  1.0
  C  C241  1  0.06317000  0.76334000  0.92993000  1.0
  C  C242  1  0.64161000  0.92191000  0.68293000  1.0
  C  C243  1  0.60478000  0.35838000  0.31707000  1.0
  C  C244  1  0.33520000  0.05397000  0.88920000  1.0
  C  C245  1  0.07808000  0.32455000  0.31718000  1.0
  C  C246  1  0.27229000  0.16000000  0.92766000  1.0
  C  C247  1  0.24000000  0.81039000  0.86140000  1.0
  C  C248  1  0.08088000  0.73674000  0.14127000  1.0
  C  C249  1  0.67319000  0.81592000  0.33896000  1.0
  C  C250  1  0.16303000  0.32861000  0.78951000  1.0
  C  C251  1  0.13291000  0.99519000  0.68803000  1.0
  C  C252  1  0.87526000  0.57595000  0.73819000  1.0
  C  C253  1  0.76863000  0.46851000  0.20317000  1.0
  C  C254  1  0.01979000  0.11289000  0.68538000  1.0
  C  C255  1  0.28882000  0.54341000  0.40819000  1.0
  C  C256  1  0.80001000  0.91234000  0.92762000  1.0
  C  C257  1  0.46607000  0.00651000  0.80569000  1.0
  C  C258  1  0.89867000  0.32831000  0.86140000  1.0
  C  C259  1  0.70517000  0.79846000  0.31453000  1.0
  C  C260  1  0.30909000  0.58431000  0.72253000  1.0
  C  C261  1  0.69325000  0.30908000  0.72247000  1.0
  C  C262  1  0.79834000  0.98026000  0.31460000  1.0
  C  C263  1  0.28015000  0.26701000  0.81420000  1.0
  C  C264  1  0.45142000  0.28362000  0.50420000  1.0
  C  C265  1  0.17383000  0.36817000  0.61193000  1.0
  C  C266  1  0.06559000  0.34939000  0.24787000  1.0
  C  C267  1  0.16637000  0.86799000  0.17888000  1.0
  C  C268  1  0.61574000  0.27930000  0.25298000  1.0
  C  C269  1  0.86873000  0.53235000  0.74702000  1.0
  C  C270  1  0.50500000  0.34499000  0.75966000  1.0
  C  C271  1  0.84928000  0.62288000  0.41276000  1.0
  C  C272  1  0.42361000  0.08105000  0.19526000  1.0
  C  C273  1  0.73195000  0.96014000  0.31147000  1.0
  C  C274  1  0.54339000  0.30304000  0.40819000  1.0
  C  C275  1  0.93797000  0.62903000  0.82627000  1.0
  C  C276  1  0.83029000  0.90935000  0.88211000  1.0
  C  C277  1  0.32658000  0.05878000  0.45902000  1.0
  C  C278  1  0.96845000  0.69322000  0.72243000  1.0
  C  C279  1  0.83990000  0.20000000  0.07230000  1.0
  C  C280  1  0.39338000  0.09472000  0.31907000  1.0
  C  C281  1  0.77907000  0.90349000  0.79645000  1.0
  C  C282  1  0.32452000  0.60482000  0.31708000  1.0
  C  C283  1  0.31424000  0.12472000  0.26173000  1.0
  C  C284  1  0.34577000  0.27986000  0.61205000  1.0
  C  C285  1  0.37710000  0.26205000  0.58729000  1.0
  C  C286  1  0.44820000  0.01360000  0.25528000  1.0
  C  C287  1  0.26884000  0.55177000  0.74478000  1.0
  C  C288  1  0.27154000  0.26795000  0.68859000  1.0
  C  C289  1  0.73683000  0.77792000  0.14120000  1.0
  C  C290  1  0.06203000  0.37097000  0.17373000  1.0
  C  C291  1  0.19910000  0.84965000  0.18694000  1.0
  C  C292  1  0.71117000  0.45658000  0.59182000  1.0
  C  C293  1  0.08117000  0.71977000  0.18589000  1.0
  C  C294  1  0.94122000  0.78562000  0.54097000  1.0
  C  C295  1  0.67530000  0.41696000  0.63778000  1.0
  C  C296  1  0.06397000  0.43320000  0.24685000  1.0
  C  C297  1  0.89910000  0.34539000  0.81652000  1.0
  C  C298  1  0.75512000  0.12204000  0.84429000  1.0
  C  C299  1  0.72771000  0.84000000  0.07234000  1.0
  C  C300  1  0.71558000  0.16180000  0.18352000  1.0
  C  C301  1  0.96434000  0.84942000  0.41277000  1.0
  C  C302  1  0.21221000  0.45147000  0.50415000  1.0
  C  C303  1  0.93440000  0.65061000  0.75213000  1.0
  C  C304  1  0.98020000  0.88711000  0.31462000  1.0
  C  C305  1  0.24950000  0.03405000  0.66113000  1.0
  C  C306  1  0.28752000  0.20848000  0.88216000  1.0
  C  C307  1  0.54468000  0.93798000  0.82635000  1.0
  C  C308  1  0.27998000  0.04216000  0.61201000  1.0
  C  C309  1  0.66227000  0.93501000  0.58929000  1.0
  C  C310  1  0.90564000  0.91874000  0.81415000  1.0
  C  C311  1  0.87800000  0.91907000  0.85873000  1.0
  C  C312  1  0.65496000  0.26454000  0.24038000  1.0
  C  C313  1  0.16971000  0.09066000  0.11789000  1.0
  C  C314  1  0.17918000  0.91458000  0.14006000  1.0
  C  C315  1  0.09063000  0.71237000  0.11791000  1.0
  C  C316  1  0.87797000  0.59941000  0.15575000  1.0
  C  C317  1  0.95314000  0.16623000  0.17890000  1.0
  C  C318  1  0.88933000  0.45876000  0.77025000  1.0
  C  C319  1  0.15493000  0.32681000  0.66099000  1.0
  C  C320  1  0.74229000  0.07470000  0.88161000  1.0
  C  C321  1  0.99511000  0.17893000  0.68813000  1.0
  C  C322  1  0.74458000  0.71980000  0.21248000  1.0
  C  C323  1  0.95627000  0.25749000  0.11846000  1.0
  C  C324  1  0.28751000  0.58619000  0.31909000  1.0
  C  C325  1  0.89186000  0.65420000  0.38801000  1.0
  C  C326  1  0.46757000  0.61578000  0.25298000  1.0
  C  C327  1  0.32470000  0.58304000  0.36222000  1.0
  C  C328  1  0.28372000  0.04441000  0.50412000  1.0
  C  C329  1  0.69091000  0.41569000  0.27747000  1.0
  C  C330  1  0.82081000  0.08542000  0.85994000  1.0
  C  C331  1  0.32872000  0.04747000  0.78941000  1.0
  C  C332  1  0.68655000  0.40279000  0.24777000  1.0
  C  C333  1  0.55180000  0.98639000  0.74473000  1.0
  C  C334  1  0.13127000  0.46765000  0.25298000  1.0
  C  C335  1  0.52315000  0.30851000  0.76256000  1.0
  C  C336  1  0.37091000  0.76429000  0.17374000  1.0
  C  C337  1  0.31311000  0.05475000  0.36223000  1.0
  C  C338  1  0.82092000  0.68321000  0.31194000  1.0
  C  C339  1  0.68915000  0.31991000  0.24679000  1.0
  C  C340  1  0.20856000  0.83032000  0.88214000  1.0
  C  C341  1  0.77547000  0.05677000  0.88927000  1.0
  C  C342  1  0.90910000  0.59379000  0.74092000  1.0
  C  C343  1  0.07471000  0.37603000  0.88157000  1.0
  C  C344  1  0.56676000  0.31074000  0.75321000  1.0
  C  C345  1  0.34504000  0.73546000  0.75962000  1.0
  C  C346  1  0.57639000  0.91896000  0.80474000  1.0
  C  C347  1  0.40059000  0.03367000  0.84423000  1.0
  C  C348  1  0.71248000  0.79152000  0.11784000  1.0
  C  C349  1  0.11067000  0.54124000  0.22975000  1.0
  C  C350  1  0.31924000  0.05462000  0.85984000  1.0
  C  C351  1  0.11410000  0.09107000  0.20743000  1.0
  C  C352  1  0.31564000  0.80971000  0.18057000  1.0
  C  C353  1  0.95706000  0.93223000  0.78749000  1.0
  C  C354  1  0.31676000  0.13286000  0.68809000  1.0
  C  C355  1  0.41702000  0.68692000  0.63776000  1.0
  C  C356  1  0.79144000  0.16968000  0.11786000  1.0
  C  C357  1  0.41566000  0.03159000  0.27749000  1.0
  C  C358  1  0.90937000  0.28763000  0.88209000  1.0
  C  C359  1  0.91912000  0.26326000  0.85873000  1.0
  C  C360  1  0.63187000  0.78577000  0.38800000  1.0
  C  C361  1  0.05878000  0.21438000  0.45903000  1.0
  C  C362  1  0.35839000  0.07809000  0.31707000  1.0
  C  C363  1  0.78553000  0.51774000  0.54098000  1.0
  C  C364  1  0.00689000  0.30672000  0.93001000  1.0
  C  C365  1  0.68075000  0.94537000  0.14017000  1.0
  C  C366  1  0.68689000  0.94524000  0.63778000  1.0
  C  C367  1  0.61347000  0.31411000  0.26176000  1.0
  C  C368  1  0.60662000  0.90528000  0.68093000  1.0
  C  C369  1  0.38653000  0.68589000  0.73824000  1.0
  C  C370  1  0.86797000  0.65475000  0.17895000  1.0
  C  C371  1  0.31084000  0.68009000  0.75321000  1.0
  C  C372  1  0.04224000  0.10802000  0.61191000  1.0
  C  C373  1  0.25542000  0.28020000  0.78752000  1.0
  C  C374  1  0.58617000  0.39339000  0.31907000  1.0
  C  C375  1  0.76312000  0.00687000  0.92997000  1.0
  C  C376  1  0.09100000  0.67843000  0.20745000  1.0
  C  C377  1  0.04441000  0.21212000  0.50413000  1.0
  C  C378  1  0.08104000  0.38105000  0.19538000  1.0
  C  C379  1  0.91195000  0.74848000  0.63460000  1.0
  C  C380  1  0.34998000  0.66531000  0.74095000  1.0
  C  C381  1  0.65467000  0.71567000  0.18346000  1.0
  C  C382  1  0.50375000  0.00970000  0.18067000  1.0
  C  C383  1  0.34533000  0.28433000  0.81654000  1.0
  C  C384  1  0.21447000  0.48225000  0.45903000  1.0
  N  N1  1  0.36110000  0.83186000  0.76826000  1.0
  N  N2  1  0.36075000  0.64631000  0.27073000  1.0
  N  N3  1  0.27835000  0.85767000  0.16126000  1.0
  N  N4  1  0.44203000  0.37670000  0.75413000  1.0
  N  N5  1  0.85276000  0.57237000  0.48746000  1.0
  N  N6  1  0.43961000  0.01893000  0.83871000  1.0
  N  N7  1  0.83178000  0.87064000  0.76821000  1.0
  N  N8  1  0.31371000  0.81684000  0.79449000  1.0
  N  N9  1  0.34688000  0.85346000  0.13976000  1.0
  N  N10  1  0.12938000  0.59999000  0.23173000  1.0
  N  N11  1  0.64624000  0.36849000  0.27069000  1.0
  N  N12  1  0.57238000  0.65978000  0.48741000  1.0
  N  N13  1  0.38873000  0.31363000  0.79452000  1.0
  N  N14  1  0.65311000  0.14654000  0.86024000  1.0
  N  N15  1  0.14652000  0.48675000  0.86017000  1.0
  N  N16  1  0.56039000  0.98107000  0.16129000  1.0
  N  N17  1  0.10819000  0.61123000  0.20552000  1.0
  N  N18  1  0.36851000  0.08300000  0.27068000  1.0
  N  N19  1  0.58198000  0.70692000  0.46331000  1.0
  N  N20  1  0.14228000  0.43965000  0.83871000  1.0
  N  N21  1  0.85771000  0.56035000  0.16129000  1.0
  N  N22  1  0.89180000  0.38877000  0.79448000  1.0
  N  N23  1  0.11741000  0.45275000  0.87208000  1.0
  N  N24  1  0.81679000  0.89180000  0.79444000  1.0
  N  N25  1  0.82603000  0.53394000  0.53383000  1.0
  N  N26  1  0.46602000  0.35985000  0.46622000  1.0
  N  N27  1  0.05984000  0.14713000  0.51256000  1.0
  N  N28  1  0.65973000  0.94021000  0.48739000  1.0
  N  N29  1  0.98102000  0.27821000  0.16134000  1.0
  N  N30  1  0.87062000  0.40002000  0.76827000  1.0
  N  N31  1  0.08299000  0.36077000  0.27079000  1.0
  N  N32  1  0.17397000  0.46606000  0.46617000  1.0
  N  N33  1  0.82971000  0.58195000  0.46337000  1.0
  N  N34  1  0.51323000  0.00672000  0.13992000  1.0
  N  N35  1  0.32480000  0.88257000  0.12788000  1.0
  N  N36  1  0.55797000  0.62331000  0.24587000  1.0
  N  N37  1  0.53398000  0.64016000  0.53378000  1.0
  N  N38  1  0.18320000  0.10821000  0.20555000  1.0
  N  N39  1  0.00669000  0.34678000  0.13988000  1.0
  N  N40  1  0.37677000  0.80399000  0.75406000  1.0
  N  N41  1  0.01054000  0.67532000  0.87200000  1.0
  N  N42  1  0.64008000  0.93223000  0.53377000  1.0
  N  N43  1  0.17028000  0.41805000  0.53663000  1.0
  N  N44  1  0.67520000  0.11743000  0.87212000  1.0
  N  N45  1  0.98945000  0.32467000  0.12801000  1.0
  N  N46  1  0.63148000  0.91699000  0.72933000  1.0
  N  N47  1  0.42762000  0.34022000  0.51259000  1.0
  N  N48  1  0.13083000  0.55790000  0.24593000  1.0
  N  N49  1  0.48676000  0.99329000  0.86008000  1.0
  N  N50  1  0.04533000  0.17018000  0.53664000  1.0
  N  N51  1  0.16822000  0.12937000  0.23179000  1.0
  N  N52  1  0.99331000  0.65323000  0.86012000  1.0
  N  N53  1  0.86917000  0.44210000  0.75407000  1.0
  N  N54  1  0.93218000  0.82612000  0.53383000  1.0
  N  N55  1  0.35991000  0.06777000  0.46623000  1.0
  N  N56  1  0.60003000  0.63897000  0.23170000  1.0
  N  N57  1  0.19609000  0.13082000  0.24601000  1.0
  N  N58  1  0.72165000  0.14232000  0.83875000  1.0
  N  N59  1  0.68628000  0.18317000  0.20551000  1.0
  N  N60  1  0.63890000  0.16814000  0.23174000  1.0
  N  N61  1  0.91701000  0.63923000  0.72921000  1.0
  N  N62  1  0.95466000  0.82981000  0.46337000  1.0
  N  N63  1  0.62323000  0.19601000  0.24594000  1.0
  N  N64  1  0.61127000  0.68636000  0.20548000  1.0
  N  N65  1  0.29314000  0.04529000  0.53667000  1.0
  N  N66  1  0.14723000  0.42763000  0.51254000  1.0
  N  N67  1  0.39997000  0.36103000  0.76830000  1.0
  N  N68  1  0.80390000  0.86918000  0.75400000  1.0
  N  N69  1  0.35376000  0.63151000  0.72931000  1.0
  N  N70  1  0.45277000  0.01046000  0.87204000  1.0
  N  N71  1  0.63925000  0.35369000  0.72927000  1.0
  N  N72  1  0.34027000  0.05978000  0.51262000  1.0
  N  N73  1  0.01898000  0.72179000  0.83866000  1.0
  N  N74  1  0.94015000  0.85288000  0.48744000  1.0
  N  N75  1  0.70686000  0.95472000  0.46333000  1.0
  N  N76  1  0.54723000  0.98955000  0.12796000  1.0
  N  N77  1  0.06782000  0.17387000  0.46618000  1.0
  N  N78  1  0.88259000  0.54725000  0.12792000  1.0
  N  N79  1  0.85348000  0.51325000  0.13983000  1.0
  N  N80  1  0.41802000  0.29308000  0.53669000  1.0
  O  O1  1  0.74985000  0.02735000  0.19038000  1.0
  O  O2  1  0.89202000  0.00375000  0.27178000  1.0
  O  O3  1  0.68817000  0.95033000  0.33347000  1.0
  O  O4  1  0.86820000  0.18075000  0.05479000  1.0
  O  O5  1  0.92337000  0.23574000  0.94493000  1.0
  O  O6  1  0.00373000  0.83623000  0.27174000  1.0
  O  O7  1  0.06390000  0.72541000  0.25601000  1.0
  O  O8  1  0.16388000  0.27552000  0.72821000  1.0
  O  O9  1  0.27265000  0.02157000  0.05421000  1.0
  O  O10  1  0.18069000  0.07663000  0.05503000  1.0
  O  O11  1  0.79009000  0.99690000  0.94543000  1.0
  O  O12  1  0.24291000  0.09550000  0.05522000  1.0
  O  O13  1  0.35763000  0.04864000  0.74851000  1.0
  O  O14  1  0.11815000  0.98073000  0.66931000  1.0
  O  O15  1  0.76158000  0.96607000  0.26776000  1.0
  O  O16  1  0.67332000  0.92429000  0.05416000  1.0
  O  O17  1  0.09287000  0.85288000  0.19389000  1.0
  O  O18  1  0.21751000  0.25021000  0.80986000  1.0
  O  O19  1  0.95142000  0.10611000  0.25139000  1.0
  O  O20  1  0.26433000  0.05746000  0.94551000  1.0
  O  O21  1  0.09549000  0.70186000  0.05522000  1.0
  O  O22  1  0.71632000  0.68824000  0.33356000  1.0
  O  O23  1  0.04635000  0.90715000  0.80628000  1.0
  O  O24  1  0.04970000  0.02162000  0.66645000  1.0
  O  O25  1  0.07567000  0.72749000  0.94586000  1.0
  O  O26  1  0.32668000  0.07573000  0.94583000  1.0
  O  O27  1  0.65007000  0.88188000  0.33067000  1.0
  O  O28  1  0.95031000  0.97838000  0.33354000  1.0
  O  O29  1  0.73567000  0.94253000  0.05450000  1.0
  O  O30  1  0.00308000  0.73571000  0.05450000  1.0
  O  O31  1  0.90450000  0.29814000  0.94478000  1.0
  O  O32  1  0.23567000  0.13162000  0.94498000  1.0
  O  O33  1  0.07664000  0.76426000  0.05506000  1.0
  O  O34  1  0.20991000  0.00310000  0.05457000  1.0
  O  O35  1  0.02155000  0.67335000  0.05412000  1.0
  O  O36  1  0.64236000  0.95135000  0.25150000  1.0
  O  O37  1  0.79705000  0.64265000  0.25112000  1.0
  O  O38  1  0.27448000  0.31988000  0.74416000  1.0
  O  O39  1  0.99692000  0.26428000  0.94552000  1.0
  O  O40  1  0.10798000  0.99625000  0.72822000  1.0
  O  O41  1  0.75709000  0.90450000  0.94478000  1.0
  O  O42  1  0.97809000  0.71641000  0.33373000  1.0
  O  O43  1  0.78249000  0.74979000  0.19014000  1.0
  O  O44  1  0.28673000  0.04632000  0.80622000  1.0
  O  O45  1  0.94220000  0.20964000  0.05469000  1.0
  O  O46  1  0.98134000  0.93552000  0.74437000  1.0
  O  O47  1  0.71327000  0.95368000  0.19378000  1.0
  O  O48  1  0.70195000  0.84931000  0.05516000  1.0
  O  O49  1  0.02191000  0.28360000  0.66626000  1.0
  O  O50  1  0.88185000  0.01926000  0.33070000  1.0
  O  O51  1  0.78751000  0.64998000  0.33061000  1.0
  O  O52  1  0.97264000  0.94029000  0.80960000  1.0
  O  O53  1  0.76617000  0.76169000  0.26758000  1.0
  O  O54  1  0.05778000  0.79035000  0.94533000  1.0
  O  O55  1  0.03393000  0.02932000  0.73219000  1.0
  O  O56  1  0.31183000  0.04969000  0.66652000  1.0
  O  O57  1  0.04857000  0.89389000  0.74862000  1.0
  O  O58  1  0.84927000  0.24291000  0.05528000  1.0
  O  O59  1  0.81931000  0.92338000  0.94496000  1.0
  O  O60  1  0.02912000  0.23391000  0.73252000  1.0
  O  O61  1  0.01866000  0.06450000  0.25562000  1.0
  O  O62  1  0.23383000  0.23832000  0.73242000  1.0
  O  O63  1  0.29805000  0.15069000  0.94484000  1.0
  O  O64  1  0.72735000  0.97842000  0.94580000  1.0
  O  O65  1  0.15073000  0.75709000  0.94473000  1.0
  O  O66  1  0.32010000  0.98136000  0.74436000  1.0
  O  O67  1  0.21248000  0.35002000  0.66939000  1.0
  O  O68  1  0.10623000  0.79709000  0.25117000  1.0
  O  O69  1  0.02736000  0.05969000  0.19041000  1.0
  O  O70  1  0.93981000  0.21750000  0.80983000  1.0
  O  O71  1  0.28367000  0.31176000  0.66644000  1.0
  O  O72  1  0.97845000  0.32664000  0.94588000  1.0
  O  O73  1  0.85285000  0.71328000  0.19390000  1.0
  O  O74  1  0.23842000  0.03393000  0.73224000  1.0
  O  O75  1  0.27553000  0.10792000  0.72829000  1.0
  O  O76  1  0.06017000  0.78250000  0.19017000  1.0
  O  O77  1  0.67989000  0.01864000  0.25564000  1.0
  O  O78  1  0.98049000  0.21228000  0.66952000  1.0
  O  O79  1  0.97087000  0.76609000  0.26749000  1.0
  O  O80  1  0.25015000  0.97265000  0.80962000  1.0
  O  O81  1  0.99628000  0.16377000  0.72826000  1.0
  O  O82  1  0.92433000  0.27251000  0.05414000  1.0
  O  O83  1  0.72447000  0.89209000  0.27171000  1.0
  O  O84  1  0.14715000  0.28672000  0.80610000  1.0
  O  O85  1  0.01950000  0.78771000  0.33049000  1.0
  O  O86  1  0.83612000  0.72449000  0.27179000  1.0
  O  O87  1  0.89376000  0.20292000  0.74883000  1.0
  O  O88  1  0.72552000  0.68012000  0.25584000  1.0
  O  O89  1  0.90713000  0.14711000  0.80611000  1.0
  O  O90  1  0.76433000  0.86837000  0.05502000  1.0
  O  O91  1  0.34993000  0.11812000  0.66933000  1.0
  O  O92  1  0.13180000  0.81926000  0.94520000  1.0
  O  O93  1  0.95366000  0.09285000  0.19372000  1.0
  O  O94  1  0.20295000  0.35734000  0.74889000  1.0
  O  O95  1  0.93611000  0.27458000  0.74399000  1.0
  O  O96  1  0.96606000  0.97067000  0.26782000  1.0
