# generated using pymatgen
data_H21C36(N3O)2
_symmetry_space_group_name_H-M   'P 1'
_cell_length_a   27.40280000
_cell_length_b   31.64210000
_cell_length_c   59.70170000
_cell_angle_alpha   90.00000000
_cell_angle_beta   90.00000000
_cell_angle_gamma   90.00000000
_symmetry_Int_Tables_number   1
_chemical_formula_structural   H21C36(N3O)2
_chemical_formula_sum   'H252 C432 N72 O24'
_cell_volume   51766.27767107
_cell_formula_units_Z   12
loop_
 _symmetry_equiv_pos_site_id
 _symmetry_equiv_pos_as_xyz
  1  'x, y, z'
loop_
 _atom_site_type_symbol
 _atom_site_label
 _atom_site_symmetry_multiplicity
 _atom_site_fract_x
 _atom_site_fract_y
 _atom_site_fract_z
 _atom_site_occupancy
  H  1  1  0.98600300  0.30234700  0.90076000  1
  H  2  1  0.96100400  0.20748600  0.87705100  1
  H  5  1  0.16449800  0.97002600  0.90876500  1
  H  7  1  0.18646600  0.86873500  0.88138400  1
  H  9  1  0.08454200  0.98819500  0.96840600  1
  H  18  1  0.08977200  0.32112900  0.97028500  1
  H  19  1  0.16125700  0.26075400  0.91908800  1
  H  20  1  0.14167900  0.27978900  0.88151100  1
  H  21  1  0.01514400  0.28202300  0.93812500  1
  H  35  1  0.09379300  0.15959700  0.97140800  1
  H  36  1  0.01823200  0.06395900  0.91850400  1
  H  37  1  0.02365100  0.01695800  0.88714100  1
  H  38  1  0.15999800  0.02821200  0.93878200  1
  H  39  1  0.08796500  0.12132300  0.90614600  1
  H  40  1  0.08665500  0.19973700  0.90646300  1
  H  43  1  0.87065300  0.01378500  0.75889600  1
  H  49  1  0.91962900  0.06726500  0.77050600  1
  H  53  1  0.74152800  0.03288000  0.76406700  1
  H  56  1  0.83425800  0.05669000  0.82843400  1
  H  61  1  0.65626400  0.91478200  0.74853600  1
  H  62  1  0.57621100  0.87578100  0.74856700  1
  H  63  1  0.50483500  0.76348800  0.76331700  1
  H  65  1  0.42570500  0.76595100  0.78405600  1
  H  67  1  0.35128200  0.78540100  0.82062300  1
  H  69  1  0.39510600  0.85027700  0.74380100  1
  H  70  1  0.07829500  0.96470500  0.86220400  1
  H  76  1  0.31828900  0.86565000  0.76651400  1
  H  85  1  0.14321500  0.95271300  0.83051200  1
  H  87  1  0.15659000  0.94514000  0.77939000  1
  H  89  1  0.23372100  0.90279200  0.75416600  1
  H  91  1  0.06434400  0.31497900  0.85524300  1
  H  94  1  0.02786600  0.09172300  0.76676000  1
  H  99  1  0.04638600  0.22984300  0.81718800  1
  H  101  1  0.02513200  0.20453400  0.77351700  1
  H  112  1  0.84714300  0.93899100  0.73899700  1
  H  113  1  0.78899600  0.91070100  0.71355800  1
  H  114  1  0.77668500  0.97361100  0.68286800  1
  H  115  1  0.77528200  0.96787300  0.64070400  1
  H  117  1  0.68341800  0.00521800  0.73785300  1
  H  135  1  0.61534200  0.89436900  0.68358400  1
  H  136  1  0.61272200  0.88936600  0.64415600  1
  H  137  1  0.45475600  0.81052500  0.68667700  1
  H  138  1  0.44935900  0.81241500  0.64463500  1
  H  139  1  0.55646900  0.79035000  0.73424000  1
  H  140  1  0.44782300  0.87875600  0.71633500  1
  H  146  1  0.74166800  0.88284800  0.59101700  1
  H  147  1  0.78308900  0.90969000  0.55868900  1
  H  149  1  0.79540900  0.97141700  0.53291300  1
  H  151  1  0.70807400  0.01712300  0.61111200  1
  H  152  1  0.75114200  0.04406500  0.57990100  1
  H  158  1  0.77772500  0.03580400  0.50081000  1
  H  159  1  0.84049000  0.11019200  0.55159600  1
  H  171  1  0.64757300  0.91150200  0.57883300  1
  H  172  1  0.56785800  0.87222900  0.57938000  1
  H  173  1  0.47352800  0.89581500  0.59373000  1
  H  174  1  0.41554900  0.86782300  0.56736400  1
  H  175  1  0.51041900  0.77179200  0.61366600  1
  H  176  1  0.45099400  0.74394900  0.58835300  1
  H  178  1  0.36317500  0.77478200  0.56730400  1
  H  181  1  0.42843400  0.77512400  0.50061200  1
  H  186  1  0.36228800  0.70202700  0.55098600  1
  H  194  1  0.74069600  0.42508600  0.40072400  1
  H  195  1  0.78820700  0.40107300  0.43187700  1
  H  196  1  0.75802100  0.27462100  0.41323400  1
  H  197  1  0.70857600  0.29874800  0.38341000  1
  H  199  1  0.82158200  0.34156400  0.45460200  1
  H  201  1  0.84176900  0.27540500  0.49082700  1
  H  208  1  0.77829000  0.21053900  0.43665600  1
  H  213  1  0.77935500  0.04959800  0.44948800  1
  H  215  1  0.78347400  0.12872400  0.42428800  1
  H  217  1  0.42334400  0.76363200  0.44966200  1
  H  222  1  0.44672400  0.55944100  0.40432000  1
  H  223  1  0.50789000  0.53310900  0.37976800  1
  H  225  1  0.36425800  0.53435500  0.42450400  1
  H  231  1  0.42764600  0.60249800  0.43658900  1
  H  232  1  0.36758300  0.53571700  0.49080000  1
  H  237  1  0.42018300  0.68353600  0.42367500  1
  H  246  1  0.41352700  0.43491400  0.42515000  1
  H  247  1  0.47268500  0.40820300  0.39888500  1
  H  248  1  0.56689500  0.43479100  0.41383600  1
  H  249  1  0.64672400  0.39547300  0.41453300  1
  H  260  1  0.77287000  0.33677300  0.35252100  1
  H  261  1  0.77454100  0.33309100  0.31028100  1
  H  262  1  0.68336000  0.31347800  0.25618900  1
  H  263  1  0.78671800  0.40038100  0.28073100  1
  H  264  1  0.84619900  0.37271500  0.25548400  1
  H  266  1  0.45431500  0.49805500  0.30666300  1
  H  267  1  0.55403100  0.51654000  0.25727400  1
  H  268  1  0.44813700  0.49403800  0.34863200  1
  H  285  1  0.61017500  0.41485200  0.34909600  1
  H  286  1  0.61507900  0.41543100  0.30980400  1
  H  287  1  0.44764000  0.42819500  0.27793500  1
  H  288  1  0.39508000  0.45101600  0.24899100  1
  H  291  1  0.74241900  0.28696300  0.23012900  1
  H  293  1  0.86211800  0.29374200  0.23908400  1
  H  299  1  0.85306800  0.30088700  0.16430200  1
  H  301  1  0.90990600  0.24368500  0.22225800  1
  H  309  1  0.50244900  0.53790400  0.22691800  1
  H  311  1  0.43129200  0.51984500  0.20266300  1
  H  312  1  0.65529100  0.39336800  0.24492900  1
  H  314  1  0.57528400  0.43217400  0.24466300  1
  H  317  1  0.38812100  0.47627100  0.17088600  1
  H  326  1  0.11712700  0.40347200  0.16032900  1
  H  331  1  0.28198200  0.48537500  0.22154500  1
  H  332  1  0.06172000  0.35574400  0.12423900  1
  H  333  1  0.04593300  0.03677400  0.13720500  1
  H  336  1  0.02398300  0.09774600  0.16589100  1
  H  337  1  0.89814300  0.30690100  0.12202000  1
  H  339  1  0.93681000  0.24847000  0.09378800  1
  H  343  1  0.97507300  0.15361200  0.10465500  1
  H  344  1  0.98013100  0.02468200  0.08823500  1
  H  345  1  0.37449500  0.47033500  0.11970200  1
  H  346  1  0.09022800  0.98648600  0.02059200  1
  H  356  1  0.08752400  0.31964400  0.02255500  1
  H  357  1  0.02003800  0.29913900  0.10234900  1
  H  358  1  0.15960000  0.34255300  0.08237500  1
  H  359  1  0.16099800  0.29233800  0.05306000  1
  H  361  1  0.21433900  0.38891500  0.10632000  1
  H  363  1  0.29381300  0.43388100  0.09421800  1
  H  365  1  0.02026800  0.25089400  0.07135800  1
  H  385  1  0.01507900  0.03691300  0.05103700  1
  H  386  1  0.13393200  0.04459200  0.11052100  1
  H  387  1  0.15950200  0.05494600  0.07317700  1
  H  388  1  0.08849500  0.11803900  0.08440300  1
  H  389  1  0.09130100  0.19609300  0.08474800  1
  H  390  1  0.09922700  0.15777700  0.01954700  1
  H  391  1  0.94951040  0.82829500  0.88401000  1
  H  392  1  0.92451140  0.73343400  0.86030100  1
  H  395  1  0.12800500  0.49597400  0.89201500  1
  H  397  1  0.14997300  0.39468300  0.86463400  1
  H  399  1  0.04804900  0.51414300  0.95165610  1
  H  408  1  0.05327900  0.84707700  0.95353510  1
  H  409  1  0.12476400  0.78670200  0.90233810  1
  H  410  1  0.10518600  0.80573700  0.86476100  1
  H  411  1  0.97865140  0.80797100  0.92137510  1
  H  425  1  0.05730000  0.68554500  0.95465810  1
  H  426  1  0.98173940  0.58990700  0.90175410  1
  H  427  1  0.98715840  0.54290600  0.87039100  1
  H  428  1  0.12350500  0.55416000  0.92203210  1
  H  429  1  0.05147200  0.64727100  0.88939600  1
  H  430  1  0.05016200  0.72568500  0.88971300  1
  H  433  1  0.83416000  0.53973300  0.74214600  1
  H  439  1  0.88313600  0.59321300  0.75375600  1
  H  443  1  0.70503500  0.55882800  0.74731700  1
  H  446  1  0.79776500  0.58263800  0.81168400  1
  H  451  1  0.61977100  0.44073000  0.73178600  1
  H  452  1  0.53971800  0.40172900  0.73181700  1
  H  453  1  0.46834200  0.28943600  0.74656700  1
  H  455  1  0.38921200  0.29189900  0.76730600  1
  H  457  1  0.31478900  0.31134900  0.80387300  1
  H  459  1  0.35861300  0.37622500  0.72705100  1
  H  460  1  0.04180200  0.49065300  0.84545400  1
  H  466  1  0.28179600  0.39159800  0.74976400  1
  H  475  1  0.10672200  0.47866100  0.81376200  1
  H  477  1  0.12009700  0.47108800  0.76264000  1
  H  479  1  0.19722800  0.42874000  0.73741600  1
  H  481  1  0.02785100  0.84092700  0.83849300  1
  H  484  1  0.99137338  0.61767100  0.75001000  1
  H  489  1  0.00989300  0.75579100  0.80043800  1
  H  491  1  0.98863940  0.73048200  0.75676700  1
  H  502  1  0.81065000  0.46493900  0.72224700  1
  H  503  1  0.75250300  0.43664900  0.69680800  1
  H  504  1  0.74019200  0.49955900  0.66611800  1
  H  505  1  0.73878900  0.49382100  0.62395400  1
  H  507  1  0.64692500  0.53116600  0.72110300  1
  H  525  1  0.57884900  0.42031700  0.66683400  1
  H  526  1  0.57622900  0.41531400  0.62740600  1
  H  527  1  0.41826300  0.33647300  0.66992700  1
  H  528  1  0.41286600  0.33836300  0.62788500  1
  H  529  1  0.51997600  0.31629800  0.71749000  1
  H  530  1  0.41133000  0.40470400  0.69958500  1
  H  536  1  0.70517500  0.40879600  0.57426700  1
  H  537  1  0.74659600  0.43563800  0.54193900  1
  H  539  1  0.75891600  0.49736500  0.51616300  1
  H  541  1  0.67158100  0.54307100  0.59436200  1
  H  542  1  0.71464900  0.57001300  0.56315100  1
  H  548  1  0.74123200  0.56175200  0.48406000  1
  H  549  1  0.80399700  0.63614000  0.53484600  1
  H  561  1  0.61108000  0.43745000  0.56208300  1
  H  562  1  0.53136500  0.39817700  0.56263000  1
  H  563  1  0.43703500  0.42176300  0.57698000  1
  H  564  1  0.37905600  0.39377100  0.55061400  1
  H  565  1  0.47392600  0.29774000  0.59691600  1
  H  566  1  0.41450100  0.26989700  0.57160300  1
  H  568  1  0.32668200  0.30073000  0.55055400  1
  H  571  1  0.39194100  0.30107200  0.48386200  1
  H  576  1  0.32579500  0.22797500  0.53423600  1
  H  584  1  0.70420300  0.95103400  0.38397400  1
  H  585  1  0.75171400  0.92702100  0.41512700  1
  H  586  1  0.72152800  0.80056900  0.39648400  1
  H  587  1  0.67208300  0.82469600  0.36666000  1
  H  589  1  0.78508900  0.86751200  0.43785200  1
  H  591  1  0.80527600  0.80135300  0.47407700  1
  H  598  1  0.74179700  0.73648700  0.41990600  1
  H  603  1  0.74286200  0.57554600  0.43273800  1
  H  605  1  0.74698100  0.65467200  0.40753800  1
  H  607  1  0.38685100  0.28958000  0.43291200  1
  H  612  1  0.41023100  0.08538900  0.38757000  1
  H  613  1  0.47139700  0.05905700  0.36301800  1
  H  615  1  0.32776500  0.06030300  0.40775400  1
  H  621  1  0.39115300  0.12844600  0.41983900  1
  H  622  1  0.33109000  0.06166500  0.47405000  1
  H  627  1  0.38369000  0.20948400  0.40692500  1
  H  636  1  0.37703400  0.96086200  0.40840000  1
  H  637  1  0.43619200  0.93415100  0.38213500  1
  H  638  1  0.53040200  0.96073900  0.39708600  1
  H  639  1  0.61023100  0.92142100  0.39778300  1
  H  650  1  0.73637700  0.86272100  0.33577100  1
  H  651  1  0.73804800  0.85903900  0.29353100  1
  H  652  1  0.64686700  0.83942600  0.23943900  1
  H  653  1  0.75022500  0.92632900  0.26398100  1
  H  654  1  0.80970600  0.89866300  0.23873400  1
  H  656  1  0.41782200  0.02400300  0.28991300  1
  H  657  1  0.51753800  0.04248800  0.24052400  1
  H  658  1  0.41164400  0.01998600  0.33188200  1
  H  675  1  0.57368200  0.94080000  0.33234600  1
  H  676  1  0.57858600  0.94137900  0.29305400  1
  H  677  1  0.41114700  0.95414300  0.26118500  1
  H  678  1  0.35858700  0.97696400  0.23224100  1
  H  681  1  0.70592600  0.81291100  0.21337900  1
  H  683  1  0.82562500  0.81969000  0.22233400  1
  H  689  1  0.81657500  0.82683500  0.14755200  1
  H  691  1  0.87341300  0.76963300  0.20550800  1
  H  699  1  0.46595600  0.06385200  0.21016800  1
  H  701  1  0.39479900  0.04579300  0.18591300  1
  H  702  1  0.61879800  0.91931600  0.22817900  1
  H  704  1  0.53879100  0.95812200  0.22791300  1
  H  707  1  0.35162800  0.00221900  0.15413600  1
  H  716  1  0.08063400  0.92942000  0.14357900  1
  H  721  1  0.24548900  0.01132300  0.20479500  1
  H  722  1  0.02522700  0.88169200  0.10748900  1
  H  723  1  0.00944000  0.56272200  0.12045500  1
  H  726  1  0.98749040  0.62369400  0.14914100  1
  H  727  1  0.86165000  0.83284900  0.10527000  1
  H  729  1  0.90031740  0.77441800  0.07703800  1
  H  733  1  0.93858040  0.67956000  0.08790500  1
  H  734  1  0.94363840  0.55063000  0.07148500  1
  H  735  1  0.33800200  0.99628302  0.10295200  1
  H  736  1  0.05373500  0.51243400  0.00384200  1
  H  746  1  0.05103100  0.84559200  0.00580500  1
  H  747  1  0.98354540  0.82508700  0.08559900  1
  H  748  1  0.12310700  0.86850100  0.06562500  1
  H  749  1  0.12450500  0.81828600  0.03631000  1
  H  751  1  0.17784600  0.91486300  0.08957000  1
  H  753  1  0.25732000  0.95982900  0.07746800  1
  H  755  1  0.98377540  0.77684200  0.05460800  1
  H  775  1  0.97858640  0.56286100  0.03428700  1
  H  776  1  0.09743900  0.57054000  0.09377100  1
  H  777  1  0.12300900  0.58089400  0.05642700  1
  H  778  1  0.05200200  0.64398700  0.06765300  1
  H  779  1  0.05480800  0.72204100  0.06799800  1
  H  780  1  0.06273400  0.68372500  0.00279700  1
  C  3  1  0.09416600  0.98317900  0.89488300  1
  C  4  1  0.13274200  0.98667900  0.91064700  1
  C  6  1  0.09954800  0.95942100  0.87541900  1
  C  10  1  0.09405600  0.25268600  0.97230300  1
  C  11  1  0.09194000  0.29436100  0.97981500  1
  C  12  1  0.09036700  0.27045000  0.93232400  1
  C  13  1  0.12761800  0.27357500  0.91595300  1
  C  14  1  0.11564900  0.28379600  0.89364800  1
  C  15  1  0.06683600  0.29276200  0.88763900  1
  C  16  1  0.03148900  0.29652000  0.90471700  1
  C  17  1  0.04314900  0.28538200  0.92690200  1
  C  22  1  0.09032300  0.06634200  0.97146200  1
  C  23  1  0.08826800  0.02411300  0.97828900  1
  C  24  1  0.08856000  0.08123700  0.94904000  1
  C  25  1  0.09021000  0.12456200  0.94263400  1
  C  27  1  0.09248300  0.19600200  0.94292900  1
  C  28  1  0.08924600  0.18216600  0.92072100  1
  C  29  1  0.08944700  0.13879900  0.92050600  1
  C  30  1  0.09407100  0.23929500  0.94965400  1
  C  31  1  0.08843600  0.05024000  0.93167900  1
  C  32  1  0.04872500  0.04556000  0.91674300  1
  C  33  1  0.05200600  0.01793500  0.89830800  1
  C  34  1  0.13037400  0.02517500  0.92843700  1
  C  41  1  0.80056100  0.98351600  0.75488000  1
  C  42  1  0.75180500  0.00823000  0.75402500  1
  C  44  1  0.87147900  0.05584300  0.79730700  1
  C  46  1  0.93080000  0.11766900  0.81988300  1
  C  47  1  0.94230600  0.10501200  0.79763100  1
  C  48  1  0.91308300  0.07391700  0.78696100  1
  C  50  1  0.95646600  0.15209500  0.82990300  1
  C  52  1  0.98021100  0.12585100  0.78592400  1
  C  54  1  0.83869900  0.01357400  0.76674900  1
  C  55  1  0.86370700  0.06809900  0.81984900  1
  C  58  1  0.96971800  0.19956000  0.86094400  1
  C  59  1  0.44466600  0.80404300  0.75668400  1
  C  60  1  0.49194200  0.78727000  0.75330000  1
  C  64  1  0.41596800  0.79025100  0.77451600  1
  C  66  1  0.33989200  0.82235600  0.79143500  1
  C  71  1  0.32966000  0.80759200  0.81313600  1
  C  73  1  0.26238900  0.85560800  0.81619300  1
  C  74  1  0.27098300  0.87133800  0.79428900  1
  C  75  1  0.31027900  0.85413800  0.78212800  1
  C  77  1  0.22528400  0.87371900  0.82936200  1
  C  78  1  0.18695500  0.87859000  0.86506500  1
  C  79  1  0.15730100  0.91215500  0.85777400  1
  C  80  1  0.16221000  0.92650900  0.83551100  1
  C  82  1  0.19640700  0.90751400  0.82090000  1
  C  83  1  0.20454800  0.92241000  0.79885800  1
  C  84  1  0.24173800  0.90433400  0.78558900  1
  C  90  1  0.05319200  0.29209200  0.86538300  1
  C  95  1  0.01189700  0.22488400  0.84846100  1
  C  96  1  0.02229700  0.21219200  0.82638400  1
  C  97  1  0.00069000  0.17550700  0.81700900  1
  C  98  1  0.01206800  0.16221700  0.79501600  1
  C  102  1  0.69586200  0.93456100  0.70561800  1
  C  103  1  0.70811000  0.93911700  0.68244800  1
  C  105  1  0.70579700  0.93542200  0.64452900  1
  C  106  1  0.74868100  0.95605800  0.65093000  1
  C  107  1  0.74956800  0.95911400  0.67400300  1
  C  108  1  0.72973100  0.95008700  0.72271100  1
  C  109  1  0.77786500  0.93400200  0.72429800  1
  C  110  1  0.71749500  0.98228600  0.73834400  1
  C  111  1  0.81228500  0.95063300  0.73960000  1
  C  116  1  0.69100900  0.92725400  0.62198900  1
  C  118  1  0.63792300  0.90634700  0.73433600  1
  C  119  1  0.59413300  0.88476700  0.73433600  1
  C  120  1  0.58045200  0.87680700  0.71217600  1
  C  122  1  0.65192100  0.91347100  0.71218200  1
  C  124  1  0.53047100  0.85282700  0.62275800  1
  C  125  1  0.51848400  0.84640200  0.64564300  1
  C  127  1  0.52219100  0.84663800  0.68315100  1
  C  128  1  0.48009700  0.82476800  0.67665600  1
  C  129  1  0.47708600  0.82568400  0.65365800  1
  C  130  1  0.53782800  0.85399500  0.70555600  1
  C  131  1  0.50726900  0.83745200  0.72280900  1
  C  132  1  0.46015000  0.85429800  0.72605100  1
  C  133  1  0.42901100  0.83710000  0.74226700  1
  C  134  1  0.52251200  0.80324600  0.73633600  1
  C  141  1  0.72166900  0.94257300  0.60437100  1
  C  142  1  0.74471800  0.91488100  0.58904500  1
  C  143  1  0.76898600  0.93073100  0.57000600  1
  C  144  1  0.77234300  0.97475700  0.56611800  1
  C  145  1  0.72526900  0.98647300  0.60065500  1
  C  148  1  0.79175500  0.99022800  0.54615500  1
  C  150  1  0.75093600  0.01199400  0.58213900  1
  C  153  1  0.81638200  0.13668800  0.49953400  1
  C  154  1  0.83029900  0.10558100  0.53529300  1
  C  155  1  0.81108000  0.06664900  0.52811600  1
  C  156  1  0.79452900  0.06310600  0.50580000  1
  C  161  1  0.64657200  0.90735600  0.61531700  1
  C  162  1  0.57383600  0.87368300  0.61573100  1
  C  163  1  0.58681600  0.88059500  0.59343900  1
  C  164  1  0.63064700  0.90192900  0.59320400  1
  C  165  1  0.49762800  0.83649600  0.60616900  1
  C  166  1  0.46955400  0.86374300  0.59245200  1
  C  167  1  0.43538300  0.84740900  0.57707100  1
  C  168  1  0.42763100  0.80342000  0.57563200  1
  C  169  1  0.45568700  0.77605000  0.58918400  1
  C  170  1  0.49087300  0.79238000  0.60394100  1
  C  177  1  0.39419300  0.78615900  0.56112800  1
  C  179  1  0.39393800  0.74514000  0.52778200  1
  C  180  1  0.41022100  0.74838400  0.50548500  1
  C  183  1  0.38542800  0.67564100  0.49886700  1
  C  184  1  0.37181600  0.70697300  0.53465100  1
  C  187  1  0.68904800  0.37806900  0.37145200  1
  C  188  1  0.72060500  0.36417000  0.38899700  1
  C  189  1  0.72598900  0.32060800  0.39322300  1
  C  190  1  0.75524000  0.30655400  0.41097700  1
  C  191  1  0.77841200  0.33539500  0.42580400  1
  C  192  1  0.77260000  0.37907400  0.42153200  1
  C  193  1  0.74471100  0.39325800  0.40319800  1
  C  198  1  0.80413400  0.32156800  0.44458200  1
  C  200  1  0.81040100  0.24846000  0.46164700  1
  C  203  1  0.83030700  0.24811600  0.48334300  1
  C  205  1  0.81608400  0.17359500  0.48636000  1
  C  206  1  0.79612700  0.17221400  0.46444400  1
  C  207  1  0.79367900  0.21030800  0.45229400  1
  C  209  1  0.79685800  0.09816400  0.49110300  1
  C  210  1  0.77813300  0.09685800  0.46900800  1
  C  211  1  0.77780600  0.13378400  0.45571900  1
  C  219  1  0.48849800  0.51206100  0.38929200  1
  C  220  1  0.42436200  0.49952400  0.41705800  1
  C  221  1  0.45224600  0.52746200  0.40368400  1
  C  224  1  0.39062400  0.51689000  0.43137800  1
  C  226  1  0.39613500  0.56347400  0.46124600  1
  C  227  1  0.37694300  0.56338500  0.48309700  1
  C  228  1  0.38650400  0.63861800  0.48575700  1
  C  229  1  0.40687100  0.64032100  0.46393500  1
  C  230  1  0.41110800  0.60229900  0.45195000  1
  C  233  1  0.40588600  0.71391600  0.49057400  1
  C  234  1  0.42463500  0.71551200  0.46851300  1
  C  235  1  0.42484000  0.67879800  0.45515100  1
  C  239  1  0.58557900  0.42577500  0.39981400  1
  C  240  1  0.62942100  0.40448300  0.40014900  1
  C  241  1  0.64486400  0.39829200  0.37803900  1
  C  242  1  0.57235400  0.43199100  0.37748000  1
  C  243  1  0.49588400  0.46813300  0.38689700  1
  C  244  1  0.46803200  0.44018300  0.40031700  1
  C  245  1  0.43318200  0.45571600  0.41561000  1
  C  250  1  0.69446500  0.37424500  0.28808700  1
  C  251  1  0.70625900  0.36805400  0.31114200  1
  C  253  1  0.70371600  0.36993100  0.34894300  1
  C  254  1  0.74635900  0.34908200  0.34241400  1
  C  255  1  0.74740700  0.34718000  0.31932600  1
  C  256  1  0.72868000  0.35991000  0.27112800  1
  C  257  1  0.71701700  0.32745900  0.25562900  1
  C  258  1  0.81130000  0.36123100  0.25461100  1
  C  259  1  0.77629400  0.37717500  0.26978100  1
  C  265  1  0.52027200  0.50300400  0.25570000  1
  C  270  1  0.52910300  0.45276700  0.37031800  1
  C  271  1  0.51754200  0.46039300  0.34748600  1
  C  273  1  0.52177500  0.46201100  0.31004600  1
  C  274  1  0.47967000  0.48367500  0.31662700  1
  C  275  1  0.47622100  0.48145000  0.33957500  1
  C  276  1  0.53719700  0.45500500  0.28761700  1
  C  277  1  0.57967800  0.43203800  0.28107900  1
  C  279  1  0.65089500  0.39545100  0.28130700  1
  C  280  1  0.63704100  0.40217300  0.25909100  1
  C  281  1  0.59320900  0.42358400  0.25895600  1
  C  282  1  0.50576200  0.47026300  0.27036400  1
  C  283  1  0.42798900  0.46602500  0.25056700  1
  C  284  1  0.45915400  0.45206500  0.26761500  1
  C  289  1  0.75169200  0.31215100  0.24001700  1
  C  290  1  0.79981100  0.32841400  0.23937700  1
  C  292  1  0.83768800  0.30646500  0.22881900  1
  C  294  1  0.90806600  0.24777700  0.20534300  1
  C  295  1  0.87589200  0.27770000  0.19566600  1
  C  296  1  0.87593200  0.27976300  0.17195000  1
  C  297  1  0.90454300  0.25188000  0.15860700  1
  C  298  1  0.90427600  0.25264100  0.13485900  1
  C  302  1  0.95649500  0.18822100  0.15728500  1
  C  303  1  0.95451100  0.18844800  0.13349700  1
  C  304  1  0.93275100  0.22045900  0.16965800  1
  C  307  1  0.48977500  0.51567400  0.23794600  1
  C  308  1  0.44322100  0.49715700  0.23493500  1
  C  310  1  0.41595700  0.50577200  0.21580000  1
  C  315  1  0.34021000  0.48581500  0.19805600  1
  C  316  1  0.35235800  0.47512000  0.17579600  1
  C  319  1  0.16010800  0.39383900  0.13121600  1
  C  320  1  0.15018900  0.40870500  0.15292200  1
  C  322  1  0.23166600  0.43545800  0.15614000  1
  C  323  1  0.24334000  0.42134700  0.13422700  1
  C  324  1  0.26814400  0.45421800  0.16941400  1
  C  325  1  0.29175100  0.48025900  0.20523000  1
  C  328  1  0.31645300  0.45906900  0.16106200  1
  C  329  1  0.32754000  0.44566600  0.13902100  1
  C  330  1  0.29102100  0.42691200  0.12562500  1
  C  334  1  0.00740400  0.11993800  0.13322200  1
  C  335  1  0.00851700  0.12159700  0.15681100  1
  C  340  1  0.92976900  0.22162900  0.12233700  1
  C  342  1  0.97624500  0.15431000  0.12180900  1
  C  348  1  0.20667600  0.40049200  0.12195800  1
  C  349  1  0.09061500  0.29342600  0.01266500  1
  C  350  1  0.09054500  0.26710000  0.05935500  1
  C  351  1  0.13068700  0.29402600  0.06306400  1
  C  352  1  0.12963600  0.32362900  0.08050500  1
  C  353  1  0.08961100  0.32598300  0.09559500  1
  C  354  1  0.04951700  0.29878500  0.09181100  1
  C  355  1  0.04958300  0.27040200  0.07365300  1
  C  360  1  0.09038900  0.35257100  0.11419600  1
  C  364  1  0.09320900  0.25122900  0.01952000  1
  C  367  1  0.02662500  0.02574100  0.08511800  1
  C  368  1  0.05959200  0.03272900  0.10296900  1
  C  369  1  0.04204300  0.05095400  0.12248600  1
  C  371  1  0.09188800  0.13531300  0.07014000  1
  C  372  1  0.09297200  0.17863500  0.07038200  1
  C  373  1  0.09430100  0.19284800  0.04826700  1
  C  375  1  0.09535500  0.12128800  0.04797900  1
  C  376  1  0.09584400  0.07789600  0.04128200  1
  C  377  1  0.09429000  0.06471400  0.01860900  1
  C  378  1  0.09148000  0.02307400  0.01108300  1
  C  380  1  0.09268800  0.23623000  0.04194000  1
  C  381  1  0.08986300  0.04652300  0.05844600  1
  C  382  1  0.04165600  0.03301900  0.06293100  1
  C  383  1  0.12520300  0.04295900  0.07566300  1
  C  384  1  0.10987600  0.03698600  0.09801200  1
  C  393  1  0.05767300  0.50912700  0.87813300  1
  C  394  1  0.09624900  0.51262700  0.89389700  1
  C  396  1  0.06305500  0.48536900  0.85866900  1
  C  400  1  0.05756300  0.77863400  0.95555310  1
  C  401  1  0.05544700  0.82030900  0.96306510  1
  C  402  1  0.05387400  0.79639800  0.91557410  1
  C  403  1  0.09112500  0.79952300  0.89920300  1
  C  404  1  0.07915600  0.80974400  0.87689800  1
  C  405  1  0.03034300  0.81871000  0.87088900  1
  C  406  1  0.99499638  0.82246800  0.88796700  1
  C  407  1  0.00665600  0.81133000  0.91015210  1
  C  412  1  0.05383000  0.59229000  0.95471210  1
  C  413  1  0.05177500  0.55006100  0.96153910  1
  C  414  1  0.05206700  0.60718500  0.93229010  1
  C  415  1  0.05371700  0.65051000  0.92588410  1
  C  417  1  0.05599000  0.72195000  0.92617910  1
  C  418  1  0.05275300  0.70811400  0.90397110  1
  C  419  1  0.05295400  0.66474700  0.90375610  1
  C  420  1  0.05757800  0.76524300  0.93290410  1
  C  421  1  0.05194300  0.57618800  0.91492910  1
  C  422  1  0.01223200  0.57150800  0.89999300  1
  C  423  1  0.01551300  0.54388300  0.88155800  1
  C  424  1  0.09388100  0.55112300  0.91168710  1
  C  431  1  0.76406800  0.50946400  0.73813000  1
  C  432  1  0.71531200  0.53417800  0.73727500  1
  C  434  1  0.83498600  0.58179100  0.78055700  1
  C  436  1  0.89430700  0.64361700  0.80313300  1
  C  437  1  0.90581340  0.63096000  0.78088100  1
  C  438  1  0.87659000  0.59986500  0.77021100  1
  C  440  1  0.91997340  0.67804300  0.81315300  1
  C  442  1  0.94371840  0.65179900  0.76917400  1
  C  444  1  0.80220600  0.53952200  0.74999900  1
  C  445  1  0.82721400  0.59404700  0.80309900  1
  C  448  1  0.93322540  0.72550800  0.84419400  1
  C  449  1  0.40817300  0.32999100  0.73993400  1
  C  450  1  0.45544900  0.31321800  0.73655000  1
  C  454  1  0.37947500  0.31619900  0.75776600  1
  C  456  1  0.30339900  0.34830400  0.77468500  1
  C  461  1  0.29316700  0.33354000  0.79638600  1
  C  463  1  0.22589600  0.38155600  0.79944300  1
  C  464  1  0.23449000  0.39728600  0.77753900  1
  C  465  1  0.27378600  0.38008600  0.76537800  1
  C  467  1  0.18879100  0.39966700  0.81261200  1
  C  468  1  0.15046200  0.40453800  0.84831500  1
  C  469  1  0.12080800  0.43810300  0.84102400  1
  C  470  1  0.12571700  0.45245700  0.81876100  1
  C  472  1  0.15991400  0.43346200  0.80415000  1
  C  473  1  0.16805500  0.44835800  0.78210800  1
  C  474  1  0.20524500  0.43028200  0.76883900  1
  C  480  1  0.01669900  0.81804000  0.84863300  1
  C  485  1  0.97540440  0.75083200  0.83171100  1
  C  486  1  0.98580440  0.73814000  0.80963400  1
  C  487  1  0.96419740  0.70145500  0.80025900  1
  C  488  1  0.97557540  0.68816500  0.77826600  1
  C  492  1  0.65936900  0.46050900  0.68886800  1
  C  493  1  0.67161700  0.46506500  0.66569800  1
  C  495  1  0.66930400  0.46137000  0.62777900  1
  C  496  1  0.71218800  0.48200600  0.63418000  1
  C  497  1  0.71307500  0.48506200  0.65725300  1
  C  498  1  0.69323800  0.47603500  0.70596100  1
  C  499  1  0.74137200  0.45995000  0.70754800  1
  C  500  1  0.68100200  0.50823400  0.72159400  1
  C  501  1  0.77579200  0.47658100  0.72285000  1
  C  506  1  0.65451600  0.45320200  0.60523900  1
  C  508  1  0.60143000  0.43229500  0.71758600  1
  C  509  1  0.55764000  0.41071500  0.71758600  1
  C  510  1  0.54395900  0.40275500  0.69542600  1
  C  512  1  0.61542800  0.43941900  0.69543200  1
  C  514  1  0.49397800  0.37877500  0.60600800  1
  C  515  1  0.48199100  0.37235000  0.62889300  1
  C  517  1  0.48569800  0.37258600  0.66640100  1
  C  518  1  0.44360400  0.35071600  0.65990600  1
  C  519  1  0.44059300  0.35163200  0.63690800  1
  C  520  1  0.50133500  0.37994300  0.68880600  1
  C  521  1  0.47077600  0.36340000  0.70605900  1
  C  522  1  0.42365700  0.38024600  0.70930100  1
  C  523  1  0.39251800  0.36304800  0.72551700  1
  C  524  1  0.48601900  0.32919400  0.71958600  1
  C  531  1  0.68517600  0.46852100  0.58762100  1
  C  532  1  0.70822500  0.44082900  0.57229500  1
  C  533  1  0.73249300  0.45667900  0.55325600  1
  C  534  1  0.73585000  0.50070500  0.54936800  1
  C  535  1  0.68877600  0.51242100  0.58390500  1
  C  538  1  0.75526200  0.51617600  0.52940500  1
  C  540  1  0.71444300  0.53794200  0.56538900  1
  C  543  1  0.77988900  0.66263600  0.48278400  1
  C  544  1  0.79380600  0.63152900  0.51854300  1
  C  545  1  0.77458700  0.59259700  0.51136600  1
  C  546  1  0.75803600  0.58905400  0.48905000  1
  C  551  1  0.61007900  0.43330400  0.59856700  1
  C  552  1  0.53734300  0.39963100  0.59898100  1
  C  553  1  0.55032300  0.40654300  0.57668900  1
  C  554  1  0.59415400  0.42787700  0.57645400  1
  C  555  1  0.46113500  0.36244400  0.58941900  1
  C  556  1  0.43306100  0.38969100  0.57570200  1
  C  557  1  0.39889000  0.37335700  0.56032100  1
  C  558  1  0.39113800  0.32936800  0.55888200  1
  C  559  1  0.41919400  0.30199800  0.57243400  1
  C  560  1  0.45438000  0.31832800  0.58719100  1
  C  567  1  0.35770000  0.31210700  0.54437800  1
  C  569  1  0.35744500  0.27108800  0.51103200  1
  C  570  1  0.37372800  0.27433200  0.48873500  1
  C  573  1  0.34893500  0.20158900  0.48211700  1
  C  574  1  0.33532300  0.23292100  0.51790100  1
  C  577  1  0.65255500  0.90401700  0.35470200  1
  C  578  1  0.68411200  0.89011800  0.37224700  1
  C  579  1  0.68949600  0.84655600  0.37647300  1
  C  580  1  0.71874700  0.83250200  0.39422700  1
  C  581  1  0.74191900  0.86134300  0.40905400  1
  C  582  1  0.73610700  0.90502200  0.40478200  1
  C  583  1  0.70821800  0.91920600  0.38644800  1
  C  588  1  0.76764100  0.84751600  0.42783200  1
  C  590  1  0.77390800  0.77440800  0.44489700  1
  C  593  1  0.79381400  0.77406400  0.46659300  1
  C  595  1  0.77959100  0.69954300  0.46961000  1
  C  596  1  0.75963400  0.69816200  0.44769400  1
  C  597  1  0.75718600  0.73625600  0.43554400  1
  C  599  1  0.76036500  0.62411200  0.47435300  1
  C  600  1  0.74164000  0.62280600  0.45225800  1
  C  601  1  0.74131300  0.65973200  0.43896900  1
  C  609  1  0.45200500  0.03800900  0.37254200  1
  C  610  1  0.38786900  0.02547200  0.40030800  1
  C  611  1  0.41575300  0.05341000  0.38693400  1
  C  614  1  0.35413100  0.04283800  0.41462800  1
  C  616  1  0.35964200  0.08942200  0.44449600  1
  C  617  1  0.34045000  0.08933300  0.46634700  1
  C  618  1  0.35001100  0.16456600  0.46900700  1
  C  619  1  0.37037800  0.16626900  0.44718500  1
  C  620  1  0.37461500  0.12824700  0.43520000  1
  C  623  1  0.36939300  0.23986400  0.47382400  1
  C  624  1  0.38814200  0.24146000  0.45176300  1
  C  625  1  0.38834700  0.20474600  0.43840100  1
  C  629  1  0.54908600  0.95172300  0.38306400  1
  C  630  1  0.59292800  0.93043100  0.38339900  1
  C  631  1  0.60837100  0.92424000  0.36128900  1
  C  632  1  0.53586100  0.95793900  0.36073000  1
  C  633  1  0.45939100  0.99408102  0.37014700  1
  C  634  1  0.43153900  0.96613100  0.38356700  1
  C  635  1  0.39668900  0.98166400  0.39886000  1
  C  640  1  0.65797200  0.90019300  0.27133700  1
  C  641  1  0.66976600  0.89400200  0.29439200  1
  C  643  1  0.66722300  0.89587900  0.33219300  1
  C  644  1  0.70986600  0.87503000  0.32566400  1
  C  645  1  0.71091400  0.87312800  0.30257600  1
  C  646  1  0.69218700  0.88585800  0.25437800  1
  C  647  1  0.68052400  0.85340700  0.23887900  1
  C  648  1  0.77480700  0.88717900  0.23786100  1
  C  649  1  0.73980100  0.90312300  0.25303100  1
  C  655  1  0.48377900  0.02895200  0.23895000  1
  C  660  1  0.49261000  0.97871500  0.35356800  1
  C  661  1  0.48104900  0.98634100  0.33073600  1
  C  663  1  0.48528200  0.98795900  0.29329600  1
  C  664  1  0.44317700  0.00962300  0.29987700  1
  C  665  1  0.43972800  0.00739800  0.32282500  1
  C  666  1  0.50070400  0.98095300  0.27086700  1
  C  667  1  0.54318500  0.95798600  0.26432900  1
  C  669  1  0.61440200  0.92139900  0.26455700  1
  C  670  1  0.60054800  0.92812100  0.24234100  1
  C  671  1  0.55671600  0.94953200  0.24220600  1
  C  672  1  0.46926900  0.99621102  0.25361400  1
  C  673  1  0.39149600  0.99197302  0.23381700  1
  C  674  1  0.42266100  0.97801300  0.25086500  1
  C  679  1  0.71519900  0.83809900  0.22326700  1
  C  680  1  0.76331800  0.85436200  0.22262700  1
  C  682  1  0.80119500  0.83241300  0.21206900  1
  C  684  1  0.87157300  0.77372500  0.18859300  1
  C  685  1  0.83939900  0.80364800  0.17891600  1
  C  686  1  0.83943900  0.80571100  0.15520000  1
  C  687  1  0.86805000  0.77782800  0.14185700  1
  C  688  1  0.86778300  0.77858900  0.11810900  1
  C  692  1  0.92000240  0.71416900  0.14053500  1
  C  693  1  0.91801840  0.71439600  0.11674700  1
  C  694  1  0.89625800  0.74640700  0.15290800  1
  C  697  1  0.45328200  0.04162200  0.22119600  1
  C  698  1  0.40672800  0.02310500  0.21818500  1
  C  700  1  0.37946400  0.03172000  0.19905000  1
  C  705  1  0.30371700  0.01176300  0.18130600  1
  C  706  1  0.31586500  0.00106800  0.15904600  1
  C  709  1  0.12361500  0.91978700  0.11446600  1
  C  710  1  0.11369600  0.93465300  0.13617200  1
  C  712  1  0.19517300  0.96140600  0.13939000  1
  C  713  1  0.20684700  0.94729500  0.11747700  1
  C  714  1  0.23165100  0.98016600  0.15266400  1
  C  715  1  0.25525800  0.00620700  0.18848000  1
  C  718  1  0.27996000  0.98501700  0.14431200  1
  C  719  1  0.29104700  0.97161400  0.12227100  1
  C  720  1  0.25452800  0.95286000  0.10887500  1
  C  724  1  0.97091140  0.64588600  0.11647200  1
  C  725  1  0.97202440  0.64754500  0.14006100  1
  C  730  1  0.89327600  0.74757700  0.10558700  1
  C  732  1  0.93975240  0.68025800  0.10505900  1
  C  738  1  0.17018300  0.92644000  0.10520800  1
  C  739  1  0.05412200  0.81937400  0.99591506  1
  C  740  1  0.05405200  0.79304800  0.04260500  1
  C  741  1  0.09419400  0.81997400  0.04631400  1
  C  742  1  0.09314300  0.84957700  0.06375500  1
  C  743  1  0.05311800  0.85193100  0.07884500  1
  C  744  1  0.01302400  0.82473300  0.07506100  1
  C  745  1  0.01309000  0.79635000  0.05690300  1
  C  750  1  0.05389600  0.87851900  0.09744600  1
  C  754  1  0.05671600  0.77717700  0.00277000  1
  C  757  1  0.99013238  0.55168900  0.06836800  1
  C  758  1  0.02309900  0.55867700  0.08621900  1
  C  759  1  0.00555000  0.57690200  0.10573600  1
  C  761  1  0.05539500  0.66126100  0.05339000  1
  C  762  1  0.05647900  0.70458300  0.05363200  1
  C  763  1  0.05780800  0.71879600  0.03151700  1
  C  765  1  0.05886200  0.64723600  0.03122900  1
  C  766  1  0.05935100  0.60384400  0.02453200  1
  C  767  1  0.05779700  0.59066200  0.00185900  1
  C  768  1  0.05498700  0.54902200  0.99433306  1
  C  770  1  0.05619500  0.76217800  0.02519000  1
  C  771  1  0.05337000  0.57247100  0.04169600  1
  C  772  1  0.00516300  0.55896700  0.04618100  1
  C  773  1  0.08871000  0.56890700  0.05891300  1
  C  774  1  0.07338300  0.56293400  0.08126200  1
  N  8  1  0.13645000  0.93479000  0.87352100  1
  N  26  1  0.09260700  0.16004600  0.95535500  1
  N  45  1  0.89241800  0.09787300  0.83000700  1
  N  51  1  0.94771000  0.16540600  0.85128800  1
  N  57  1  0.83709100  0.03312000  0.78588500  1
  N  68  1  0.37827500  0.81185100  0.77974800  1
  N  72  1  0.29185300  0.82477600  0.82465000  1
  N  81  1  0.21944800  0.86084600  0.85087700  1
  N  92  1  0.03292000  0.25921800  0.85684700  1
  N  104  1  0.68302600  0.92590200  0.66404500  1
  N  121  1  0.61589000  0.89521400  0.69965300  1
  N  123  1  0.61092300  0.89019200  0.62809400  1
  N  126  1  0.54399600  0.85876300  0.66392900  1
  N  157  1  0.83211900  0.13873300  0.52105200  1
  N  160  1  0.79916100  0.03978900  0.54402100  1
  N  182  1  0.41142500  0.77233200  0.54255700  1
  N  185  1  0.36924700  0.67389300  0.52033500  1
  N  202  1  0.80221200  0.28245900  0.44982000  1
  N  204  1  0.83211400  0.21113000  0.49483200  1
  N  218  1  0.37268500  0.60052000  0.49438500  1
  N  238  1  0.40921000  0.52931700  0.45002700  1
  N  252  1  0.68105000  0.38052800  0.32958500  1
  N  269  1  0.60910600  0.41500700  0.36516900  1
  N  272  1  0.54343700  0.44906900  0.32915600  1
  N  278  1  0.61504700  0.41392000  0.29374500  1
  N  300  1  0.84263200  0.30026100  0.20750500  1
  N  305  1  0.93364700  0.22033600  0.19239800  1
  N  306  1  0.97853400  0.15500200  0.16775700  1
  N  313  1  0.37319500  0.48977500  0.21386300  1
  N  321  1  0.18607600  0.42855600  0.16452100  1
  N  327  1  0.25794100  0.46484600  0.19092900  1
  N  347  1  0.13054900  0.37059200  0.11932800  1
  N  366  1  0.09373500  0.08941900  0.00014600  1
  N  370  1  0.02527500  0.08880900  0.12075200  1
  N  374  1  0.09680000  0.15729700  0.03557500  1
  N  379  1  0.09498700  0.22808500  0.00055800  1
  N  398  1  0.09995700  0.46073800  0.85677100  1
  N  416  1  0.05611400  0.68599400  0.93860510  1
  N  435  1  0.85592500  0.62382100  0.81325700  1
  N  441  1  0.91121740  0.69135400  0.83453800  1
  N  447  1  0.80059800  0.55906800  0.76913500  1
  N  458  1  0.34178200  0.33779900  0.76299800  1
  N  462  1  0.25536000  0.35072400  0.80790000  1
  N  471  1  0.18295500  0.38679400  0.83412700  1
  N  482  1  0.99642738  0.78516600  0.84009700  1
  N  494  1  0.64653300  0.45185000  0.64729500  1
  N  511  1  0.57939700  0.42116200  0.68290300  1
  N  513  1  0.57443000  0.41614000  0.61134400  1
  N  516  1  0.50750300  0.38471100  0.64717900  1
  N  547  1  0.79562600  0.66468100  0.50430200  1
  N  550  1  0.76266800  0.56573700  0.52727100  1
  N  572  1  0.37493200  0.29828000  0.52580700  1
  N  575  1  0.33275400  0.19984100  0.50358500  1
  N  592  1  0.76571900  0.80840700  0.43307000  1
  N  594  1  0.79562100  0.73707800  0.47808200  1
  N  608  1  0.33619200  0.12646800  0.47763500  1
  N  628  1  0.37271700  0.05526500  0.43327700  1
  N  642  1  0.64455700  0.90647600  0.31283500  1
  N  659  1  0.57261300  0.94095500  0.34841900  1
  N  662  1  0.50694400  0.97501700  0.31240600  1
  N  668  1  0.57855400  0.93986800  0.27699500  1
  N  690  1  0.80613900  0.82620900  0.19075500  1
  N  695  1  0.89715400  0.74628400  0.17564800  1
  N  696  1  0.94204140  0.68095000  0.15100700  1
  N  703  1  0.33670200  0.01572300  0.19711300  1
  N  711  1  0.14958300  0.95450400  0.14777100  1
  N  717  1  0.22144800  0.99079402  0.17417900  1
  N  737  1  0.09405600  0.89654000  0.10257800  1
  N  756  1  0.05724200  0.61536700  0.98339610  1
  N  760  1  0.98878240  0.61475700  0.10400200  1
  N  764  1  0.06030700  0.68324500  0.01882500  1
  N  769  1  0.05849400  0.75403300  0.98380810  1
  O  86  1  0.17921200  0.95619100  0.79076600  1
  O  88  1  0.25066100  0.92110700  0.76497500  1
  O  93  1  0.00295600  0.11383600  0.76486400  1
  O  100  1  0.04450300  0.18402700  0.78215900  1
  O  212  1  0.75700100  0.06101000  0.46088000  1
  O  214  1  0.75664400  0.13213700  0.43508600  1
  O  216  1  0.44627600  0.75121600  0.46050100  1
  O  236  1  0.44669500  0.68055200  0.43466800  1
  O  318  1  0.37408200  0.44778900  0.13104800  1
  O  338  1  0.87728400  0.28175800  0.12353800  1
  O  341  1  0.92613100  0.22088000  0.09951100  1
  O  362  1  0.30356000  0.41196100  0.10501400  1
  O  476  1  0.14271900  0.48213900  0.77401600  1
  O  478  1  0.21416800  0.44705500  0.74822500  1
  O  483  1  0.96646340  0.63978400  0.74811400  1
  O  490  1  0.00801000  0.70997500  0.76540900  1
  O  602  1  0.72050800  0.58695800  0.44413000  1
  O  604  1  0.72015100  0.65808500  0.41833600  1
  O  606  1  0.40978300  0.27716400  0.44375100  1
  O  626  1  0.41020200  0.20650000  0.41791800  1
  O  708  1  0.33758900  0.97373700  0.11429800  1
  O  728  1  0.84079100  0.80770600  0.10678800  1
  O  731  1  0.88963800  0.74682800  0.08276100  1
  O  752  1  0.26706700  0.93790900  0.08826400  1
