# generated using pymatgen
data_H32C51N4
_symmetry_space_group_name_H-M   'P 1'
_cell_length_a   28.47780000
_cell_length_b   58.07340000
_cell_length_c   58.07340000
_cell_angle_alpha   60.00000000
_cell_angle_beta   90.00000000
_cell_angle_gamma   90.02630000
_symmetry_Int_Tables_number   1
_chemical_formula_structural   H32C51N4
_chemical_formula_sum   'H384 C612 N48'
_cell_volume   83174.75165486
_cell_formula_units_Z   12
loop_
 _symmetry_equiv_pos_site_id
 _symmetry_equiv_pos_as_xyz
  1  'x, y, z'
loop_
 _atom_site_type_symbol
 _atom_site_label
 _atom_site_symmetry_multiplicity
 _atom_site_fract_x
 _atom_site_fract_y
 _atom_site_fract_z
 _atom_site_occupancy
  H  26  1  0.68921500  0.80783700  0.62929300  1
  H  27  1  0.68255300  0.84329500  0.58530200  1
  H  28  1  0.83114300  0.79760300  0.61542000  1
  H  29  1  0.82346300  0.83185200  0.57094700  1
  H  30  1  0.81870200  0.85229900  0.51532700  1
  H  31  1  0.82318400  0.81815400  0.50446200  1
  H  32  1  0.68943100  0.79049400  0.53808200  1
  H  33  1  0.68478000  0.82455400  0.54918200  1
  H  34  1  0.67402700  0.87072300  0.50761100  1
  H  35  1  0.60691500  0.89624700  0.49800500  1
  H  36  1  0.65568600  0.92670200  0.54628300  1
  H  37  1  0.71935200  0.89704100  0.55966600  1
  H  38  1  0.81838000  0.87720200  0.56819000  1
  H  39  1  0.76555700  0.90085600  0.49165700  1
  H  40  1  0.82188300  0.93561000  0.47313400  1
  H  41  1  0.87891900  0.90846100  0.54945500  1
  H  67  1  0.68907600  0.62945400  0.51716500  1
  H  68  1  0.68241500  0.58547200  0.52568700  1
  H  69  1  0.83102800  0.61565600  0.54122000  1
  H  70  1  0.82335400  0.57118600  0.55142000  1
  H  71  1  0.81859700  0.51557000  0.58662100  1
  H  72  1  0.82314500  0.50472700  0.63162000  1
  H  73  1  0.68939400  0.53829000  0.62568800  1
  H  74  1  0.68469400  0.54936000  0.58054300  1
  H  75  1  0.67387000  0.50779200  0.57595000  1
  H  76  1  0.60672200  0.49816400  0.56005100  1
  H  77  1  0.65547300  0.54641800  0.48130700  1
  H  78  1  0.71918400  0.55982100  0.49756600  1
  H  79  1  0.81826000  0.56837300  0.50887200  1
  H  80  1  0.76532200  0.49184700  0.56175300  1
  H  81  1  0.82157600  0.47331700  0.54551900  1
  H  82  1  0.87873700  0.54963100  0.49634500  1
  H  108  1  0.68939600  0.51737900  0.80768700  1
  H  109  1  0.68285300  0.52588300  0.84315900  1
  H  110  1  0.83135400  0.54149400  0.79733800  1
  H  111  1  0.82379400  0.55167800  0.83162000  1
  H  112  1  0.81914000  0.58687100  0.85210100  1
  H  113  1  0.82365500  0.63188400  0.81798200  1
  H  114  1  0.68987300  0.62591300  0.79036100  1
  H  115  1  0.68520200  0.58075000  0.82440000  1
  H  116  1  0.67444600  0.57614000  0.87057100  1
  H  117  1  0.60734400  0.56021100  0.89614700  1
  H  118  1  0.65607000  0.48148900  0.92662100  1
  H  119  1  0.71972500  0.49777100  0.89691300  1
  H  120  1  0.81878800  0.50912800  0.87697300  1
  H  121  1  0.76595000  0.56194500  0.90069400  1
  H  122  1  0.82224000  0.54570500  0.93544100  1
  H  123  1  0.87930400  0.49660200  0.90822000  1
  H  149  1  0.18923300  0.16185500  0.34025700  1
  H  150  1  0.18268000  0.12638900  0.38424600  1
  H  151  1  0.33130800  0.17206800  0.35391100  1
  H  152  1  0.32374800  0.13779500  0.39838500  1
  H  153  1  0.31906300  0.11773300  0.45385000  1
  H  154  1  0.32342100  0.15195400  0.46461400  1
  H  155  1  0.18938700  0.17918400  0.43128800  1
  H  156  1  0.18486400  0.14504500  0.42030100  1
  H  157  1  0.17440400  0.09889000  0.46195600  1
  H  158  1  0.10734800  0.07321000  0.47169800  1
  H  159  1  0.15603800  0.04282300  0.42336300  1
  H  160  1  0.21963200  0.07261000  0.40985800  1
  H  161  1  0.31839300  0.09232400  0.40133700  1
  H  162  1  0.26597000  0.06910600  0.47785700  1
  H  163  1  0.32223100  0.03434900  0.49647000  1
  H  164  1  0.37880500  0.06100000  0.42012600  1
  H  190  1  0.18888200  0.34041300  0.45212200  1
  H  191  1  0.18225200  0.38439700  0.44359400  1
  H  192  1  0.33096700  0.35417500  0.42828800  1
  H  193  1  0.32334400  0.39865000  0.41807900  1
  H  194  1  0.31865300  0.45412400  0.38274900  1
  H  195  1  0.32314700  0.46493600  0.33775500  1
  H  196  1  0.18915200  0.43155100  0.34370900  1
  H  197  1  0.18448900  0.42052200  0.38884600  1
  H  198  1  0.17391500  0.46211500  0.39341300  1
  H  199  1  0.10685600  0.47182800  0.40934300  1
  H  200  1  0.15547700  0.42347200  0.48807300  1
  H  201  1  0.21906600  0.40999200  0.47179800  1
  H  202  1  0.31783400  0.40152400  0.46064900  1
  H  203  1  0.26546700  0.47804300  0.40738500  1
  H  204  1  0.32173200  0.49664700  0.42356500  1
  H  205  1  0.37825000  0.42030600  0.47322000  1
  H  231  1  0.18919400  0.45233300  0.16169100  1
  H  232  1  0.18270100  0.44380100  0.12623700  1
  H  233  1  0.33124100  0.42847600  0.17194300  1
  H  234  1  0.32374800  0.41826100  0.13767200  1
  H  235  1  0.31909200  0.38291500  0.11752200  1
  H  236  1  0.32345300  0.33793200  0.15173000  1
  H  237  1  0.18941200  0.34395400  0.17902000  1
  H  238  1  0.18487800  0.38907800  0.14488800  1
  H  239  1  0.17441800  0.39362100  0.09872700  1
  H  240  1  0.10741500  0.40955900  0.07303800  1
  H  241  1  0.15620300  0.48828000  0.04266400  1
  H  242  1  0.21973400  0.47199700  0.07246300  1
  H  243  1  0.31849800  0.46078600  0.09222800  1
  H  244  1  0.26604300  0.40756800  0.06890000  1
  H  245  1  0.32239900  0.42372900  0.03416700  1
  H  246  1  0.37901200  0.47331900  0.06094000  1
  H  253  1  0.80739600  0.64318100  0.76077600  1
  H  262  1  0.83598700  0.70755600  0.67134400  1
  H  263  1  0.83655900  0.66804800  0.71419600  1
  H  264  1  0.80629100  0.75313200  0.64165200  1
  H  265  1  0.72116000  0.78934200  0.67408500  1
  H  267  1  0.70516500  0.66550100  0.81251100  1
  H  268  1  0.66959300  0.68768300  0.78549600  1
  H  269  1  0.71723500  0.69989900  0.79600900  1
  H  276  1  0.80701200  0.76096900  0.55038600  1
  H  285  1  0.83582500  0.67158500  0.57537300  1
  H  286  1  0.83629900  0.71442400  0.57205900  1
  H  287  1  0.80617900  0.64187600  0.55947700  1
  H  288  1  0.72102800  0.67425900  0.49084200  1
  H  290  1  0.70474800  0.81263100  0.47633000  1
  H  291  1  0.66928100  0.78558700  0.48110600  1
  H  292  1  0.71696900  0.79618100  0.45840500  1
  H  299  1  0.80699700  0.55066700  0.64287700  1
  H  308  1  0.83593200  0.57567300  0.70725800  1
  H  309  1  0.83632500  0.57236300  0.66772800  1
  H  310  1  0.80638800  0.55974800  0.75288300  1
  H  311  1  0.72125900  0.49106900  0.78917500  1
  H  313  1  0.70472200  0.47656100  0.66531500  1
  H  314  1  0.66928600  0.48133600  0.68758500  1
  H  315  1  0.71696400  0.45864900  0.69968600  1
  H  322  1  0.30703700  0.32666900  0.20878900  1
  H  331  1  0.33592900  0.26220000  0.29814700  1
  H  332  1  0.33633700  0.30176400  0.25533500  1
  H  333  1  0.30637300  0.21656000  0.32781200  1
  H  334  1  0.22104700  0.18038400  0.29539300  1
  H  336  1  0.20466900  0.30433100  0.15708800  1
  H  337  1  0.16919300  0.28206100  0.18412200  1
  H  338  1  0.21686800  0.26995600  0.17353300  1
  H  345  1  0.30702600  0.20903000  0.41882200  1
  H  354  1  0.33579200  0.29840300  0.39394300  1
  H  355  1  0.33629100  0.25559000  0.39719800  1
  H  356  1  0.30611300  0.32805300  0.40989000  1
  H  357  1  0.22072700  0.29557300  0.47846100  1
  H  359  1  0.20458800  0.15725500  0.49282000  1
  H  360  1  0.16907700  0.18426800  0.48803600  1
  H  361  1  0.21671000  0.17370400  0.51075700  1
  H  368  1  0.30679800  0.41910700  0.32647500  1
  H  377  1  0.33570100  0.39415000  0.26206200  1
  H  378  1  0.33608400  0.39743500  0.30160500  1
  H  379  1  0.30619400  0.41009000  0.21643200  1
  H  380  1  0.22097300  0.47868600  0.18021200  1
  H  382  1  0.20444800  0.49311500  0.30412000  1
  H  383  1  0.16895700  0.48828000  0.28190500  1
  H  384  1  0.21658400  0.51102700  0.26973300  1
  H  391  1  0.88243500  0.95669000  0.52739400  1
  H  400  1  0.00041200  0.01545800  0.52291300  1
  H  401  1  0.93344300  0.98664900  0.53526400  1
  H  402  1  0.06832500  0.03617900  0.49348200  1
  H  403  1  0.08256400  0.02826800  0.42532800  1
  H  405  1  0.92133500  0.91397600  0.47606000  1
  H  406  1  0.95221200  0.93968800  0.44912400  1
  H  407  1  0.89048700  0.94071800  0.44947900  1
  H  414  1  0.88216000  0.52756900  0.47018000  1
  H  423  1  0.00002100  0.52305100  0.41588500  1
  H  424  1  0.93312200  0.53542300  0.43234500  1
  H  425  1  0.06784700  0.49359600  0.42458900  1
  H  426  1  0.08202300  0.42544800  0.50065600  1
  H  428  1  0.92106800  0.47621800  0.56422600  1
  H  429  1  0.95186100  0.44927500  0.56544500  1
  H  430  1  0.89013400  0.44964400  0.56406800  1
  H  437  1  0.88277000  0.47040400  0.95644500  1
  H  446  1  0.00061900  0.41610800  0.01523600  1
  H  447  1  0.93370800  0.43257100  0.98641300  1
  H  448  1  0.06847600  0.42481200  0.03599300  1
  H  449  1  0.08275700  0.50087000  0.02809700  1
  H  451  1  0.92164300  0.56448300  0.91380200  1
  H  452  1  0.95253700  0.56567500  0.93951900  1
  H  453  1  0.89081300  0.56423900  0.94059900  1
  H  460  1  0.38165900  0.01259600  0.44259700  1
  H  469  1  0.49869400  0.95325700  0.44741600  1
  H  470  1  0.43193400  0.98217700  0.43504100  1
  H  471  1  0.56691900  0.93279200  0.47657600  1
  H  472  1  0.58276000  0.94169900  0.54406900  1
  H  474  1  0.42220000  0.05613500  0.49295700  1
  H  475  1  0.45299600  0.03050700  0.51998500  1
  H  476  1  0.39124900  0.02963100  0.51974100  1
  H  483  1  0.38122800  0.44274500  0.49917300  1
  H  492  1  0.49843800  0.44753600  0.55365400  1
  H  493  1  0.43159300  0.43517100  0.53713000  1
  H  494  1  0.56670900  0.47670800  0.54493800  1
  H  495  1  0.58247200  0.54423900  0.46855500  1
  H  497  1  0.42167700  0.49315200  0.40527200  1
  H  498  1  0.45250400  0.52018700  0.40386900  1
  H  499  1  0.39075800  0.51993400  0.40498500  1
  H  506  1  0.38210500  0.49930000  0.01257200  1
  H  515  1  0.49939700  0.55377600  0.95332900  1
  H  516  1  0.43256600  0.53725100  0.98222900  1
  H  517  1  0.56755500  0.54507800  0.93280600  1
  H  518  1  0.58301300  0.46873600  0.94153500  1
  H  520  1  0.42226300  0.40539200  0.05596300  1
  H  521  1  0.45308300  0.40401000  0.03032700  1
  H  522  1  0.39134100  0.40514600  0.02944100  1
  H  548  1  0.68921500  0.32568900  0.93924500  1
  H  549  1  0.68255300  0.36114700  0.89525400  1
  H  550  1  0.83114300  0.31545500  0.92537200  1
  H  551  1  0.82346300  0.34970400  0.88089900  1
  H  552  1  0.81870200  0.37015100  0.82527900  1
  H  553  1  0.82318400  0.33600600  0.81441400  1
  H  554  1  0.68943100  0.30834600  0.84803400  1
  H  555  1  0.68478000  0.34240600  0.85913400  1
  H  556  1  0.67402700  0.38857500  0.81756300  1
  H  557  1  0.60691500  0.41409900  0.80795700  1
  H  558  1  0.65568600  0.44455400  0.85623500  1
  H  559  1  0.71935200  0.41489300  0.86961800  1
  H  560  1  0.81838000  0.39505400  0.87814200  1
  H  561  1  0.76555700  0.41870800  0.80160900  1
  H  562  1  0.82188300  0.45346200  0.78308600  1
  H  563  1  0.87891900  0.42631300  0.85940700  1
  H  589  1  0.68907600  0.14730600  0.82711710  1
  H  590  1  0.68241500  0.10332400  0.83563910  1
  H  591  1  0.83102800  0.13350800  0.85117210  1
  H  592  1  0.82335400  0.08903800  0.86137210  1
  H  593  1  0.81859700  0.03342200  0.89657310  1
  H  594  1  0.82314500  0.02257900  0.94157210  1
  H  595  1  0.68939400  0.05614200  0.93564012  1
  H  596  1  0.68469400  0.06721200  0.89049510  1
  H  597  1  0.67387000  0.02564400  0.88590210  1
  H  598  1  0.60672200  0.01601600  0.87000300  1
  H  599  1  0.65547300  0.06427000  0.79125900  1
  H  600  1  0.71918400  0.07767300  0.80751800  1
  H  601  1  0.81826000  0.08622500  0.81882410  1
  H  602  1  0.76532200  0.00969900  0.87170500  1
  H  603  1  0.82157600  0.99116855  0.85547145  1
  H  604  1  0.87873700  0.06748300  0.80629700  1
  H  630  1  0.68939600  0.03523100  0.11763900  1
  H  631  1  0.68285300  0.04373500  0.15311100  1
  H  632  1  0.83135400  0.05934600  0.10729000  1
  H  633  1  0.82379400  0.06953000  0.14157200  1
  H  634  1  0.81914000  0.10472300  0.16205300  1
  H  635  1  0.82365500  0.14973600  0.12793400  1
  H  636  1  0.68987300  0.14376500  0.10031300  1
  H  637  1  0.68520200  0.09860200  0.13435200  1
  H  638  1  0.67444600  0.09399200  0.18052300  1
  H  639  1  0.60734400  0.07806300  0.20609900  1
  H  640  1  0.65607000  0.99934055  0.23657345  1
  H  641  1  0.71972500  0.01562300  0.20686500  1
  H  642  1  0.81878800  0.02698000  0.18692500  1
  H  643  1  0.76595000  0.07979700  0.21064600  1
  H  644  1  0.82224000  0.06355700  0.24539300  1
  H  645  1  0.87930400  0.01445400  0.21817200  1
  H  671  1  0.18923300  0.67970700  0.65020900  1
  H  672  1  0.18268000  0.64424100  0.69419800  1
  H  673  1  0.33130800  0.68992000  0.66386300  1
  H  674  1  0.32374800  0.65564700  0.70833700  1
  H  675  1  0.31906300  0.63558500  0.76380200  1
  H  676  1  0.32342100  0.66980600  0.77456600  1
  H  677  1  0.18938700  0.69703600  0.74124000  1
  H  678  1  0.18486400  0.66289700  0.73025300  1
  H  679  1  0.17440400  0.61674200  0.77190800  1
  H  680  1  0.10734800  0.59106200  0.78165000  1
  H  681  1  0.15603800  0.56067500  0.73331500  1
  H  682  1  0.21963200  0.59046200  0.71981000  1
  H  683  1  0.31839300  0.61017600  0.71128900  1
  H  684  1  0.26597000  0.58695800  0.78780900  1
  H  685  1  0.32223100  0.55220100  0.80642200  1
  H  686  1  0.37880500  0.57885200  0.73007800  1
  H  712  1  0.18888200  0.85826500  0.76207400  1
  H  713  1  0.18225200  0.90224850  0.75354650  1
  H  714  1  0.33096700  0.87202700  0.73824000  1
  H  715  1  0.32334400  0.91650150  0.72803150  1
  H  716  1  0.31865300  0.97197550  0.69270150  1
  H  717  1  0.32314700  0.98278750  0.64770750  1
  H  718  1  0.18915200  0.94940250  0.65366150  1
  H  719  1  0.18448900  0.93837350  0.69879850  1
  H  720  1  0.17391500  0.97996650  0.70336550  1
  H  721  1  0.10685600  0.98967950  0.71929550  1
  H  722  1  0.15547700  0.94132350  0.79802550  1
  H  723  1  0.21906600  0.92784350  0.78175050  1
  H  724  1  0.31783400  0.91937550  0.77060150  1
  H  725  1  0.26546700  0.99589455  0.71733745  1
  H  726  1  0.32173200  0.01449900  0.73351700  1
  H  727  1  0.37825000  0.93815750  0.78317250  1
  H  753  1  0.18919400  0.97018450  0.47164350  1
  H  754  1  0.18270100  0.96165250  0.43618950  1
  H  755  1  0.33124100  0.94632750  0.48189550  1
  H  756  1  0.32374800  0.93611250  0.44762450  1
  H  757  1  0.31909200  0.90076650  0.42747450  1
  H  758  1  0.32345300  0.85578400  0.46168200  1
  H  759  1  0.18941200  0.86180600  0.48897200  1
  H  760  1  0.18487800  0.90692950  0.45484050  1
  H  761  1  0.17441800  0.91147250  0.40867950  1
  H  762  1  0.10741500  0.92741050  0.38299050  1
  H  763  1  0.15620300  0.00613200  0.35261600  1
  H  764  1  0.21973400  0.98984850  0.38241550  1
  H  765  1  0.31849800  0.97863750  0.40218050  1
  H  766  1  0.26604300  0.92541950  0.37885250  1
  H  767  1  0.32239900  0.94158050  0.34411950  1
  H  768  1  0.37901200  0.99117055  0.37089245  1
  H  775  1  0.80739600  0.16103300  0.07072800  1
  H  784  1  0.83598700  0.22540800  0.98129600  1
  H  785  1  0.83655900  0.18590000  0.02414800  1
  H  786  1  0.80629100  0.27098400  0.95160400  1
  H  787  1  0.72116000  0.30719400  0.98403700  1
  H  789  1  0.70516500  0.18335300  0.12246300  1
  H  790  1  0.66959300  0.20553500  0.09544800  1
  H  791  1  0.71723500  0.21775100  0.10596100  1
  H  798  1  0.80701200  0.27882100  0.86033800  1
  H  807  1  0.83582500  0.18943700  0.88532500  1
  H  808  1  0.83629900  0.23227600  0.88201100  1
  H  809  1  0.80617900  0.15972800  0.86942900  1
  H  810  1  0.72102800  0.19211100  0.80079412  1
  H  812  1  0.70474800  0.33048300  0.78628200  1
  H  813  1  0.66928100  0.30343900  0.79105800  1
  H  814  1  0.71696900  0.31403300  0.76835700  1
  H  821  1  0.80699700  0.06851900  0.95282900  1
  H  830  1  0.83593200  0.09352500  0.01721000  1
  H  831  1  0.83632500  0.09021500  0.97768000  1
  H  832  1  0.80638800  0.07760000  0.06283500  1
  H  833  1  0.72125900  0.00892100  0.09912700  1
  H  835  1  0.70472200  0.99441255  0.97526755  1
  H  836  1  0.66928600  0.99918755  0.99753757  1
  H  837  1  0.71696400  0.97650050  0.00963860  1
  H  844  1  0.30703700  0.84452100  0.51874100  1
  H  853  1  0.33592900  0.78005200  0.60809900  1
  H  854  1  0.33633700  0.81961600  0.56528700  1
  H  855  1  0.30637300  0.73441200  0.63776400  1
  H  856  1  0.22104700  0.69823600  0.60534500  1
  H  858  1  0.20466900  0.82218300  0.46704000  1
  H  859  1  0.16919300  0.79991300  0.49407400  1
  H  860  1  0.21686800  0.78780800  0.48348500  1
  H  867  1  0.30702600  0.72688200  0.72877400  1
  H  876  1  0.33579200  0.81625500  0.70389500  1
  H  877  1  0.33629100  0.77344200  0.70715000  1
  H  878  1  0.30611300  0.84590500  0.71984200  1
  H  879  1  0.22072700  0.81342500  0.78841300  1
  H  881  1  0.20458800  0.67510700  0.80277200  1
  H  882  1  0.16907700  0.70212000  0.79798800  1
  H  883  1  0.21671000  0.69155600  0.82070900  1
  H  890  1  0.30679800  0.93695850  0.63642750  1
  H  899  1  0.33570100  0.91200150  0.57201450  1
  H  900  1  0.33608400  0.91528650  0.61155750  1
  H  901  1  0.30619400  0.92794150  0.52638450  1
  H  902  1  0.22097300  0.99653755  0.49016445  1
  H  904  1  0.20444800  0.01096700  0.61407200  1
  H  905  1  0.16895700  0.00613200  0.59185700  1
  H  906  1  0.21658400  0.02887900  0.57968500  1
  H  913  1  0.88243500  0.47454200  0.83734600  1
  H  922  1  0.00041200  0.53331000  0.83286500  1
  H  923  1  0.93344300  0.50450100  0.84521600  1
  H  924  1  0.06832500  0.55403100  0.80343400  1
  H  925  1  0.08256400  0.54612000  0.73528000  1
  H  927  1  0.92133500  0.43182800  0.78601200  1
  H  928  1  0.95221200  0.45754000  0.75907600  1
  H  929  1  0.89048700  0.45857000  0.75943100  1
  H  936  1  0.88216000  0.04542100  0.78013200  1
  H  945  1  0.00002100  0.04090300  0.72583700  1
  H  946  1  0.93312200  0.05327500  0.74229700  1
  H  947  1  0.06784700  0.01144800  0.73454100  1
  H  948  1  0.08202300  0.94329950  0.81060850  1
  H  950  1  0.92106800  0.99406955  0.87417845  1
  H  951  1  0.95186100  0.96712650  0.87539750  1
  H  952  1  0.89013400  0.96749550  0.87402050  1
  H  959  1  0.88277000  0.98825550  0.26639750  1
  H  968  1  0.00061900  0.93395950  0.32518850  1
  H  969  1  0.93370800  0.95042250  0.29636550  1
  H  970  1  0.06847600  0.94266350  0.34594550  1
  H  971  1  0.08275700  0.01872200  0.33804900  1
  H  973  1  0.92164300  0.08233500  0.22375400  1
  H  974  1  0.95253700  0.08352700  0.24947100  1
  H  975  1  0.89081300  0.08209100  0.25055100  1
  H  982  1  0.38165900  0.53044800  0.75254900  1
  H  991  1  0.49869400  0.47110900  0.75736800  1
  H  992  1  0.43193400  0.50002900  0.74499300  1
  H  993  1  0.56691900  0.45064400  0.78652800  1
  H  994  1  0.58276000  0.45955100  0.85402100  1
  H  996  1  0.42220000  0.57398700  0.80290900  1
  H  997  1  0.45299600  0.54835900  0.82993700  1
  H  998  1  0.39124900  0.54748300  0.82969300  1
  H  1005  1  0.38122800  0.96059650  0.80912550  1
  H  1014  1  0.49843800  0.96538750  0.86360650  1
  H  1015  1  0.43159300  0.95302250  0.84708250  1
  H  1016  1  0.56670900  0.99455955  0.85489045  1
  H  1017  1  0.58247200  0.06209100  0.77850700  1
  H  1019  1  0.42167700  0.01100400  0.71522400  1
  H  1020  1  0.45250400  0.03803900  0.71382100  1
  H  1021  1  0.39075800  0.03778600  0.71493700  1
  H  1028  1  0.38210500  0.01715200  0.32252400  1
  H  1037  1  0.49939700  0.07162800  0.26328100  1
  H  1038  1  0.43256600  0.05510300  0.29218100  1
  H  1039  1  0.56755500  0.06293000  0.24275800  1
  H  1040  1  0.58301300  0.98658750  0.25148750  1
  H  1042  1  0.42226300  0.92324350  0.36591550  1
  H  1043  1  0.45308300  0.92186150  0.34027950  1
  H  1044  1  0.39134100  0.92299750  0.33939350  1
  C  1  1  0.85803300  0.92491200  0.50907800  1
  C  2  1  0.82341200  0.92235500  0.49306100  1
  C  3  1  0.78942100  0.90203700  0.50419500  1
  C  4  1  0.78699800  0.88376200  0.53199500  1
  C  5  1  0.81975500  0.88798600  0.54795500  1
  C  6  1  0.85527100  0.90726000  0.53681800  1
  C  7  1  0.74826700  0.86254200  0.54329700  1
  C  8  1  0.70354500  0.87946200  0.53613400  1
  C  9  1  0.69573400  0.89661400  0.54660500  1
  C  10  1  0.65722900  0.91415900  0.53876900  1
  C  11  1  0.62281500  0.91512300  0.52060000  1
  C  12  1  0.63020400  0.89751200  0.51066100  1
  C  13  1  0.66996900  0.88112900  0.51733400  1
  C  14  1  0.74978200  0.84358900  0.53204600  1
  C  15  1  0.75302800  0.84280900  0.57319700  1
  C  16  1  0.71491900  0.83486200  0.59140600  1
  C  17  1  0.71873700  0.81356600  0.61769800  1
  C  18  1  0.76101100  0.79902600  0.62730800  1
  C  19  1  0.79956200  0.80721600  0.60960300  1
  C  20  1  0.79516800  0.82793500  0.58321600  1
  C  21  1  0.78962000  0.84072700  0.51888400  1
  C  22  1  0.79276800  0.82030200  0.51260400  1
  C  23  1  0.75577600  0.80194800  0.51903100  1
  C  24  1  0.71574500  0.80435900  0.53190600  1
  C  25  1  0.71335100  0.82448500  0.53854800  1
  C  42  1  0.85778900  0.50925700  0.52027500  1
  C  43  1  0.82315200  0.49324500  0.53885000  1
  C  44  1  0.78921100  0.50438100  0.54804200  1
  C  45  1  0.78683700  0.53218100  0.53851600  1
  C  46  1  0.81960300  0.54813800  0.51832600  1
  C  47  1  0.85508700  0.53699600  0.51019200  1
  C  48  1  0.74812900  0.54348700  0.54842200  1
  C  49  1  0.70338000  0.53631600  0.53868000  1
  C  50  1  0.69556100  0.54676200  0.51106100  1
  C  51  1  0.65703000  0.53891500  0.50136300  1
  C  52  1  0.62260500  0.52075300  0.51857600  1
  C  53  1  0.63001400  0.51081900  0.54612500  1
  C  54  1  0.66980500  0.51750400  0.55582200  1
  C  55  1  0.74966700  0.53224400  0.57862300  1
  C  56  1  0.75291000  0.57339200  0.53823200  1
  C  57  1  0.71479300  0.59158200  0.52801300  1
  C  58  1  0.71861000  0.61788100  0.52300000  1
  C  59  1  0.76087900  0.62750100  0.52794300  1
  C  60  1  0.79942900  0.60981400  0.53745500  1
  C  61  1  0.79504500  0.58343300  0.54309100  1
  C  62  1  0.78953300  0.51912700  0.59464000  1
  C  63  1  0.79273000  0.51287400  0.62133500  1
  C  64  1  0.75575200  0.51927600  0.63327500  1
  C  65  1  0.71572500  0.53214400  0.61799200  1
  C  66  1  0.71328100  0.53875100  0.59123500  1
  C  83  1  0.85839500  0.52048800  0.92471000  1
  C  84  1  0.82378800  0.53905200  0.92216900  1
  C  85  1  0.78982400  0.54824600  0.90185300  1
  C  86  1  0.78740200  0.53873500  0.88356500  1
  C  87  1  0.82015300  0.51856500  0.88776900  1
  C  88  1  0.85567200  0.51043800  0.90702500  1
  C  89  1  0.74865700  0.54863700  0.86237300  1
  C  90  1  0.70393200  0.53887900  0.87931000  1
  C  91  1  0.69611800  0.51125700  0.89648900  1
  C  92  1  0.65762600  0.50154600  0.91406100  1
  C  93  1  0.62323300  0.51874700  0.91502800  1
  C  94  1  0.63062500  0.54629700  0.89740300  1
  C  95  1  0.67038200  0.55600900  0.88099400  1
  C  96  1  0.75020300  0.57884100  0.84342300  1
  C  97  1  0.75336600  0.53845500  0.84265100  1
  C  98  1  0.71521300  0.52821700  0.83470600  1
  C  99  1  0.71897100  0.52319000  0.81342700  1
  C  100  1  0.76119600  0.52817300  0.79882400  1
  C  101  1  0.79979000  0.53769100  0.80697900  1
  C  102  1  0.79546600  0.54333100  0.82772200  1
  C  103  1  0.79008500  0.59486700  0.84051100  1
  C  104  1  0.79324900  0.62158100  0.82011300  1
  C  105  1  0.75624300  0.63351800  0.80179600  1
  C  106  1  0.71622400  0.61821800  0.80419100  1
  C  107  1  0.71380300  0.59144800  0.82431700  1
  C  124  1  0.35811800  0.04481000  0.46050300  1
  C  125  1  0.32368500  0.04751400  0.47651600  1
  C  126  1  0.28975300  0.06783900  0.46533500  1
  C  127  1  0.28725600  0.08599000  0.43750900  1
  C  128  1  0.31985400  0.08163100  0.42157400  1
  C  129  1  0.35529200  0.06233500  0.43274400  1
  C  130  1  0.24851000  0.10717000  0.42616200  1
  C  131  1  0.20382300  0.09019600  0.43338200  1
  C  132  1  0.19602700  0.07302000  0.42293200  1
  C  133  1  0.15760500  0.05539200  0.43085000  1
  C  134  1  0.12327300  0.05438500  0.44906900  1
  C  135  1  0.13063300  0.07200000  0.45900600  1
  C  136  1  0.17033000  0.08846600  0.45225000  1
  C  137  1  0.25000300  0.12618500  0.43733700  1
  C  138  1  0.25324700  0.12683400  0.39624800  1
  C  139  1  0.21506000  0.13481200  0.37809700  1
  C  140  1  0.21880700  0.15611000  0.35180200  1
  C  141  1  0.26108900  0.17065300  0.34213600  1
  C  142  1  0.29972600  0.16244300  0.35977200  1
  C  143  1  0.29540300  0.14170300  0.38615900  1
  C  144  1  0.28990400  0.12922500  0.45034400  1
  C  145  1  0.29301500  0.14973000  0.45651000  1
  C  146  1  0.25587700  0.16795400  0.45019500  1
  C  147  1  0.21583600  0.16541600  0.43740000  1
  C  148  1  0.21349400  0.14522800  0.43084000  1
  C  165  1  0.35759900  0.46068300  0.44905400  1
  C  166  1  0.32316500  0.47669500  0.43034500  1
  C  167  1  0.28923000  0.46552000  0.42118000  1
  C  168  1  0.28673700  0.43769800  0.43082200  1
  C  169  1  0.31930200  0.42176100  0.45112500  1
  C  170  1  0.35474000  0.43292500  0.45927700  1
  C  171  1  0.24802900  0.42635900  0.42093800  1
  C  172  1  0.20330700  0.43353700  0.43068400  1
  C  173  1  0.19547300  0.42306000  0.45831000  1
  C  174  1  0.15703600  0.43095300  0.46801700  1
  C  175  1  0.12274600  0.44918700  0.45080000  1
  C  176  1  0.13012400  0.45913300  0.42324900  1
  C  177  1  0.16983500  0.45240500  0.41354200  1
  C  178  1  0.24959200  0.43757800  0.39074100  1
  C  179  1  0.25281200  0.39646000  0.43113200  1
  C  180  1  0.21464500  0.37827700  0.44132300  1
  C  181  1  0.21844800  0.35197800  0.44633900  1
  C  182  1  0.26074800  0.34234700  0.44145900  1
  C  183  1  0.29935300  0.36002300  0.43201600  1
  C  184  1  0.29500600  0.38640300  0.42638200  1
  C  185  1  0.28952500  0.45061700  0.37473200  1
  C  186  1  0.29272000  0.45681000  0.34805600  1
  C  187  1  0.25563900  0.45047600  0.33611600  1
  C  188  1  0.21555500  0.43766500  0.35139900  1
  C  189  1  0.21313200  0.43108300  0.37815100  1
  C  206  1  0.35831200  0.44918800  0.04468600  1
  C  207  1  0.32382200  0.43050700  0.04734000  1
  C  208  1  0.28984100  0.42134900  0.06765400  1
  C  209  1  0.28731200  0.43099800  0.08582500  1
  C  210  1  0.31996200  0.45126500  0.08151300  1
  C  211  1  0.35546400  0.45939200  0.06223600  1
  C  212  1  0.24854500  0.42113600  0.10701100  1
  C  213  1  0.20387600  0.43088700  0.09003900  1
  C  214  1  0.19611500  0.45851300  0.07287000  1
  C  215  1  0.15771700  0.46822600  0.05524500  1
  C  216  1  0.12339200  0.45101300  0.05422200  1
  C  217  1  0.13070300  0.42346000  0.07183700  1
  C  218  1  0.17038300  0.41374900  0.08829900  1
  C  219  1  0.25002400  0.39094100  0.12600000  1
  C  220  1  0.25326800  0.43134500  0.12671000  1
  C  221  1  0.21509100  0.44158800  0.13462000  1
  C  222  1  0.21880300  0.44658600  0.15592100  1
  C  223  1  0.26102900  0.44166500  0.17050500  1
  C  224  1  0.29967300  0.43222000  0.16232000  1
  C  225  1  0.29539600  0.42657600  0.14157700  1
  C  226  1  0.28993200  0.37491700  0.12902700  1
  C  227  1  0.29301200  0.34822600  0.14949100  1
  C  228  1  0.25589200  0.33631100  0.16774800  1
  C  229  1  0.21585000  0.35162300  0.16523500  1
  C  230  1  0.21350400  0.37837000  0.14505200  1
  C  247  1  0.76201300  0.65866300  0.77864200  1
  C  248  1  0.73652400  0.68170800  0.77373200  1
  C  250  1  0.76617800  0.70574200  0.72896200  1
  C  251  1  0.79209500  0.68318000  0.73291400  1
  C  252  1  0.78997600  0.65985000  0.75796400  1
  C  254  1  0.76640800  0.72916900  0.70382500  1
  C  255  1  0.74006000  0.77375300  0.67546900  1
  C  256  1  0.76387100  0.77574900  0.65313400  1
  C  257  1  0.78970000  0.75311100  0.65729800  1
  C  259  1  0.79175200  0.72985000  0.68244500  1
  C  260  1  0.81755900  0.70735200  0.68658000  1
  C  261  1  0.81800200  0.68423400  0.71169700  1
  C  266  1  0.70545400  0.68361700  0.79314300  1
  C  270  1  0.76157700  0.77878600  0.51706200  1
  C  271  1  0.73619300  0.77388800  0.49888000  1
  C  273  1  0.76594800  0.72914900  0.51959100  1
  C  274  1  0.79182600  0.73311300  0.53821200  1
  C  275  1  0.78962500  0.75814800  0.53652100  1
  C  277  1  0.76623300  0.70402200  0.52128400  1
  C  278  1  0.73992600  0.67565400  0.50504600  1
  C  279  1  0.76375000  0.65333400  0.52538400  1
  C  280  1  0.78957400  0.65751200  0.54385700  1
  C  282  1  0.79159900  0.68265900  0.54197700  1
  C  283  1  0.81738300  0.68680600  0.56034500  1
  C  284  1  0.81777000  0.71191900  0.55836300  1
  C  289  1  0.70512200  0.79327500  0.47755600  1
  C  293  1  0.76158800  0.51731100  0.65840100  1
  C  294  1  0.73621000  0.49913000  0.68149100  1
  C  296  1  0.76600300  0.51986100  0.70550300  1
  C  297  1  0.79185600  0.53849400  0.68290700  1
  C  298  1  0.78962200  0.53679500  0.65957000  1
  C  300  1  0.76634100  0.52154800  0.72894200  1
  C  301  1  0.74013600  0.50528500  0.77356600  1
  C  302  1  0.76399500  0.52562500  0.77554200  1
  C  303  1  0.78976600  0.54412200  0.75287300  1
  C  305  1  0.79172700  0.54225200  0.72960100  1
  C  306  1  0.81747500  0.56063800  0.70707100  1
  C  307  1  0.81781300  0.55865800  0.68394000  1
  C  312  1  0.70511900  0.47779300  0.68344200  1
  C  316  1  0.26152700  0.31120000  0.19095400  1
  C  317  1  0.23611100  0.28812500  0.19584200  1
  C  319  1  0.26587100  0.26406900  0.24058000  1
  C  320  1  0.29179000  0.28664300  0.23663200  1
  C  321  1  0.28959100  0.30999500  0.21160500  1
  C  323  1  0.26619400  0.24061100  0.26569000  1
  C  324  1  0.23995600  0.19598100  0.29401100  1
  C  325  1  0.26387700  0.19396000  0.31632600  1
  C  326  1  0.28968300  0.21660900  0.31217700  1
  C  328  1  0.29163500  0.23990700  0.28705300  1
  C  329  1  0.31743400  0.26241900  0.28292400  1
  C  330  1  0.31777800  0.28557100  0.25783000  1
  C  335  1  0.20503400  0.28619700  0.17644200  1
  C  339  1  0.26148900  0.19115700  0.45211400  1
  C  340  1  0.23602300  0.19602500  0.47029100  1
  C  342  1  0.26576200  0.24078200  0.44962900  1
  C  343  1  0.29172300  0.23685100  0.43101200  1
  C  344  1  0.28958800  0.21181900  0.43269200  1
  C  346  1  0.26603300  0.26589300  0.44797300  1
  C  347  1  0.23967500  0.29420500  0.46425700  1
  C  348  1  0.26357800  0.31653900  0.44396500  1
  C  349  1  0.28947200  0.31239900  0.42549100  1
  C  351  1  0.29146300  0.28727700  0.42731800  1
  C  352  1  0.31730800  0.28316700  0.40894400  1
  C  353  1  0.31771200  0.25806800  0.41089500  1
  C  358  1  0.20492600  0.17660800  0.49159900  1
  C  362  1  0.26137600  0.45243600  0.31098200  1
  C  363  1  0.23591100  0.47056800  0.28792400  1
  C  365  1  0.26570600  0.44987800  0.26388200  1
  C  366  1  0.29159600  0.43126900  0.28645800  1
  C  367  1  0.28940900  0.43297300  0.30979600  1
  C  369  1  0.26604300  0.44820200  0.24043800  1
  C  370  1  0.23985400  0.46447900  0.19581200  1
  C  371  1  0.26376100  0.44417500  0.19380900  1
  C  372  1  0.28955600  0.42569700  0.21645900  1
  C  374  1  0.29146700  0.42753500  0.23975000  1
  C  375  1  0.31722700  0.40916500  0.26226600  1
  C  376  1  0.31758200  0.41113900  0.28540000  1
  C  381  1  0.20479600  0.49187200  0.28600000  1
  C  385  1  0.89342700  0.94520800  0.49836400  1
  C  386  1  0.92304800  0.95029700  0.47649600  1
  C  388  1  0.96789500  0.98252900  0.48179200  1
  C  389  1  0.94055100  0.97770000  0.50415200  1
  C  390  1  0.90272300  0.95974900  0.51153300  1
  C  392  1  0.00591100  0.00055500  0.47370800  1
  C  393  1  0.06758000  0.02417400  0.44291000  1
  C  394  1  0.08370100  0.03622800  0.45755200  1
  C  395  1  0.05815200  0.02925500  0.48120700  1
  C  397  1  0.01863000  0.01235400  0.48907700  1
  C  398  1  0.99190000  0.00693800  0.51171800  1
  C  399  1  0.95239700  0.99026400  0.51880900  1
  C  404  1  0.92161300  0.93532500  0.46201400  1
  C  408  1  0.89313900  0.49853500  0.51069100  1
  C  409  1  0.92271300  0.47665400  0.52746800  1
  C  411  1  0.96750000  0.48193600  0.48993500  1
  C  412  1  0.94019800  0.50430700  0.47240500  1
  C  413  1  0.90242100  0.51170200  0.48298000  1
  C  415  1  0.00546500  0.47383900  0.47998900  1
  C  416  1  0.06706000  0.44303100  0.48716700  1
  C  417  1  0.08318900  0.45767000  0.46047000  1
  C  418  1  0.05767100  0.48132500  0.44378900  1
  C  420  1  0.01818400  0.48920300  0.45281900  1
  C  421  1  0.99148300  0.51184600  0.43559500  1
  C  422  1  0.95203900  0.51895900  0.44518400  1
  C  427  1  0.92128700  0.46217200  0.55692200  1
  C  431  1  0.89378400  0.51091200  0.94499200  1
  C  432  1  0.92342000  0.52768900  0.95008100  1
  C  434  1  0.96819700  0.49015800  0.98230900  1
  C  435  1  0.94086200  0.47263100  0.97746600  1
  C  436  1  0.90305200  0.48320200  0.95952000  1
  C  438  1  0.00616700  0.48021200  0.00035000  1
  C  439  1  0.06777700  0.48738500  0.02399500  1
  C  440  1  0.08386300  0.46069000  0.03605100  1
  C  441  1  0.05832000  0.44400800  0.02907000  1
  C  443  1  0.01885100  0.45304300  0.01215100  1
  C  444  1  0.99212000  0.43582200  0.00672500  1
  C  445  1  0.95270200  0.44541600  0.99000600  1
  C  450  1  0.92194200  0.55714200  0.93515800  1
  C  454  1  0.39341200  0.02449200  0.47125400  1
  C  455  1  0.42334100  0.01960000  0.49294200  1
  C  457  1  0.46754400  0.98701400  0.48793700  1
  C  458  1  0.43984200  0.99162100  0.46576900  1
  C  459  1  0.40218100  0.00966400  0.45833300  1
  C  461  1  0.50544300  0.96892900  0.49604600  1
  C  462  1  0.56746400  0.94555600  0.52663800  1
  C  463  1  0.58316700  0.93322700  0.51217700  1
  C  464  1  0.55713300  0.93991400  0.48874000  1
  C  466  1  0.51766400  0.95682700  0.48089100  1
  C  467  1  0.49052700  0.96198500  0.45846300  1
  C  468  1  0.45120100  0.97876400  0.45133100  1
  C  473  1  0.42231200  0.03482600  0.50717000  1
  C  477  1  0.39292400  0.47143200  0.45862100  1
  C  478  1  0.42282800  0.49314400  0.44182100  1
  C  480  1  0.46715400  0.48810100  0.47940000  1
  C  481  1  0.43945200  0.46592300  0.49696500  1
  C  482  1  0.40174200  0.45849500  0.48636600  1
  C  484  1  0.50509900  0.49620700  0.48936200  1
  C  485  1  0.56716200  0.52680700  0.48213000  1
  C  486  1  0.58291800  0.51232800  0.50890800  1
  C  487  1  0.55688700  0.48888000  0.52566300  1
  C  489  1  0.51737200  0.48103600  0.51661000  1
  C  490  1  0.49023500  0.45859500  0.53388500  1
  C  491  1  0.45086100  0.45146900  0.52425100  1
  C  496  1  0.42181000  0.50736900  0.41236400  1
  C  500  1  0.39367200  0.45875500  0.02438800  1
  C  501  1  0.42349900  0.44196200  0.01944400  1
  C  503  1  0.46790600  0.47954000  0.98693900  1
  C  504  1  0.44028100  0.49709600  0.99158500  1
  C  505  1  0.40256700  0.48649900  0.00961000  1
  C  507  1  0.50584000  0.48950700  0.96886400  1
  C  508  1  0.56779000  0.48229400  0.94543900  1
  C  509  1  0.58359500  0.50906700  0.93315500  1
  C  510  1  0.55767700  0.52580600  0.93989900  1
  C  512  1  0.51818700  0.51674700  0.95681400  1
  C  513  1  0.49114100  0.53401300  0.96201900  1
  C  514  1  0.45177000  0.52437800  0.97878500  1
  C  519  1  0.42241000  0.41250700  0.03465000  1
  C  523  1  0.85803300  0.44276400  0.81903000  1
  C  524  1  0.82341200  0.44020700  0.80301300  1
  C  525  1  0.78942100  0.41988900  0.81414700  1
  C  526  1  0.78699800  0.40161400  0.84194700  1
  C  527  1  0.81975500  0.40583800  0.85790700  1
  C  528  1  0.85527100  0.42511200  0.84677000  1
  C  529  1  0.74826700  0.38039400  0.85324900  1
  C  530  1  0.70354500  0.39731400  0.84608600  1
  C  531  1  0.69573400  0.41446600  0.85655700  1
  C  532  1  0.65722900  0.43201100  0.84872100  1
  C  533  1  0.62281500  0.43297500  0.83055200  1
  C  534  1  0.63020400  0.41536400  0.82061300  1
  C  535  1  0.66996900  0.39898100  0.82728600  1
  C  536  1  0.74978200  0.36144100  0.84199800  1
  C  537  1  0.75302800  0.36066100  0.88314900  1
  C  538  1  0.71491900  0.35271400  0.90135800  1
  C  539  1  0.71873700  0.33141800  0.92765000  1
  C  540  1  0.76101100  0.31687800  0.93726000  1
  C  541  1  0.79956200  0.32506800  0.91955500  1
  C  542  1  0.79516800  0.34578700  0.89316800  1
  C  543  1  0.78962000  0.35857900  0.82883600  1
  C  544  1  0.79276800  0.33815400  0.82255600  1
  C  545  1  0.75577600  0.31980000  0.82898300  1
  C  546  1  0.71574500  0.32221100  0.84185800  1
  C  547  1  0.71335100  0.34233700  0.84850000  1
  C  564  1  0.85778900  0.02710900  0.83022700  1
  C  565  1  0.82315200  0.01109700  0.84880200  1
  C  566  1  0.78921100  0.02223300  0.85799400  1
  C  567  1  0.78683700  0.05003300  0.84846800  1
  C  568  1  0.81960300  0.06599000  0.82827800  1
  C  569  1  0.85508700  0.05484800  0.82014400  1
  C  570  1  0.74812900  0.06133900  0.85837410  1
  C  571  1  0.70338000  0.05416800  0.84863210  1
  C  572  1  0.69556100  0.06461400  0.82101300  1
  C  573  1  0.65703000  0.05676700  0.81131500  1
  C  574  1  0.62260500  0.03860500  0.82852800  1
  C  575  1  0.63001400  0.02867100  0.85607700  1
  C  576  1  0.66980500  0.03535600  0.86577410  1
  C  577  1  0.74966700  0.05009600  0.88857510  1
  C  578  1  0.75291000  0.09124400  0.84818410  1
  C  579  1  0.71479300  0.10943400  0.83796510  1
  C  580  1  0.71861000  0.13573300  0.83295210  1
  C  581  1  0.76087900  0.14535300  0.83789510  1
  C  582  1  0.79942900  0.12766600  0.84740710  1
  C  583  1  0.79504500  0.10128500  0.85304310  1
  C  584  1  0.78953300  0.03697900  0.90459210  1
  C  585  1  0.79273000  0.03072600  0.93128710  1
  C  586  1  0.75575200  0.03712800  0.94322710  1
  C  587  1  0.71572500  0.04999600  0.92794410  1
  C  588  1  0.71328100  0.05660300  0.90118710  1
  C  605  1  0.85839500  0.03834000  0.23466200  1
  C  606  1  0.82378800  0.05690400  0.23212100  1
  C  607  1  0.78982400  0.06609800  0.21180500  1
  C  608  1  0.78740200  0.05658700  0.19351700  1
  C  609  1  0.82015300  0.03641700  0.19772100  1
  C  610  1  0.85567200  0.02829000  0.21697700  1
  C  611  1  0.74865700  0.06648900  0.17232500  1
  C  612  1  0.70393200  0.05673100  0.18926200  1
  C  613  1  0.69611800  0.02910900  0.20644100  1
  C  614  1  0.65762600  0.01939800  0.22401300  1
  C  615  1  0.62323300  0.03659900  0.22498000  1
  C  616  1  0.63062500  0.06414900  0.20735500  1
  C  617  1  0.67038200  0.07386100  0.19094600  1
  C  618  1  0.75020300  0.09669300  0.15337500  1
  C  619  1  0.75336600  0.05630700  0.15260300  1
  C  620  1  0.71521300  0.04606900  0.14465800  1
  C  621  1  0.71897100  0.04104200  0.12337900  1
  C  622  1  0.76119600  0.04602500  0.10877600  1
  C  623  1  0.79979000  0.05554300  0.11693100  1
  C  624  1  0.79546600  0.06118300  0.13767400  1
  C  625  1  0.79008500  0.11271900  0.15046300  1
  C  626  1  0.79324900  0.13943300  0.13006500  1
  C  627  1  0.75624300  0.15137000  0.11174800  1
  C  628  1  0.71622400  0.13607000  0.11414300  1
  C  629  1  0.71380300  0.10930000  0.13426900  1
  C  646  1  0.35811800  0.56266200  0.77045500  1
  C  647  1  0.32368500  0.56536600  0.78646800  1
  C  648  1  0.28975300  0.58569100  0.77528700  1
  C  649  1  0.28725600  0.60384200  0.74746100  1
  C  650  1  0.31985400  0.59948300  0.73152600  1
  C  651  1  0.35529200  0.58018700  0.74269600  1
  C  652  1  0.24851000  0.62502200  0.73611400  1
  C  653  1  0.20382300  0.60804800  0.74333400  1
  C  654  1  0.19602700  0.59087200  0.73288400  1
  C  655  1  0.15760500  0.57324400  0.74080200  1
  C  656  1  0.12327300  0.57223700  0.75902100  1
  C  657  1  0.13063300  0.58985200  0.76895800  1
  C  658  1  0.17033000  0.60631800  0.76220200  1
  C  659  1  0.25000300  0.64403700  0.74728900  1
  C  660  1  0.25324700  0.64468600  0.70620000  1
  C  661  1  0.21506000  0.65266400  0.68804900  1
  C  662  1  0.21880700  0.67396200  0.66175400  1
  C  663  1  0.26108900  0.68850500  0.65208800  1
  C  664  1  0.29972600  0.68029500  0.66972400  1
  C  665  1  0.29540300  0.65955500  0.69611100  1
  C  666  1  0.28990400  0.64707700  0.76029600  1
  C  667  1  0.29301500  0.66758200  0.76646200  1
  C  668  1  0.25587700  0.68580600  0.76014700  1
  C  669  1  0.21583600  0.68326800  0.74735200  1
  C  670  1  0.21349400  0.66308000  0.74079200  1
  C  687  1  0.35759900  0.97853450  0.75900650  1
  C  688  1  0.32316500  0.99454655  0.74029745  1
  C  689  1  0.28923000  0.98337150  0.73113250  1
  C  690  1  0.28673700  0.95554950  0.74077450  1
  C  691  1  0.31930200  0.93961250  0.76107750  1
  C  692  1  0.35474000  0.95077650  0.76922950  1
  C  693  1  0.24802900  0.94421050  0.73089050  1
  C  694  1  0.20330700  0.95138850  0.74063650  1
  C  695  1  0.19547300  0.94091150  0.76826250  1
  C  696  1  0.15703600  0.94880450  0.77796950  1
  C  697  1  0.12274600  0.96703850  0.76075250  1
  C  698  1  0.13012400  0.97698450  0.73320150  1
  C  699  1  0.16983500  0.97025650  0.72349450  1
  C  700  1  0.24959200  0.95542950  0.70069350  1
  C  701  1  0.25281200  0.91431150  0.74108450  1
  C  702  1  0.21464500  0.89612900  0.75127500  1
  C  703  1  0.21844800  0.86983000  0.75629100  1
  C  704  1  0.26074800  0.86019900  0.75141100  1
  C  705  1  0.29935300  0.87787500  0.74196800  1
  C  706  1  0.29500600  0.90425450  0.73633450  1
  C  707  1  0.28952500  0.96846850  0.68468450  1
  C  708  1  0.29272000  0.97466150  0.65800850  1
  C  709  1  0.25563900  0.96832750  0.64606850  1
  C  710  1  0.21555500  0.95551650  0.66135150  1
  C  711  1  0.21313200  0.94893450  0.68810350  1
  C  728  1  0.35831200  0.96703950  0.35463850  1
  C  729  1  0.32382200  0.94835850  0.35729250  1
  C  730  1  0.28984100  0.93920050  0.37760650  1
  C  731  1  0.28731200  0.94884950  0.39577750  1
  C  732  1  0.31996200  0.96911650  0.39146550  1
  C  733  1  0.35546400  0.97724350  0.37218850  1
  C  734  1  0.24854500  0.93898750  0.41696350  1
  C  735  1  0.20387600  0.94873850  0.39999150  1
  C  736  1  0.19611500  0.97636450  0.38282250  1
  C  737  1  0.15771700  0.98607750  0.36519750  1
  C  738  1  0.12339200  0.96886450  0.36417450  1
  C  739  1  0.13070300  0.94131150  0.38178950  1
  C  740  1  0.17038300  0.93160050  0.39825150  1
  C  741  1  0.25002400  0.90879250  0.43595250  1
  C  742  1  0.25326800  0.94919650  0.43666250  1
  C  743  1  0.21509100  0.95943950  0.44457250  1
  C  744  1  0.21880300  0.96443750  0.46587350  1
  C  745  1  0.26102900  0.95951650  0.48045750  1
  C  746  1  0.29967300  0.95007150  0.47227250  1
  C  747  1  0.29539600  0.94442750  0.45152950  1
  C  748  1  0.28993200  0.89276900  0.43897900  1
  C  749  1  0.29301200  0.86607800  0.45944300  1
  C  750  1  0.25589200  0.85416300  0.47770000  1
  C  751  1  0.21585000  0.86947500  0.47518700  1
  C  752  1  0.21350400  0.89622200  0.45500400  1
  C  769  1  0.76201300  0.17651500  0.08859400  1
  C  770  1  0.73652400  0.19956000  0.08368400  1
  C  772  1  0.76617800  0.22359400  0.03891400  1
  C  773  1  0.79209500  0.20103200  0.04286600  1
  C  774  1  0.78997600  0.17770200  0.06791600  1
  C  776  1  0.76640800  0.24702100  0.01377700  1
  C  777  1  0.74006000  0.29160500  0.98542100  1
  C  778  1  0.76387100  0.29360100  0.96308600  1
  C  779  1  0.78970000  0.27096300  0.96725000  1
  C  781  1  0.79175200  0.24770200  0.99239700  1
  C  782  1  0.81755900  0.22520400  0.99653200  1
  C  783  1  0.81800200  0.20208600  0.02164900  1
  C  788  1  0.70545400  0.20146900  0.10309500  1
  C  792  1  0.76157700  0.29663800  0.82701400  1
  C  793  1  0.73619300  0.29174000  0.80883200  1
  C  795  1  0.76594800  0.24700100  0.82954300  1
  C  796  1  0.79182600  0.25096500  0.84816400  1
  C  797  1  0.78962500  0.27600000  0.84647300  1
  C  799  1  0.76623300  0.22187400  0.83123600  1
  C  800  1  0.73992600  0.19350600  0.81499800  1
  C  801  1  0.76375000  0.17118600  0.83533600  1
  C  802  1  0.78957400  0.17536400  0.85380900  1
  C  804  1  0.79159900  0.20051100  0.85192900  1
  C  805  1  0.81738300  0.20465800  0.87029700  1
  C  806  1  0.81777000  0.22977100  0.86831500  1
  C  811  1  0.70512200  0.31112700  0.78750800  1
  C  815  1  0.76158800  0.03516300  0.96835300  1
  C  816  1  0.73621000  0.01698200  0.99144300  1
  C  818  1  0.76600300  0.03771300  0.01545500  1
  C  819  1  0.79185600  0.05634600  0.99285900  1
  C  820  1  0.78962200  0.05464700  0.96952200  1
  C  822  1  0.76634100  0.03940000  0.03889400  1
  C  823  1  0.74013600  0.02313700  0.08351800  1
  C  824  1  0.76399500  0.04347700  0.08549400  1
  C  825  1  0.78976600  0.06197400  0.06282500  1
  C  827  1  0.79172700  0.06010400  0.03955300  1
  C  828  1  0.81747500  0.07849000  0.01702300  1
  C  829  1  0.81781300  0.07651000  0.99389200  1
  C  834  1  0.70511900  0.99564455  0.99339455  1
  C  838  1  0.26152700  0.82905200  0.50090600  1
  C  839  1  0.23611100  0.80597700  0.50579400  1
  C  841  1  0.26587100  0.78192100  0.55053200  1
  C  842  1  0.29179000  0.80449500  0.54658400  1
  C  843  1  0.28959100  0.82784700  0.52155700  1
  C  845  1  0.26619400  0.75846300  0.57564200  1
  C  846  1  0.23995600  0.71383300  0.60396300  1
  C  847  1  0.26387700  0.71181200  0.62627800  1
  C  848  1  0.28968300  0.73446100  0.62212900  1
  C  850  1  0.29163500  0.75775900  0.59700500  1
  C  851  1  0.31743400  0.78027100  0.59287600  1
  C  852  1  0.31777800  0.80342300  0.56778200  1
  C  857  1  0.20503400  0.80404900  0.48639400  1
  C  861  1  0.26148900  0.70900900  0.76206600  1
  C  862  1  0.23602300  0.71387700  0.78024300  1
  C  864  1  0.26576200  0.75863400  0.75958100  1
  C  865  1  0.29172300  0.75470300  0.74096400  1
  C  866  1  0.28958800  0.72967100  0.74264400  1
  C  868  1  0.26603300  0.78374500  0.75792500  1
  C  869  1  0.23967500  0.81205700  0.77420900  1
  C  870  1  0.26357800  0.83439100  0.75391700  1
  C  871  1  0.28947200  0.83025100  0.73544300  1
  C  873  1  0.29146300  0.80512900  0.73727000  1
  C  874  1  0.31730800  0.80101900  0.71889600  1
  C  875  1  0.31771200  0.77592000  0.72084700  1
  C  880  1  0.20492600  0.69446000  0.80155100  1
  C  884  1  0.26137600  0.97028750  0.62093450  1
  C  885  1  0.23591100  0.98841950  0.59787650  1
  C  887  1  0.26570600  0.96772950  0.57383450  1
  C  888  1  0.29159600  0.94912050  0.59641050  1
  C  889  1  0.28940900  0.95082450  0.61974850  1
  C  891  1  0.26604300  0.96605350  0.55039050  1
  C  892  1  0.23985400  0.98233050  0.50576450  1
  C  893  1  0.26376100  0.96202650  0.50376150  1
  C  894  1  0.28955600  0.94354850  0.52641150  1
  C  896  1  0.29146700  0.94538650  0.54970250  1
  C  897  1  0.31722700  0.92701650  0.57221850  1
  C  898  1  0.31758200  0.92899050  0.59535250  1
  C  903  1  0.20479600  0.00972400  0.59595200  1
  C  907  1  0.89342700  0.46306000  0.80831600  1
  C  908  1  0.92304800  0.46814900  0.78644800  1
  C  910  1  0.96789500  0.50038100  0.79174400  1
  C  911  1  0.94055100  0.49555200  0.81410400  1
  C  912  1  0.90272300  0.47760100  0.82148500  1
  C  914  1  0.00591100  0.51840700  0.78366000  1
  C  915  1  0.06758000  0.54202600  0.75286200  1
  C  916  1  0.08370100  0.55408000  0.76750400  1
  C  917  1  0.05815200  0.54710700  0.79115900  1
  C  919  1  0.01863000  0.53020600  0.79902900  1
  C  920  1  0.99190000  0.52479000  0.82167000  1
  C  921  1  0.95239700  0.50811600  0.82876100  1
  C  926  1  0.92161300  0.45317700  0.77196600  1
  C  930  1  0.89313900  0.01638700  0.82064300  1
  C  931  1  0.92271300  0.99450555  0.83742045  1
  C  933  1  0.96750000  0.99978755  0.79988745  1
  C  934  1  0.94019800  0.02215900  0.78235700  1
  C  935  1  0.90242100  0.02955400  0.79293200  1
  C  937  1  0.00546500  0.99169055  0.78994145  1
  C  938  1  0.06706000  0.96088250  0.79711950  1
  C  939  1  0.08318900  0.97552150  0.77042250  1
  C  940  1  0.05767100  0.99917655  0.75374145  1
  C  942  1  0.01818400  0.00705500  0.76277100  1
  C  943  1  0.99148300  0.02969800  0.74554700  1
  C  944  1  0.95203900  0.03681100  0.75513600  1
  C  949  1  0.92128700  0.98002350  0.86687450  1
  C  953  1  0.89378400  0.02876400  0.25494400  1
  C  954  1  0.92342000  0.04554100  0.26003300  1
  C  956  1  0.96819700  0.00801000  0.29226100  1
  C  957  1  0.94086200  0.99048255  0.28741845  1
  C  958  1  0.90305200  0.00105400  0.26947200  1
  C  960  1  0.00616700  0.99806355  0.31030245  1
  C  961  1  0.06777700  0.00523700  0.33394700  1
  C  962  1  0.08386300  0.97854150  0.34600350  1
  C  963  1  0.05832000  0.96185950  0.33902250  1
  C  965  1  0.01885100  0.97089450  0.32210350  1
  C  966  1  0.99212000  0.95367350  0.31667750  1
  C  967  1  0.95270200  0.96326750  0.29995850  1
  C  972  1  0.92194200  0.07499400  0.24511000  1
  C  976  1  0.39341200  0.54234400  0.78120600  1
  C  977  1  0.42334100  0.53745200  0.80289400  1
  C  979  1  0.46754400  0.50486600  0.79788900  1
  C  980  1  0.43984200  0.50947300  0.77572100  1
  C  981  1  0.40218100  0.52751600  0.76828500  1
  C  983  1  0.50544300  0.48678100  0.80599800  1
  C  984  1  0.56746400  0.46340800  0.83659000  1
  C  985  1  0.58316700  0.45107900  0.82212900  1
  C  986  1  0.55713300  0.45776600  0.79869200  1
  C  988  1  0.51766400  0.47467900  0.79084300  1
  C  989  1  0.49052700  0.47983700  0.76841500  1
  C  990  1  0.45120100  0.49661600  0.76128300  1
  C  995  1  0.42231200  0.55267800  0.81712200  1
  C  999  1  0.39292400  0.98928350  0.76857350  1
  C  1000  1  0.42282800  0.01099600  0.75177300  1
  C  1002  1  0.46715400  0.00595300  0.78935200  1
  C  1003  1  0.43945200  0.98377450  0.80691750  1
  C  1004  1  0.40174200  0.97634650  0.79631850  1
  C  1006  1  0.50509900  0.01405900  0.79931400  1
  C  1007  1  0.56716200  0.04465900  0.79208200  1
  C  1008  1  0.58291800  0.03018000  0.81886000  1
  C  1009  1  0.55688700  0.00673200  0.83561500  1
  C  1011  1  0.51737200  0.99888755  0.82656245  1
  C  1012  1  0.49023500  0.97644650  0.84383750  1
  C  1013  1  0.45086100  0.96932050  0.83420350  1
  C  1018  1  0.42181000  0.02522100  0.72231600  1
  C  1022  1  0.39367200  0.97660650  0.33434050  1
  C  1023  1  0.42349900  0.95981350  0.32939650  1
  C  1025  1  0.46790600  0.99739155  0.29689145  1
  C  1026  1  0.44028100  0.01494800  0.30153700  1
  C  1027  1  0.40256700  0.00435100  0.31956200  1
  C  1029  1  0.50584000  0.00735900  0.27881600  1
  C  1030  1  0.56779000  0.00014600  0.25539100  1
  C  1031  1  0.58359500  0.02691900  0.24310700  1
  C  1032  1  0.55767700  0.04365800  0.24985100  1
  C  1034  1  0.51818700  0.03459900  0.26676600  1
  C  1035  1  0.49114100  0.05186500  0.27197100  1
  C  1036  1  0.45177000  0.04223000  0.28873700  1
  C  1041  1  0.42241000  0.93035850  0.34460250  1
  N  249  1  0.74003800  0.70394100  0.74937300  1
  N  258  1  0.74187300  0.75106500  0.69943100  1
  N  272  1  0.73978700  0.74954300  0.50098200  1
  N  281  1  0.74171100  0.69961400  0.50377900  1
  N  295  1  0.73983000  0.50123900  0.70372900  1
  N  304  1  0.74185600  0.50402700  0.75086700  1
  N  318  1  0.23968900  0.26587500  0.22017900  1
  N  327  1  0.24167000  0.21870200  0.27007500  1
  N  341  1  0.23957000  0.22036400  0.46820800  1
  N  350  1  0.24145200  0.27026400  0.46548200  1
  N  364  1  0.23950300  0.46846400  0.26568300  1
  N  373  1  0.24155100  0.46571400  0.21852400  1
  N  387  1  0.95802000  0.96863100  0.46931400  1
  N  396  1  0.03080400  0.00700700  0.45136200  1
  N  410  1  0.95763600  0.46946300  0.51630900  1
  N  419  1  0.03032300  0.45149000  0.49588300  1
  N  433  1  0.95834500  0.51653300  0.96842600  1
  N  442  1  0.03104600  0.49610300  0.00681400  1
  N  456  1  0.45813300  0.00117600  0.50019200  1
  N  465  1  0.53073300  0.96273000  0.51819800  1
  N  479  1  0.45768700  0.50037600  0.45298800  1
  N  488  1  0.53038900  0.51836700  0.47340700  1
  N  502  1  0.45836800  0.45313000  0.00104800  1
  N  511  1  0.53103900  0.47356400  0.96261700  1
  N  771  1  0.74003800  0.22179300  0.05932500  1
  N  780  1  0.74187300  0.26891700  0.00938300  1
  N  794  1  0.73978700  0.26739500  0.81093400  1
  N  803  1  0.74171100  0.21746600  0.81373100  1
  N  817  1  0.73983000  0.01909100  0.01368100  1
  N  826  1  0.74185600  0.02187900  0.06081900  1
  N  840  1  0.23968900  0.78372700  0.53013100  1
  N  849  1  0.24167000  0.73655400  0.58002700  1
  N  863  1  0.23957000  0.73821600  0.77816000  1
  N  872  1  0.24145200  0.78811600  0.77543400  1
  N  886  1  0.23950300  0.98631550  0.57563550  1
  N  895  1  0.24155100  0.98356550  0.52847650  1
  N  909  1  0.95802000  0.48648300  0.77926600  1
  N  918  1  0.03080400  0.52485900  0.76131400  1
  N  932  1  0.95763600  0.98731450  0.82626150  1
  N  941  1  0.03032300  0.96934150  0.80583550  1
  N  955  1  0.95834500  0.03438500  0.27837800  1
  N  964  1  0.03104600  0.01395500  0.31676600  1
  N  978  1  0.45813300  0.51902800  0.81014400  1
  N  987  1  0.53073300  0.48058200  0.82815000  1
  N  1001  1  0.45768700  0.01822800  0.76294000  1
  N  1010  1  0.53038900  0.03621900  0.78335900  1
  N  1024  1  0.45836800  0.97098150  0.31100050  1
  N  1033  1  0.53103900  0.99141555  0.27256945  1
