# generated using pymatgen
data_H8C13N5O4
_symmetry_space_group_name_H-M   'P 1'
_cell_length_a   22.53340000
_cell_length_b   61.25220000
_cell_length_c   61.25220000
_cell_angle_alpha   90.00000000
_cell_angle_beta   90.00000000
_cell_angle_gamma   90.00000000
_symmetry_Int_Tables_number   1
_chemical_formula_structural   H8C13N5O4
_chemical_formula_sum   'H256 C416 N160 O128'
_cell_volume   84541.53129786
_cell_formula_units_Z   32
loop_
 _symmetry_equiv_pos_site_id
 _symmetry_equiv_pos_as_xyz
  1  'x, y, z'
loop_
 _atom_site_type_symbol
 _atom_site_label
 _atom_site_symmetry_multiplicity
 _atom_site_fract_x
 _atom_site_fract_y
 _atom_site_fract_z
 _atom_site_occupancy
  C  1  1  0.28350700  0.08767000  0.99677200  1
  C  2  1  0.32435900  0.07002700  0.99698000  1
  C  3  1  0.38234700  0.07161900  0.98809500  1
  C  4  1  0.39768400  0.09193800  0.97860100  1
  C  5  1  0.35780100  0.10964300  0.97731700  1
  C  6  1  0.29983900  0.10770400  0.98638200  1
  C  9  1  0.22955300  0.08524400  0.00863800  1
  C  10  1  0.18530700  0.06909400  0.00377500  1
  C  11  1  0.13264700  0.06786400  0.01694300  1
  C  12  1  0.12558300  0.08335400  0.03395700  1
  C  13  1  0.16852700  0.09923700  0.03900200  1
  C  14  1  0.22009900  0.09998100  0.02613500  1
  C  23  1  0.16019200  0.11312000  0.05740200  1
  C  24  1  0.08595100  0.05232100  0.01443300  1
  C  25  1  0.37620900  0.12801300  0.96482700  1
  C  26  1  0.42502500  0.05437700  0.98860100  1
  C  31  1  0.78352100  0.41414200  0.00507000  1
  C  32  1  0.82434400  0.43179700  0.00486500  1
  C  33  1  0.88236000  0.43020300  0.01372500  1
  C  34  1  0.89770700  0.40989200  0.02323300  1
  C  35  1  0.85783200  0.39218800  0.02452700  1
  C  36  1  0.79987000  0.39411000  0.01546400  1
  C  39  1  0.72955600  0.41655600  0.99321000  1
  C  40  1  0.68532000  0.43271900  0.99805700  1
  C  41  1  0.63267000  0.43393900  0.98488400  1
  C  42  1  0.62561300  0.41844200  0.96787500  1
  C  43  1  0.66855000  0.40255500  0.96284400  1
  C  44  1  0.72012200  0.40181700  0.97571200  1
  C  53  1  0.66020200  0.38866800  0.94445100  1
  C  54  1  0.58597400  0.44948300  0.98738500  1
  C  55  1  0.87632600  0.37383100  0.03701400  1
  C  56  1  0.92504400  0.44744000  0.01319000  1
  C  61  1  0.53360300  0.25503600  0.83721100  1
  C  62  1  0.57441400  0.25482700  0.81955100  1
  C  63  1  0.63248800  0.26363800  0.82115400  1
  C  64  1  0.64789600  0.27311000  0.84147700  1
  C  65  1  0.60804000  0.27440800  0.85918700  1
  C  66  1  0.55003000  0.26539000  0.85725400  1
  C  69  1  0.47962100  0.24318800  0.83479100  1
  C  70  1  0.43538500  0.24805100  0.81863300  1
  C  71  1  0.38272400  0.23488000  0.81739400  1
  C  72  1  0.37561000  0.21788900  0.83290900  1
  C  73  1  0.41849900  0.21286300  0.84881700  1
  C  74  1  0.47012000  0.22570300  0.84953800  1
  C  83  1  0.41004900  0.19451100  0.86275400  1
  C  84  1  0.33607300  0.23736300  0.80182400  1
  C  85  1  0.62660200  0.28685300  0.87756200  1
  C  86  1  0.67517500  0.26310200  0.80391400  1
  C  91  1  0.03354100  0.24674400  0.16457900  1
  C  92  1  0.07436900  0.24696100  0.18223300  1
  C  93  1  0.13245600  0.23816600  0.18062000  1
  C  94  1  0.14788700  0.22872200  0.16028700  1
  C  95  1  0.10803500  0.22743000  0.14257300  1
  C  96  1  0.04999200  0.23641400  0.14452600  1
  C  99  1  0.97954100  0.25858300  0.16700100  1
  C  100  1  0.93530400  0.25370400  0.18314900  1
  C  101  1  0.88259600  0.26684900  0.18437700  1
  C  102  1  0.87544600  0.28383600  0.16885800  1
  C  103  1  0.91836000  0.28888800  0.15296800  1
  C  104  1  0.97001300  0.27606400  0.15225200  1
  C  113  1  0.90992600  0.30725300  0.13904500  1
  C  114  1  0.83593000  0.26432200  0.19993400  1
  C  115  1  0.12660300  0.21500600  0.12417300  1
  C  116  1  0.17515800  0.23872100  0.19785400  1
  C  121  1  0.71931000  0.91421500  0.00449800  1
  C  122  1  0.67717000  0.93139200  0.00323400  1
  C  123  1  0.61837200  0.92928200  0.01124500  1
  C  124  1  0.60381800  0.90907400  0.02114700  1
  C  125  1  0.64501800  0.89190100  0.02353400  1
  C  126  1  0.70359800  0.89425000  0.01514100  1
  C  129  1  0.77403700  0.91679800  0.99320500  1
  C  130  1  0.81860200  0.93248100  0.99906600  1
  C  131  1  0.87317600  0.93323700  0.98695500  1
  C  132  1  0.88130900  0.91789700  0.96985600  1
  C  133  1  0.83793400  0.90253100  0.96380000  1
  C  134  1  0.78471600  0.90214900  0.97574100  1
  C  143  1  0.84778100  0.88869100  0.94546000  1
  C  144  1  0.92097200  0.94807500  0.99062600  1
  C  145  1  0.62681200  0.87361400  0.03620100  1
  C  146  1  0.57414800  0.94589200  0.00952700  1
  C  151  1  0.21931300  0.58759400  0.99726400  1
  C  152  1  0.17719300  0.57040700  0.99850800  1
  C  153  1  0.11838800  0.57252800  0.99050600  1
  C  154  1  0.10384900  0.59273300  0.98059800  1
  C  155  1  0.14504100  0.60990900  0.97822900  1
  C  156  1  0.20361700  0.60756200  0.98662400  1
  C  159  1  0.27404100  0.58500900  0.00856000  1
  C  160  1  0.31858700  0.56931000  0.00271600  1
  C  161  1  0.37313900  0.56855900  0.01483700  1
  C  162  1  0.38126500  0.58390100  0.03193500  1
  C  163  1  0.33789300  0.59927000  0.03797800  1
  C  164  1  0.28469100  0.59965400  0.02603100  1
  C  173  1  0.34771800  0.61310400  0.05632300  1
  C  174  1  0.42093300  0.55371200  0.01119800  1
  C  175  1  0.12683400  0.62820300  0.96557200  1
  C  176  1  0.07414800  0.55592400  0.99223700  1
  C  181  1  0.47043600  0.74673200  0.16415200  1
  C  182  1  0.42962400  0.74691500  0.18181100  1
  C  183  1  0.37167000  0.73799500  0.18023000  1
  C  184  1  0.35640000  0.72843100  0.15993700  1
  C  185  1  0.39627400  0.72716100  0.14223000  1
  C  186  1  0.45415600  0.73629500  0.14413600  1
  C  189  1  0.52428200  0.75867100  0.16654900  1
  C  190  1  0.56858600  0.75388600  0.18270200  1
  C  191  1  0.62108600  0.76714500  0.18392800  1
  C  192  1  0.62799200  0.78413700  0.16840200  1
  C  193  1  0.58502900  0.78908500  0.15249500  1
  C  194  1  0.53356300  0.77615800  0.15178500  1
  C  203  1  0.59323000  0.80744400  0.13854300  1
  C  204  1  0.66776800  0.76474100  0.19949800  1
  C  205  1  0.37789200  0.71466000  0.12386400  1
  C  206  1  0.32896800  0.73852000  0.19746200  1
  C  211  1  0.97035400  0.75509800  0.83765000  1
  C  212  1  0.92954000  0.75490300  0.81999300  1
  C  213  1  0.87156400  0.76380600  0.82157500  1
  C  214  1  0.85624800  0.77334000  0.84187700  1
  C  215  1  0.89611400  0.77461900  0.85958700  1
  C  216  1  0.95403200  0.76551700  0.85767000  1
  C  219  1  0.02422100  0.74317300  0.83525600  1
  C  220  1  0.06852400  0.74797000  0.81910800  1
  C  221  1  0.12107400  0.73473800  0.81789700  1
  C  222  1  0.12803100  0.71775700  0.83343300  1
  C  223  1  0.08504700  0.71278700  0.84932600  1
  C  224  1  0.03354500  0.72569500  0.85002700  1
  C  233  1  0.09326500  0.69441900  0.86326500  1
  C  234  1  0.16776300  0.73716200  0.80233500  1
  C  235  1  0.87766600  0.78710100  0.87796200  1
  C  236  1  0.82886700  0.76326900  0.80434000  1
  C  241  1  0.78325400  0.58763100  0.49669900  1
  C  242  1  0.82410500  0.56998600  0.49690300  1
  C  243  1  0.88201200  0.57154800  0.48794200  1
  C  244  1  0.89725000  0.59183500  0.47835800  1
  C  245  1  0.85735800  0.60953900  0.47707300  1
  C  246  1  0.79949700  0.60763500  0.48623100  1
  C  249  1  0.72939000  0.58523000  0.50862300  1
  C  250  1  0.68510700  0.56907800  0.50381700  1
  C  251  1  0.63257200  0.56783900  0.51705400  1
  C  252  1  0.62562600  0.58335200  0.53405700  1
  C  253  1  0.66856200  0.59926500  0.53902500  1
  C  254  1  0.72004400  0.59999300  0.52610500  1
  C  263  1  0.66029500  0.61320900  0.55738900  1
  C  264  1  0.58590300  0.55227400  0.51459000  1
  C  265  1  0.87573000  0.62790400  0.46456900  1
  C  266  1  0.92472000  0.55431500  0.48846600  1
  C  271  1  0.28330900  0.91418600  0.50513900  1
  C  272  1  0.32412200  0.93184400  0.50494500  1
  C  273  1  0.38204600  0.93028300  0.51389300  1
  C  274  1  0.39729000  0.91000500  0.52349100  1
  C  275  1  0.35741500  0.89229800  0.52477600  1
  C  276  1  0.29956000  0.89418300  0.51561200  1
  C  279  1  0.22944200  0.91657600  0.49321300  1
  C  280  1  0.18517400  0.93274500  0.49799500  1
  C  281  1  0.13266900  0.93397800  0.48474300  1
  C  282  1  0.12573200  0.91845300  0.46775000  1
  C  283  1  0.16865200  0.90253100  0.46280600  1
  C  284  1  0.22012100  0.90180800  0.47573300  1
  C  293  1  0.16038000  0.88858000  0.44445100  1
  C  294  1  0.08601000  0.94955100  0.48716600  1
  C  295  1  0.37586500  0.87394700  0.53727700  1
  C  296  1  0.42474600  0.94751900  0.51335600  1
  C  301  1  0.03445400  0.75460000  0.33756200  1
  C  302  1  0.07655700  0.75335600  0.32036700  1
  C  303  1  0.13537900  0.76134400  0.32248600  1
  C  304  1  0.14992700  0.77126200  0.34268600  1
  C  305  1  0.10873700  0.77364700  0.35986100  1
  C  306  1  0.05017800  0.76523400  0.35752800  1
  C  309  1  0.97974500  0.74328900  0.33498100  1
  C  310  1  0.93519400  0.74912400  0.31928000  1
  C  311  1  0.88070600  0.73696100  0.31849000  1
  C  312  1  0.87263800  0.71984300  0.33381700  1
  C  313  1  0.91599600  0.71381900  0.34920000  1
  C  314  1  0.96914300  0.72580100  0.34961000  1
  C  323  1  0.90623800  0.69545400  0.36301700  1
  C  324  1  0.83293200  0.74056300  0.30362000  1
  C  325  1  0.12701500  0.78630800  0.37814000  1
  C  326  1  0.17962200  0.75961000  0.30588300  1
  C  331  1  0.53441500  0.74718300  0.66423400  1
  C  332  1  0.57652200  0.74842000  0.68142700  1
  C  333  1  0.63534100  0.74043200  0.67930600  1
  C  334  1  0.64991000  0.73054000  0.65909300  1
  C  335  1  0.60873600  0.72817600  0.64191000  1
  C  336  1  0.55015600  0.73656900  0.64425800  1
  C  339  1  0.47970600  0.75849000  0.66681800  1
  C  340  1  0.43514900  0.75264600  0.68251100  1
  C  341  1  0.38063400  0.76479400  0.68329500  1
  C  342  1  0.37254400  0.78190700  0.66796600  1
  C  343  1  0.41592500  0.78795000  0.65259900  1
  C  344  1  0.46908600  0.77597900  0.65219000  1
  C  353  1  0.40618700  0.80632900  0.63879500  1
  C  354  1  0.33285300  0.76114600  0.69814800  1
  C  355  1  0.62699800  0.71553700  0.62360400  1
  C  356  1  0.67958400  0.74216800  0.69591100  1
  C  361  1  0.21939500  0.41425400  0.50452600  1
  C  362  1  0.17725200  0.43143400  0.50328600  1
  C  363  1  0.11854700  0.42935100  0.51139500  1
  C  364  1  0.10411100  0.40917200  0.52137900  1
  C  365  1  0.14532300  0.39200100  0.52374300  1
  C  366  1  0.20380000  0.39431700  0.51524300  1
  C  369  1  0.27403100  0.41682300  0.49316600  1
  C  370  1  0.31864600  0.43250500  0.49897300  1
  C  371  1  0.37310700  0.43326600  0.48679200  1
  C  372  1  0.38112200  0.41790500  0.46970200  1
  C  373  1  0.33773700  0.40251100  0.46372400  1
  C  374  1  0.28459900  0.40214700  0.47571500  1
  C  383  1  0.34751100  0.38860600  0.44542200  1
  C  384  1  0.42090300  0.44812300  0.49040400  1
  C  385  1  0.12718300  0.37371400  0.53642100  1
  C  386  1  0.07429500  0.44595800  0.50969800  1
  C  391  1  0.71943600  0.08755000  0.49722800  1
  C  392  1  0.67731400  0.07036100  0.49844700  1
  C  393  1  0.61860200  0.07245400  0.49034800  1
  C  394  1  0.60417800  0.09263000  0.48035500  1
  C  395  1  0.64538400  0.10980600  0.47801100  1
  C  396  1  0.70385400  0.10749100  0.48651500  1
  C  399  1  0.77406400  0.08498300  0.50859400  1
  C  400  1  0.81866800  0.06928500  0.50280500  1
  C  401  1  0.87309900  0.06852600  0.51500200  1
  C  402  1  0.88109400  0.08388700  0.53209300  1
  C  403  1  0.83770700  0.09928400  0.53805700  1
  C  404  1  0.78459000  0.09965200  0.52605500  1
  C  413  1  0.84744800  0.11318300  0.55636500  1
  C  414  1  0.92089400  0.05366400  0.51142300  1
  C  415  1  0.62724200  0.12810000  0.46534200  1
  C  416  1  0.57433000  0.05585700  0.49206200  1
  C  421  1  0.96959200  0.24718100  0.66379800  1
  C  422  1  0.92747800  0.24839900  0.68099100  1
  C  423  1  0.86876300  0.24030000  0.67889800  1
  C  424  1  0.85434400  0.23028900  0.65873100  1
  C  425  1  0.89555900  0.22793000  0.64155900  1
  C  426  1  0.95400600  0.23645800  0.64386300  1
  C  429  1  0.02416800  0.25858000  0.66635300  1
  C  430  1  0.06879900  0.25282700  0.68205400  1
  C  431  1  0.12314500  0.26507800  0.68282800  1
  C  432  1  0.13101700  0.28218700  0.66748100  1
  C  433  1  0.08757700  0.28813000  0.65209600  1
  C  434  1  0.03456600  0.27606700  0.65170400  1
  C  443  1  0.09709900  0.30650000  0.63825800  1
  C  444  1  0.17094700  0.26155800  0.69770400  1
  C  445  1  0.87746200  0.21521300  0.62329200  1
  C  446  1  0.82450000  0.24202100  0.69549500  1
  C  451  1  0.46949400  0.25464200  0.33800100  1
  C  452  1  0.42738300  0.25341500  0.32081000  1
  C  453  1  0.36865200  0.26149800  0.32290300  1
  C  454  1  0.35419000  0.27148100  0.34308000  1
  C  455  1  0.39539400  0.27384600  0.36025300  1
  C  456  1  0.45387000  0.26534700  0.35794100  1
  C  459  1  0.52409200  0.24325500  0.33544800  1
  C  460  1  0.56872000  0.24902100  0.31975500  1
  C  461  1  0.62310600  0.23679800  0.31899100  1
  C  462  1  0.63102300  0.21969500  0.33434400  1
  C  463  1  0.58756800  0.21372800  0.34971500  1
  C  464  1  0.53452400  0.22577300  0.35010000  1
  C  473  1  0.59710800  0.19535100  0.36354100  1
  C  474  1  0.67091400  0.24036700  0.30413300  1
  C  475  1  0.37723600  0.28654600  0.37853000  1
  C  476  1  0.32439700  0.25976700  0.30630200  1
  C  481  1  0.05116400  0.01530900  0.00582900  1
  C  483  1  0.94670800  0.00658800  0.00367200  1
  C  484  1  0.95893200  0.98436800  0.99968800  1
  C  486  1  0.06393100  0.99289300  0.00191800  1
  C  488  1  0.12062900  0.98433700  0.00145500  1
  C  496  1  0.55116800  0.48649300  0.99598000  1
  C  498  1  0.44670600  0.49521800  0.99809100  1
  C  499  1  0.45892300  0.51743400  0.00209400  1
  C  501  1  0.56392700  0.50890700  0.99990200  1
  C  503  1  0.62063000  0.51745900  0.00040600  1
  C  511  1  0.30128100  0.24609100  0.76484300  1
  C  513  1  0.19680600  0.24818700  0.75613100  1
  C  514  1  0.20900000  0.25231900  0.73393800  1
  C  516  1  0.31401400  0.25014000  0.74244800  1
  C  518  1  0.37065300  0.25070000  0.73387400  1
  C  526  1  0.80117900  0.25572300  0.23695000  1
  C  528  1  0.69671400  0.25355000  0.24565600  1
  C  529  1  0.70892500  0.24950800  0.26786600  1
  C  531  1  0.81392400  0.25178500  0.25936400  1
  C  533  1  0.87050300  0.25129100  0.26797100  1
  C  541  1  0.95457400  0.48538300  0.00528400  1
  C  543  1  0.05683100  0.49721600  0.00678700  1
  C  544  1  0.04125700  0.51879600  0.00114100  1
  C  546  1  0.93834800  0.50719200  0.99985800  1
  C  548  1  0.88057600  0.51409400  0.99692100  1
  C  556  1  0.45457000  0.01643200  0.99649100  1
  C  558  1  0.55682200  0.00459600  0.99496300  1
  C  559  1  0.54125200  0.98301600  0.00061400  1
  C  561  1  0.43834400  0.99462400  0.00191600  1
  C  563  1  0.38058000  0.98772000  0.00486100  1
  C  571  1  0.70475400  0.25517600  0.76597900  1
  C  573  1  0.80701500  0.25673400  0.75415200  1
  C  574  1  0.79149200  0.25102300  0.73258400  1
  C  576  1  0.68857800  0.24969200  0.74418100  1
  C  578  1  0.63082600  0.24671800  0.73727300  1
  C  586  1  0.20473600  0.24665200  0.23578900  1
  C  588  1  0.30698800  0.24511400  0.24762500  1
  C  589  1  0.29143800  0.25079600  0.26919800  1
  C  591  1  0.18853300  0.25213300  0.25758600  1
  C  593  1  0.13066700  0.25509900  0.26443500  1
  C  601  1  0.70263600  0.75602200  0.23647300  1
  C  603  1  0.80711000  0.75397900  0.24519400  1
  C  604  1  0.79491300  0.74982400  0.26738500  1
  C  606  1  0.68989600  0.75194700  0.25886100  1
  C  608  1  0.63319300  0.75132800  0.26740400  1
  C  616  1  0.20261300  0.74581800  0.76534100  1
  C  618  1  0.30707800  0.74790300  0.75661800  1
  C  619  1  0.29486900  0.75198300  0.73441400  1
  C  621  1  0.18986000  0.74981500  0.74294000  1
  C  623  1  0.13315700  0.75038000  0.73439300  1
  C  631  1  0.29931600  0.74652700  0.23537400  1
  C  633  1  0.19705700  0.74496700  0.24719900  1
  C  634  1  0.21257800  0.75066800  0.26877100  1
  C  636  1  0.31548600  0.75203700  0.25716500  1
  C  638  1  0.37328600  0.75501800  0.26404400  1
  C  646  1  0.79925800  0.75529500  0.76641800  1
  C  648  1  0.69698700  0.75679900  0.75459800  1
  C  649  1  0.71252400  0.75110900  0.73302500  1
  C  651  1  0.81544600  0.74982100  0.74461800  1
  C  653  1  0.87320100  0.74685300  0.73771200  1
  C  661  1  0.55113700  0.51527100  0.50593800  1
  C  663  1  0.44667600  0.50657900  0.50369900  1
  C  664  1  0.45888800  0.48437600  0.49961500  1
  C  666  1  0.56388200  0.49286600  0.50196400  1
  C  668  1  0.62046000  0.48425500  0.50147100  1
  C  676  1  0.05119900  0.98653900  0.49586300  1
  C  678  1  0.94673000  0.99523600  0.49802800  1
  C  679  1  0.95892700  0.01743100  0.50216000  1
  C  681  1  0.06393100  0.00893900  0.49987800  1
  C  683  1  0.12050900  0.01754500  0.50042800  1
  C  691  1  0.45445400  0.98541100  0.50528800  1
  C  693  1  0.55670600  0.99723800  0.50692900  1
  C  694  1  0.54125000  0.01878500  0.50111500  1
  C  696  1  0.43834300  0.00718700  0.49968500  1
  C  698  1  0.38062600  0.01408600  0.49660300  1
  C  706  1  0.95446200  0.51642700  0.49654900  1
  C  708  1  0.05668800  0.50458400  0.49485400  1
  C  709  1  0.04122800  0.48303700  0.50066900  1
  C  711  1  0.93834400  0.49466000  0.50217300  1
  C  713  1  0.88052800  0.48782400  0.50529300  1
  C  721  1  0.37307700  0.14607700  0.92931300  1
  C  723  1  0.41514800  0.18142200  0.92211200  1
  C  724  1  0.40718900  0.17874100  0.89940600  1
  C  726  1  0.36539500  0.14306600  0.90650000  1
  C  728  1  0.34292600  0.12411200  0.89720000  1
  C  736  1  0.87294400  0.35569700  0.07249700  1
  C  738  1  0.91497400  0.32034400  0.07968900  1
  C  739  1  0.90701800  0.32302200  0.10239500  1
  C  741  1  0.86527500  0.35870500  0.09531100  1
  C  743  1  0.84281000  0.37766000  0.10461500  1
  C  751  1  0.62319000  0.32227200  0.89581800  1
  C  753  1  0.66524800  0.32935100  0.93119100  1
  C  754  1  0.65728600  0.35206600  0.92858700  1
  C  756  1  0.61546400  0.34509500  0.89288900  1
  C  758  1  0.59300400  0.35442300  0.87395400  1
  C  766  1  0.12347000  0.17952700  0.10606000  1
  C  768  1  0.16540800  0.17243100  0.07067000  1
  C  769  1  0.15742400  0.14972000  0.07328200  1
  C  771  1  0.11580100  0.15670400  0.10900700  1
  C  773  1  0.09332400  0.14735600  0.12792200  1
  C  781  1  0.62950000  0.85588100  0.07191400  1
  C  783  1  0.58802400  0.82044200  0.07917400  1
  C  784  1  0.59588200  0.82318200  0.10187600  1
  C  786  1  0.63706800  0.85894400  0.09472900  1
  C  788  1  0.65931000  0.87792900  0.10400400  1
  C  796  1  0.12950500  0.64595100  0.92986500  1
  C  798  1  0.08799700  0.68138800  0.92262300  1
  C  799  1  0.09586500  0.67866100  0.89992000  1
  C  801  1  0.13701800  0.64288900  0.90705000  1
  C  803  1  0.15922600  0.62390400  0.89776400  1
  C  811  1  0.38150300  0.67922600  0.10564500  1
  C  813  1  0.33927300  0.67216700  0.07029700  1
  C  814  1  0.34800700  0.64947500  0.07275800  1
  C  816  1  0.38978600  0.65641400  0.10846100  1
  C  818  1  0.41262200  0.64704800  0.12730700  1
  C  826  1  0.88134400  0.82255600  0.89612800  1
  C  828  1  0.83914500  0.82963900  0.93147700  1
  C  829  1  0.84795400  0.85232700  0.92901500  1
  C  831  1  0.88973600  0.84536400  0.89331800  1
  C  833  1  0.91261400  0.85472500  0.87446200  1
  C  841  1  0.87210500  0.64614300  0.42914200  1
  C  843  1  0.91441100  0.68148200  0.42209100  1
  C  844  1  0.90567300  0.67903400  0.39939900  1
  C  846  1  0.86373500  0.64335300  0.40633100  1
  C  848  1  0.84081400  0.62451300  0.39695100  1
  C  856  1  0.37199300  0.85563900  0.57267300  1
  C  858  1  0.41427300  0.82029500  0.57971800  1
  C  859  1  0.40554300  0.82274100  0.60241100  1
  C  861  1  0.36363800  0.85842800  0.59548500  1
  C  863  1  0.34071600  0.87726600  0.60486800  1
  C  871  1  0.12394900  0.82197200  0.39599100  1
  C  873  1  0.16559000  0.82921700  0.43140800  1
  C  874  1  0.15761400  0.85191900  0.42870300  1
  C  876  1  0.11617700  0.84478400  0.39297400  1
  C  878  1  0.09384100  0.85404300  0.37398800  1
  C  886  1  0.62416400  0.67982200  0.60588000  1
  C  888  1  0.66570400  0.67256400  0.57044800  1
  C  889  1  0.65769400  0.64986600  0.57315800  1
  C  891  1  0.61644900  0.65701000  0.60891200  1
  C  893  1  0.59409600  0.64773300  0.62787900  1
  C  901  1  0.13044600  0.35579900  0.57204800  1
  C  903  1  0.08872200  0.32037100  0.57917100  1
  C  904  1  0.09740900  0.32288000  0.60185800  1
  C  906  1  0.13874500  0.35864300  0.59485900  1
  C  908  1  0.16147000  0.37751500  0.60420700  1
  C  916  1  0.63047700  0.14602600  0.42972200  1
  C  918  1  0.58869900  0.18145000  0.42261700  1
  C  919  1  0.59738800  0.17895200  0.39992800  1
  C  921  1  0.63871800  0.14318300  0.40690800  1
  C  923  1  0.66141800  0.12431300  0.39755100  1
  C  931  1  0.88074400  0.17953600  0.60547900  1
  C  933  1  0.83887400  0.17229900  0.57009700  1
  C  934  1  0.84763900  0.14962200  0.57266300  1
  C  936  1  0.88909800  0.15673600  0.60838500  1
  C  938  1  0.91185000  0.14744800  0.62728200  1
  C  946  1  0.38061500  0.32223800  0.39630100  1
  C  948  1  0.33873500  0.32950200  0.43167800  1
  C  949  1  0.34759000  0.35217300  0.42911100  1
  C  951  1  0.38907900  0.34503400  0.39340000  1
  C  953  1  0.41189000  0.35431700  0.37449600  1
  H  7  1  0.31233100  0.05622000  0.00521000  1
  H  8  1  0.43841000  0.09375100  0.97138100  1
  H  15  1  0.08871300  0.08269200  0.04373000  1
  H  16  1  0.25258100  0.11099000  0.03017600  1
  H  19  1  0.21872400  0.12286300  0.98843300  1
  H  20  1  0.27051400  0.13822600  0.97748200  1
  H  21  1  0.15579500  0.04968200  0.97881200  1
  H  22  1  0.22202200  0.05959900  0.97460300  1
  H  37  1  0.81231800  0.44558400  0.99660100  1
  H  38  1  0.93848600  0.40807000  0.03041300  1
  H  45  1  0.58875000  0.41910200  0.95809800  1
  H  46  1  0.75258000  0.39079200  0.97168900  1
  H  49  1  0.71877700  0.37893500  0.01341600  1
  H  50  1  0.77059800  0.36358200  0.02436600  1
  H  51  1  0.65580800  0.45212600  0.02302100  1
  H  52  1  0.72201600  0.44219500  0.02724100  1
  H  67  1  0.56236400  0.24658400  0.80575400  1
  H  68  1  0.68870200  0.28026400  0.84330200  1
  H  75  1  0.33873100  0.20812000  0.83225100  1
  H  76  1  0.50256200  0.22167500  0.86056800  1
  H  79  1  0.46895200  0.26335900  0.87244500  1
  H  80  1  0.52084800  0.27422400  0.88781800  1
  H  81  1  0.40563300  0.27304800  0.79939800  1
  H  82  1  0.47195700  0.27725000  0.80928500  1
  H  97  1  0.06231500  0.25519700  0.19603400  1
  H  98  1  0.18868900  0.22156400  0.15846000  1
  H  105  1  0.83856400  0.29360100  0.16951900  1
  H  106  1  0.00247900  0.28011700  0.14124100  1
  H  109  1  0.96888200  0.23841600  0.12934300  1
  H  110  1  0.02081300  0.22758700  0.11396000  1
  H  111  1  0.90570200  0.22872600  0.20244500  1
  H  112  1  0.97204100  0.22452300  0.19260500  1
  H  127  1  0.68895000  0.94515000  0.99486500  1
  H  128  1  0.56252900  0.90697300  0.02783600  1
  H  135  1  0.91953600  0.91826900  0.96079800  1
  H  136  1  0.75216600  0.89139300  0.97112600  1
  H  139  1  0.78580000  0.87977200  0.01409200  1
  H  140  1  0.73426000  0.86415300  0.02484600  1
  H  141  1  0.84553100  0.95156100  0.02466900  1
  H  142  1  0.77779200  0.94247700  0.02732500  1
  H  157  1  0.18895300  0.55666700  0.00690900  1
  H  158  1  0.06253300  0.59484900  0.97393700  1
  H  165  1  0.41947900  0.58352500  0.04100000  1
  H  166  1  0.25215400  0.61042400  0.03062900  1
  H  169  1  0.28581900  0.62203800  0.98768400  1
  H  170  1  0.23428700  0.63766000  0.97692600  1
  H  171  1  0.34553500  0.55024300  0.97710900  1
  H  172  1  0.27781300  0.55934100  0.97443800  1
  H  187  1  0.44155700  0.75522300  0.19558200  1
  H  188  1  0.31569100  0.72119500  0.15813400  1
  H  195  1  0.66476000  0.79396300  0.16905200  1
  H  196  1  0.50106400  0.78012200  0.14075500  1
  H  199  1  0.53520000  0.73845200  0.12893800  1
  H  200  1  0.48347800  0.72742200  0.11360200  1
  H  201  1  0.59864400  0.72894500  0.20194700  1
  H  202  1  0.53236000  0.72463700  0.19207500  1
  H  217  1  0.94149000  0.74660500  0.80621900  1
  H  218  1  0.81553400  0.78057100  0.84368100  1
  H  225  1  0.16480400  0.70793500  0.83278000  1
  H  226  1  0.00102400  0.72170500  0.86103800  1
  H  229  1  0.03508100  0.76338500  0.87288000  1
  H  230  1  0.98330000  0.77437200  0.88821800  1
  H  231  1  0.09844000  0.77289100  0.79981000  1
  H  232  1  0.03213300  0.77720100  0.80962800  1
  H  247  1  0.81213600  0.55620000  0.50518300  1
  H  248  1  0.93791600  0.59362900  0.47109000  1
  H  255  1  0.58883200  0.58269700  0.54386600  1
  H  256  1  0.75254000  0.61101600  0.53009200  1
  H  259  1  0.71842600  0.62281500  0.48837300  1
  H  260  1  0.77010600  0.63813900  0.47729700  1
  H  261  1  0.65536400  0.54968800  0.47887400  1
  H  262  1  0.72156800  0.55959100  0.47459800  1
  H  277  1  0.31216200  0.94560800  0.49663200  1
  H  278  1  0.43800200  0.90820100  0.53072500  1
  H  285  1  0.08895600  0.91910600  0.45793000  1
  H  286  1  0.25259300  0.89076500  0.47177200  1
  H  289  1  0.21851900  0.87898500  0.51346600  1
  H  290  1  0.27022100  0.86367300  0.52454600  1
  H  291  1  0.15539700  0.95212200  0.52293600  1
  H  292  1  0.22157700  0.94220900  0.52723300  1
  H  307  1  0.06481400  0.74494600  0.30663100  1
  H  308  1  0.19124400  0.77792600  0.34479400  1
  H  315  1  0.83448000  0.71074700  0.33341500  1
  H  316  1  0.00167700  0.72121300  0.36038200  1
  H  319  1  0.96803800  0.76411300  0.37204900  1
  H  320  1  0.01959200  0.77487300  0.38765800  1
  H  321  1  0.90791800  0.77476100  0.30039100  1
  H  322  1  0.97570400  0.77746300  0.30946500  1
  H  337  1  0.56477400  0.75682200  0.69516800  1
  H  338  1  0.69120900  0.72386300  0.65698700  1
  H  345  1  0.33439500  0.79100500  0.66837300  1
  H  346  1  0.50164200  0.78058700  0.64143300  1
  H  349  1  0.46800000  0.73768100  0.62974100  1
  H  350  1  0.51957000  0.72694500  0.61412300  1
  H  351  1  0.40798400  0.72702900  0.70145400  1
  H  352  1  0.47577400  0.72431700  0.69241300  1
  H  367  1  0.18895900  0.44517300  0.49487200  1
  H  368  1  0.06288900  0.40708600  0.52813000  1
  H  375  1  0.41928400  0.41826700  0.46060900  1
  H  376  1  0.25202900  0.39137500  0.47115500  1
  H  379  1  0.28596600  0.37982100  0.51407900  1
  H  380  1  0.23455000  0.36423700  0.52496100  1
  H  381  1  0.34581900  0.45155300  0.52456400  1
  H  382  1  0.27808100  0.44249000  0.52728400  1
  H  397  1  0.68899400  0.05664000  0.50689400  1
  H  398  1  0.56293300  0.09473000  0.47363200  1
  H  405  1  0.91923500  0.08352000  0.54119800  1
  H  406  1  0.75203400  0.11043500  0.53059600  1
  H  409  1  0.78602000  0.12198800  0.48769200  1
  H  410  1  0.73461000  0.13757300  0.47680600  1
  H  411  1  0.84588200  0.05026300  0.47720600  1
  H  412  1  0.77816400  0.05933600  0.47446800  1
  H  427  1  0.93910800  0.25687600  0.69470000  1
  H  428  1  0.81311700  0.22354100  0.65664700  1
  H  435  1  0.16907300  0.29134100  0.66787100  1
  H  436  1  0.00196900  0.28059100  0.64092900  1
  H  439  1  0.03612000  0.23770100  0.62933400  1
  H  440  1  0.98472800  0.22678000  0.61376600  1
  H  441  1  0.09637100  0.22725100  0.70096600  1
  H  442  1  0.02860600  0.22443800  0.69190500  1
  H  457  1  0.43903300  0.24494600  0.30709600  1
  H  458  1  0.31296100  0.27822500  0.34516100  1
  H  465  1  0.66908800  0.21054800  0.33395200  1
  H  466  1  0.50190800  0.22122500  0.36085700  1
  H  469  1  0.53598600  0.26412300  0.37248000  1
  H  470  1  0.48454200  0.27500900  0.38805100  1
  H  471  1  0.59614400  0.27457600  0.30077600  1
  H  472  1  0.52837600  0.27738900  0.30980600  1
  H  487  1  0.90417600  0.01232900  0.00431900  1
  H  491  1  0.18026000  0.97644600  0.02144500  1
  H  493  1  0.87400800  0.97506900  0.99711500  1
  H  495  1  0.13509200  0.02620200  0.00741600  1
  H  502  1  0.40417600  0.48947800  0.99742400  1
  H  506  1  0.68035400  0.52535900  0.98045800  1
  H  508  1  0.37398600  0.52673400  0.00465600  1
  H  510  1  0.63510600  0.47559800  0.99441500  1
  H  517  1  0.15427800  0.24745900  0.76186800  1
  H  521  1  0.43216600  0.23132700  0.72637900  1
  H  523  1  0.12404600  0.25480900  0.72464200  1
  H  525  1  0.38520200  0.24454300  0.77574500  1
  H  532  1  0.65418800  0.25419700  0.23991000  1
  H  536  1  0.93214400  0.27081600  0.27505500  1
  H  538  1  0.62398600  0.24698400  0.27716700  1
  H  540  1  0.88509400  0.25725900  0.22603600  1
  H  547  1  0.09999800  0.49281800  0.00937400  1
  H  551  1  0.81246000  0.51992700  0.01377300  1
  H  553  1  0.12376700  0.53047200  0.00194100  1
  H  555  1  0.87375600  0.47220300  0.00351100  1
  H  562  1  0.59998600  0.00899400  0.99237600  1
  H  566  1  0.31243800  0.98189300  0.98802000  1
  H  568  1  0.62376200  0.97134000  0.99980900  1
  H  570  1  0.37375600  0.02961100  0.99828600  1
  H  577  1  0.85016400  0.25935200  0.75855200  1
  H  581  1  0.56264400  0.26352400  0.73140900  1
  H  583  1  0.87401800  0.25185700  0.72092100  1
  H  585  1  0.62393100  0.25338400  0.77915200  1
  H  592  1  0.35014600  0.24250700  0.24322900  1
  H  596  1  0.06414300  0.23781200  0.27118900  1
  H  598  1  0.37395200  0.24996700  0.28087200  1
  H  600  1  0.12386900  0.24835700  0.22263500  1
  H  607  1  0.84964000  0.75473200  0.23946400  1
  H  611  1  0.57326400  0.77115900  0.27539400  1
  H  613  1  0.87985400  0.74730500  0.27668400  1
  H  615  1  0.61869400  0.75752000  0.22557700  1
  H  622  1  0.34961000  0.74719400  0.76235100  1
  H  626  1  0.07331200  0.73049500  0.72645400  1
  H  628  1  0.37979700  0.75450800  0.72511000  1
  H  630  1  0.11867600  0.74430000  0.77623800  1
  H  637  1  0.15391400  0.74231900  0.24280600  1
  H  641  1  0.44129600  0.73831000  0.27026800  1
  H  643  1  0.13006000  0.74983300  0.28044200  1
  H  645  1  0.38016000  0.74830100  0.22221100  1
  H  652  1  0.65382900  0.75940600  0.75899800  1
  H  656  1  0.94135300  0.76367000  0.73183800  1
  H  658  1  0.63000000  0.75190900  0.72135900  1
  H  660  1  0.88009000  0.75352100  0.77958700  1
  H  667  1  0.40415000  0.51232600  0.50433800  1
  H  671  1  0.68207600  0.47714900  0.52099800  1
  H  673  1  0.37396400  0.47509300  0.49700700  1
  H  675  1  0.63505200  0.52618200  0.50747600  1
  H  682  1  0.90420400  0.98949100  0.49735500  1
  H  686  1  0.18224000  0.02468100  0.48095900  1
  H  688  1  0.87398800  0.02670600  0.50474100  1
  H  690  1  0.13512300  0.97563000  0.49434500  1
  H  697  1  0.59982900  0.99284800  0.50962400  1
  H  701  1  0.31227700  0.02002400  0.51328900  1
  H  703  1  0.62376000  0.03045200  0.50201800  1
  H  705  1  0.37365000  0.97223400  0.50342400  1
  H  712  1  0.09980500  0.50896600  0.49213100  1
  H  716  1  0.81374200  0.48098000  0.48817800  1
  H  718  1  0.12372100  0.47135600  0.49972100  1
  H  720  1  0.87362200  0.52958600  0.49836700  1
  H  727  1  0.43268600  0.19545600  0.92840400  1
  H  731  1  0.39961000  0.10379500  0.90751000  1
  H  733  1  0.43684000  0.20853100  0.89067000  1
  H  735  1  0.32208500  0.12122500  0.93982200  1
  H  742  1  0.93250400  0.30631200  0.07339400  1
  H  746  1  0.89954400  0.39797100  0.09432900  1
  H  748  1  0.93668400  0.29323200  0.11112400  1
  H  750  1  0.82205000  0.38057700  0.06199200  1
  H  757  1  0.68279500  0.32301400  0.94520000  1
  H  761  1  0.64951100  0.34433500  0.85351400  1
  H  763  1  0.68679200  0.36070900  0.95843100  1
  H  765  1  0.57224400  0.31183500  0.87092400  1
  H  772  1  0.18284700  0.17876700  0.05664000  1
  H  776  1  0.14949300  0.15774100  0.14838700  1
  H  778  1  0.18692300  0.14107000  0.04344100  1
  H  780  1  0.07247700  0.18997500  0.13093700  1
  H  787  1  0.57078800  0.80635300  0.07289700  1
  H  791  1  0.60256800  0.89822200  0.09371200  1
  H  793  1  0.56663800  0.79334300  0.11064800  1
  H  795  1  0.67949800  0.88102600  0.06142800  1
  H  802  1  0.07079200  0.69548000  0.92890700  1
  H  806  1  0.10248600  0.60361600  0.90806700  1
  H  808  1  0.06657700  0.70849500  0.89116600  1
  H  810  1  0.17948700  0.62079400  0.94033500  1
  H  817  1  0.32151300  0.67851400  0.05632700  1
  H  821  1  0.35622100  0.65708000  0.14786000  1
  H  823  1  0.31629000  0.64082300  0.04323900  1
  H  825  1  0.43230100  0.68971700  0.13056400  1
  H  832  1  0.82135400  0.82330100  0.94544500  1
  H  836  1  0.85565400  0.84486600  0.85402500  1
  H  838  1  0.81622400  0.86099300  0.95853200  1
  H  840  1  0.93203600  0.81205200  0.87118300  1
  H  847  1  0.93232400  0.69542300  0.42844200  1
  H  851  1  0.89772900  0.60405000  0.40678700  1
  H  853  1  0.93740800  0.70855700  0.39076500  1
  H  855  1  0.82136200  0.62119900  0.43961800  1
  H  862  1  0.43218300  0.80635300  0.57336500  1
  H  866  1  0.39767600  0.89772400  0.59505800  1
  H  868  1  0.43728300  0.79321700  0.61103900  1
  H  870  1  0.32135300  0.88061000  0.56220200  1
  H  877  1  0.18301500  0.82293700  0.44546500  1
  H  881  1  0.15096100  0.84413900  0.35369200  1
  H  883  1  0.18692200  0.86067300  0.45854000  1
  H  885  1  0.07405700  0.81148600  0.37081400  1
  H  892  1  0.68303400  0.67884200  0.55637500  1
  H  896  1  0.65086900  0.65794200  0.64820200  1
  H  898  1  0.68701800  0.64110700  0.54332600  1
  H  900  1  0.57423200  0.69032300  0.63104000  1
  H  907  1  0.07108400  0.30637300  0.57284000  1
  H  911  1  0.10449500  0.39795800  0.59440000  1
  H  913  1  0.06606200  0.29330900  0.61053800  1
  H  915  1  0.18018100  0.38103300  0.56158300  1
  H  922  1  0.57109400  0.19545100  0.42895300  1
  H  926  1  0.60445800  0.10387000  0.40737000  1
  H  928  1  0.56599200  0.20851700  0.39126600  1
  H  930  1  0.68020800  0.12078500  0.44017000  1
  H  937  1  0.82120200  0.17858300  0.55608300  1
  H  941  1  0.85488600  0.15730800  0.64770200  1
  H  943  1  0.81610400  0.14085100  0.54315400  1
  H  945  1  0.93052500  0.19008600  0.63066500  1
  H  952  1  0.32100800  0.32322600  0.44568500  1
  H  956  1  0.35435400  0.34464900  0.35419100  1
  H  958  1  0.31601100  0.36095800  0.45861400  1
  H  960  1  0.43027200  0.31167700  0.37108500  1
  N  17  1  0.26009400  0.12445400  0.98432900  1
  N  18  1  0.18954500  0.05745300  0.98478900  1
  N  47  1  0.76015100  0.37735300  0.01752200  1
  N  48  1  0.68955800  0.44435000  0.01705000  1
  N  77  1  0.51033600  0.26745000  0.87401900  1
  N  78  1  0.43965400  0.26703200  0.80697200  1
  N  107  1  0.01026800  0.23432300  0.12777400  1
  N  108  1  0.93965600  0.23472500  0.19480400  1
  N  137  1  0.74431400  0.87792600  0.01792800  1
  N  138  1  0.81225000  0.94412800  0.01796100  1
  N  167  1  0.24433400  0.62388800  0.98384500  1
  N  168  1  0.31224700  0.55768000  0.98381100  1
  N  197  1  0.49388200  0.73426600  0.12737700  1
  N  198  1  0.56454800  0.73490600  0.19437500  1
  N  227  1  0.99376000  0.76757200  0.87442600  1
  N  228  1  0.06440200  0.76694700  0.80744000  1
  N  257  1  0.75974800  0.62438700  0.48419600  1
  N  258  1  0.68918100  0.55744300  0.48482200  1
  N  287  1  0.25984000  0.87742500  0.51764700  1
  N  288  1  0.18922500  0.94436900  0.51699700  1
  N  317  1  0.00950100  0.76799500  0.37386900  1
  N  318  1  0.94146800  0.76802800  0.30763100  1
  N  347  1  0.50946100  0.73379400  0.62792500  1
  N  348  1  0.44148200  0.73374000  0.69414600  1
  N  377  1  0.24453000  0.37799100  0.51799400  1
  N  378  1  0.31245900  0.44414400  0.51788000  1
  N  407  1  0.74458300  0.12381800  0.48377400  1
  N  408  1  0.81250900  0.05766900  0.48388300  1
  N  437  1  0.99471800  0.23372700  0.62753000  1
  N  438  1  0.06274100  0.23392600  0.69372200  1
  N  467  1  0.49458100  0.26809800  0.37427200  1
  N  468  1  0.56257800  0.26792000  0.30809200  1
  N  482  1  0.99244200  0.02069800  0.00636900  1
  N  485  1  0.01750200  0.97892600  0.99921100  1
  N  492  1  0.91446800  0.96947200  0.99652400  1
  N  494  1  0.09407400  0.03097900  0.00857200  1
  N  497  1  0.49244600  0.48110800  0.99541100  1
  N  500  1  0.51749400  0.52287400  0.00260000  1
  N  507  1  0.41444600  0.53232500  0.00525400  1
  N  509  1  0.59408600  0.47082400  0.99325400  1
  N  512  1  0.24255900  0.24545900  0.77022500  1
  N  515  1  0.26757100  0.25288900  0.72849600  1
  N  522  1  0.16450300  0.25550100  0.71906000  1
  N  524  1  0.34419400  0.24332200  0.78050900  1
  N  527  1  0.74245800  0.25626700  0.23155700  1
  N  530  1  0.76749600  0.24902500  0.27331600  1
  N  537  1  0.66444800  0.24632900  0.28275100  1
  N  539  1  0.84408000  0.25845600  0.22127200  1
  N  542  1  0.01373900  0.48186700  0.00840700  1
  N  545  1  0.98219400  0.52238600  0.99816200  1
  N  552  1  0.08315600  0.53485900  0.99899400  1
  N  554  1  0.91450000  0.46855800  0.00688100  1
  N  557  1  0.51372800  0.01994800  0.99335700  1
  N  560  1  0.48219500  0.97942900  0.00360300  1
  N  567  1  0.58315200  0.96695300  0.00275800  1
  N  569  1  0.41449000  0.03325800  0.99490500  1
  N  572  1  0.76389600  0.25835200  0.76949400  1
  N  575  1  0.73244800  0.24799600  0.72899400  1
  N  582  1  0.83342900  0.24886100  0.71653700  1
  N  584  1  0.66465800  0.25677800  0.78280000  1
  N  587  1  0.26388700  0.24349500  0.23227700  1
  N  590  1  0.23239100  0.25381300  0.27278400  1
  N  597  1  0.33334467  0.25294900  0.28525500  1
  N  599  1  0.16462500  0.24502100  0.21897500  1
  N  602  1  0.76135800  0.75669400  0.23109400  1
  N  605  1  0.73634200  0.74921900  0.27281500  1
  N  612  1  0.83939800  0.74662800  0.28226600  1
  N  614  1  0.65970400  0.75877100  0.22081200  1
  N  617  1  0.26133600  0.74519900  0.77072300  1
  N  620  1  0.23629700  0.75253300  0.72897900  1
  N  627  1  0.33934000  0.75516100  0.71952300  1
  N  629  1  0.15968700  0.74308000  0.78100500  1
  N  632  1  0.24017700  0.74334000  0.23185900  1
  N  635  1  0.27161400  0.75371300  0.27235400  1
  N  642  1  0.17065300  0.75281400  0.28482600  1
  N  644  1  0.33943700  0.74490200  0.21856400  1
  N  647  1  0.74010600  0.75844000  0.76993800  1
  N  650  1  0.77157400  0.74810900  0.72943500  1
  N  657  1  0.67060000  0.74894400  0.71697200  1
  N  659  1  0.83936200  0.75691300  0.78323400  1
  N  662  1  0.49241800  0.52067200  0.50646700  1
  N  665  1  0.51745400  0.47892300  0.49915300  1
  N  672  1  0.41442000  0.46949800  0.49638000  1
  N  674  1  0.59403800  0.53094300  0.50869700  1
  N  677  1  0.99248200  0.98114500  0.49527800  1
  N  680  1  0.01749400  0.02288000  0.50267600  1
  N  687  1  0.91443800  0.03230300  0.50538600  1
  N  689  1  0.09411300  0.97087100  0.49311000  1
  N  692  1  0.51356600  0.98190400  0.50855300  1
  N  695  1  0.48223800  0.02236400  0.49799200  1
  N  702  1  0.58320500  0.03482800  0.49895700  1
  N  704  1  0.41433000  0.96860200  0.50690600  1
  N  707  1  0.01356200  0.51992400  0.49324900  1
  N  710  1  0.98223000  0.47946800  0.50382800  1
  N  717  1  0.08317100  0.46698600  0.50280100  1
  N  719  1  0.91431800  0.53323100  0.49491600  1
  N  722  1  0.39765500  0.16531300  0.93591100  1
  N  725  1  0.38287600  0.15945300  0.89302100  1
  N  732  1  0.42133800  0.19493000  0.88466000  1
  N  734  1  0.35387900  0.13103700  0.94439000  1
  N  737  1  0.89750200  0.33646000  0.06589400  1
  N  740  1  0.88272900  0.34231300  0.10878500  1
  N  747  1  0.92117000  0.30683000  0.11713600  1
  N  749  1  0.85382600  0.37075600  0.05742200  1
  N  752  1  0.64777200  0.31560800  0.91503200  1
  N  755  1  0.63295800  0.35851400  0.90932200  1
  N  762  1  0.67143000  0.36675600  0.94482500  1
  N  764  1  0.60405400  0.30724100  0.88071900  1
  N  767  1  0.14796100  0.18618100  0.08682700  1
  N  770  1  0.13318300  0.14327800  0.09256300  1
  N  777  1  0.17149600  0.13502700  0.05703800  1
  N  779  1  0.10427300  0.19456900  0.12113600  1
  N  782  1  0.60529200  0.83656600  0.06535700  1
  N  785  1  0.61986600  0.84253500  0.10823100  1
  N  792  1  0.58195800  0.80698000  0.11663600  1
  N  794  1  0.64841000  0.87094500  0.05679600  1
  N  797  1  0.10529200  0.66526300  0.93643300  1
  N  800  1  0.11980900  0.65930500  0.89355500  1
  N  807  1  0.08189200  0.69486300  0.88516500  1
  N  809  1  0.14841400  0.63087900  0.94497700  1
  N  812  1  0.35658100  0.68589000  0.08649200  1
  N  815  1  0.37256200  0.64300700  0.09197600  1
  N  822  1  0.33390900  0.63482000  0.05648800  1
  N  824  1  0.40044400  0.69426600  0.12077100  1
  N  827  1  0.85640000  0.81590700  0.91528100  1
  N  830  1  0.87254400  0.85878200  0.90979700  1
  N  837  1  0.83387000  0.86698400  0.94528400  1
  N  839  1  0.90021800  0.80750700  0.88099700  1
  N  842  1  0.89711600  0.66527900  0.43581000  1
  N  845  1  0.88101600  0.65983300  0.39292600  1
  N  852  1  0.91984300  0.69530200  0.38474900  1
  N  854  1  0.85320400  0.63099600  0.44417200  1
  N  857  1  0.39699300  0.83650400  0.56600200  1
  N  860  1  0.38090100  0.84194400  0.60888700  1
  N  867  1  0.41972400  0.80647100  0.61705700  1
  N  869  1  0.35316800  0.87080100  0.55764700  1
  N  872  1  0.14833400  0.81541100  0.41527300  1
  N  875  1  0.13345900  0.85827900  0.40938100  1
  N  882  1  0.17161900  0.86667100  0.44490500  1
  N  884  1  0.10515400  0.80686100  0.38089400  1
  N  887  1  0.64847700  0.68637900  0.58658100  1
  N  890  1  0.63361900  0.64351000  0.59249600  1
  N  897  1  0.67163000  0.63511200  0.55695000  1
  N  899  1  0.60532800  0.69494500  0.62095700  1
  N  902  1  0.10577500  0.33658700  0.56542900  1
  N  905  1  0.12176100  0.34214400  0.60829300  1
  N  912  1  0.08347100  0.30660100  0.61652600  1
  N  914  1  0.14903200  0.37096800  0.55697300  1
  N  917  1  0.60579400  0.16523500  0.43635200  1
  N  920  1  0.62171200  0.15968600  0.39348100  1
  N  927  1  0.58339600  0.19522900  0.38526300  1
  N  929  1  0.64907200  0.13085100  0.44478900  1
  N  932  1  0.85598200  0.18609300  0.58626000  1
  N  935  1  0.87206800  0.14324700  0.59193600  1
  N  942  1  0.83366000  0.13490000  0.55643900  1
  N  944  1  0.89935400  0.19466200  0.62059300  1
  N  947  1  0.35579700  0.31569800  0.41551600  1
  N  950  1  0.37206900  0.35853600  0.40984300  1
  N  957  1  0.33361100  0.36689800  0.44533400  1
  N  959  1  0.39914000  0.30710600  0.38117800  1
  O  27  1  0.13565600  0.10364600  0.07524700  1
  O  28  1  0.03094900  0.05837600  0.02123800  1
  O  29  1  0.48058000  0.05923200  0.98149600  1
  O  30  1  0.42691700  0.13810100  0.97107800  1
  O  57  1  0.63589600  0.39816500  0.92657600  1
  O  58  1  0.53097600  0.44342600  0.98057500  1
  O  59  1  0.98062000  0.44258700  0.02027500  1
  O  60  1  0.92686800  0.36363800  0.03075800  1
  O  87  1  0.38547900  0.17664500  0.85333100  1
  O  88  1  0.28107500  0.23054400  0.80787000  1
  O  89  1  0.73076400  0.27016300  0.80877900  1
  O  90  1  0.67719400  0.28058300  0.88771300  1
  O  117  1  0.88526600  0.32509800  0.14847200  1
  O  118  1  0.78096000  0.27119700  0.19391300  1
  O  119  1  0.23078100  0.23170300  0.19297800  1
  O  120  1  0.17729600  0.22130100  0.11410800  1
  O  147  1  0.87616100  0.89793000  0.92827500  1
  O  148  1  0.97628600  0.94118700  0.98504500  1
  O  149  1  0.51820600  0.94042000  0.01573700  1
  O  150  1  0.57704000  0.86304300  0.02972500  1
  O  177  1  0.37601100  0.60385300  0.07351900  1
  O  178  1  0.47626200  0.56061300  0.01673600  1
  O  179  1  0.01821200  0.56139700  0.98602200  1
  O  180  1  0.07708400  0.63877900  0.97206100  1
  O  207  1  0.61770000  0.82534200  0.14793700  1
  O  208  1  0.72269100  0.77164700  0.19346100  1
  O  209  1  0.27342100  0.73140700  0.19260700  1
  O  210  1  0.32714000  0.72088700  0.11379000  1
  O  237  1  0.11778400  0.67653400  0.85386500  1
  O  238  1  0.22269600  0.73025800  0.80836100  1
  O  239  1  0.77332200  0.77039300  0.80918700  1
  O  240  1  0.82697600  0.78085400  0.88805900  1
  O  267  1  0.63575400  0.60380800  0.57527100  1
  O  268  1  0.53100200  0.55826200  0.52156800  1
  O  269  1  0.98021100  0.55915500  0.48128600  1
  O  270  1  0.92644800  0.63799200  0.47081100  1
  O  297  1  0.13610100  0.89800200  0.42653200  1
  O  298  1  0.03108700  0.94355100  0.48022400  1
  O  299  1  0.48021400  0.94269600  0.52057600  1
  O  300  1  0.42641000  0.86375000  0.53102600  1
  O  327  1  0.87799400  0.67825500  0.35375100  1
  O  328  1  0.77762800  0.73496900  0.31050300  1
  O  329  1  0.23556000  0.76581700  0.31136000  1
  O  330  1  0.17664800  0.77984000  0.38879700  1
  O  357  1  0.37789100  0.82351300  0.64806600  1
  O  358  1  0.27756500  0.76680000  0.69129400  1
  O  359  1  0.73551600  0.73594900  0.69043900  1
  O  360  1  0.67675000  0.72202000  0.61303300  1
  O  387  1  0.37586400  0.39777000  0.42819200  1
  O  388  1  0.47617200  0.44127900  0.48471700  1
  O  389  1  0.01845500  0.44051500  0.51605200  1
  O  390  1  0.07738600  0.36314600  0.52996800  1
  O  417  1  0.87570000  0.10400400  0.57361000  1
  O  418  1  0.97618000  0.06051800  0.51708200  1
  O  419  1  0.51848400  0.06130600  0.48572300  1
  O  420  1  0.57746200  0.13866900  0.47181000  1
  O  447  1  0.12527600  0.32373500  0.64748500  1
  O  448  1  0.22619800  0.26723800  0.69083600  1
  O  449  1  0.76861200  0.23573800  0.69003100  1
  O  450  1  0.82763000  0.22162600  0.61272100  1
  O  477  1  0.62532900  0.17812700  0.35430700  1
  O  478  1  0.72616200  0.23464100  0.31097500  1
  O  479  1  0.26850400  0.26604600  0.31176000  1
  O  480  1  0.32747700  0.28011200  0.38912600  1
  O  489  1  0.13196400  0.97071100  0.98740400  1
  O  490  1  0.14572500  0.98304100  0.01934600  1
  O  504  1  0.63190600  0.53107500  0.01447300  1
  O  505  1  0.64580600  0.51876500  0.98253300  1
  O  519  1  0.38198000  0.26489800  0.72038700  1
  O  520  1  0.39737000  0.23311700  0.73288000  1
  O  534  1  0.88227200  0.23736500  0.28168300  1
  O  535  1  0.89727200  0.26890300  0.26864000  1
  O  549  1  0.86994200  0.52698000  0.98211000  1
  O  550  1  0.84891200  0.51450100  0.01341100  1
  O  564  1  0.36996100  0.97483200  0.01967100  1
  O  565  1  0.34889000  0.98731800  0.98837700  1
  O  579  1  0.62025600  0.23188100  0.72440800  1
  O  580  1  0.59909200  0.26318900  0.73683900  1
  O  594  1  0.12059000  0.27005700  0.27720100  1
  O  595  1  0.10035200  0.23832300  0.26556400  1
  O  609  1  0.62202800  0.73717700  0.28094500  1
  O  610  1  0.60784000  0.76916300  0.26879500  1
  O  624  1  0.12193400  0.76448800  0.72081500  1
  O  625  1  0.10787900  0.73252700  0.73304800  1
  O  639  1  0.38338500  0.77006200  0.27672300  1
  O  640  1  0.40494400  0.73856300  0.26475300  1
  O  654  1  0.88379000  0.73201300  0.72485400  1
  O  655  1  0.90490800  0.76333100  0.73727000  1
  O  669  1  0.63225600  0.47056300  0.48752700  1
  O  670  1  0.64720800  0.48356500  0.51908800  1
  O  684  1  0.13223300  0.03121200  0.51440300  1
  O  685  1  0.14735700  0.01826400  0.48283200  1
  O  699  1  0.37021700  0.02688800  0.48169700  1
  O  700  1  0.34872500  0.01459000  0.51302800  1
  O  714  1  0.87069000  0.47513100  0.52033600  1
  O  715  1  0.84995600  0.48660800  0.48858600  1
  O  729  1  0.30979700  0.12589200  0.88149800  1
  O  730  1  0.37058800  0.10669700  0.89818600  1
  O  744  1  0.80966000  0.37587500  0.12031000  1
  O  745  1  0.87050600  0.39506800  0.10364600  1
  O  759  1  0.56027000  0.37023300  0.87586600  1
  O  760  1  0.62057000  0.35365700  0.85652400  1
  O  774  1  0.06086500  0.13145300  0.12621400  1
  O  775  1  0.12067400  0.14835700  0.14540800  1
  O  789  1  0.69203400  0.87632300  0.11984400  1
  O  790  1  0.63155600  0.89532900  0.10305200  1
  O  804  1  0.19192400  0.62550900  0.88191600  1
  O  805  1  0.13145900  0.60650600  0.89872000  1
  O  819  1  0.44552500  0.63128200  0.12548400  1
  O  820  1  0.38528900  0.64782500  0.14480800  1
  O  834  1  0.94626200  0.87025800  0.87640400  1
  O  835  1  0.88497000  0.85403300  0.85702900  1
  O  849  1  0.80717000  0.62648400  0.38142000  1
  O  850  1  0.86842400  0.60707200  0.39762200  1
  O  864  1  0.30705100  0.87529300  0.62039200  1
  O  865  1  0.36835400  0.89470100  0.60421500  1
  O  879  1  0.06071500  0.86975000  0.37583000  1
  O  880  1  0.12178300  0.85338200  0.35663500  1
  O  894  1  0.56126000  0.63192700  0.62624200  1
  O  895  1  0.62181800  0.64863300  0.64528900  1
  O  909  1  0.19474200  0.37571900  0.61987200  1
  O  910  1  0.13378700  0.39494600  0.60357300  1
  O  924  1  0.69466000  0.12611000  0.38187800  1
  O  925  1  0.63373000  0.10688300  0.39819000  1
  O  939  1  0.94513400  0.13178300  0.62552700  1
  O  940  1  0.88418000  0.14813000  0.64471300  1
  O  954  1  0.44592400  0.36974300  0.37637500  1
  O  955  1  0.38390000  0.35373400  0.35713500  1
