# generated using pymatgen
data_H19C29N6
_symmetry_space_group_name_H-M   'P 1'
_cell_length_a   61.66780000
_cell_length_b   61.65740000
_cell_length_c   72.66400000
_cell_angle_alpha   89.99890000
_cell_angle_beta   90.00000000
_cell_angle_gamma   90.00000000
_symmetry_Int_Tables_number   1
_chemical_formula_structural   H19C29N6
_chemical_formula_sum   'H608 C928 N192'
_cell_volume   276288.59859750
_cell_formula_units_Z   32
loop_
 _symmetry_equiv_pos_site_id
 _symmetry_equiv_pos_as_xyz
  1  'x, y, z'
loop_
 _atom_site_type_symbol
 _atom_site_label
 _atom_site_symmetry_multiplicity
 _atom_site_fract_x
 _atom_site_fract_y
 _atom_site_fract_z
 _atom_site_occupancy
  H  49  1  0.25516700  0.32326800  0.94693800  1
  H  50  1  0.23609100  0.30506800  0.92248500  1
  H  51  1  0.20540000  0.37024900  0.94960400  1
  H  52  1  0.18635200  0.35210400  0.92538700  1
  H  53  1  0.22426000  0.34918200  0.89176500  1
  H  54  1  0.21674700  0.35754500  0.85823400  1
  H  55  1  0.17459800  0.31024100  0.87467400  1
  H  56  1  0.14961900  0.28210400  0.87357700  1
  H  57  1  0.19260000  0.29305800  0.94171000  1
  H  58  1  0.16538000  0.26213000  0.94048100  1
  H  59  1  0.15854500  0.21663500  0.90621700  1
  H  60  1  0.14720300  0.18749900  0.92578600  1
  H  61  1  0.11413700  0.25856700  0.93258600  1
  H  62  1  0.10278500  0.22929200  0.95226000  1
  H  63  1  0.10938100  0.23293200  0.88943800  1
  H  64  1  0.09906200  0.24401400  0.85703600  1
  H  65  1  0.15879000  0.33031700  0.80786400  1
  H  66  1  0.12837200  0.30239000  0.80784500  1
  H  67  1  0.08467100  0.29558200  0.84355200  1
  H  68  1  0.05343500  0.28677600  0.82548300  1
  H  69  1  0.12175500  0.25016700  0.81346500  1
  H  70  1  0.09034700  0.24138200  0.79525900  1
  H  71  1  0.21566700  0.32265900  0.82054700  1
  H  72  1  0.23337600  0.34469500  0.79796200  1
  H  73  1  0.19053000  0.39633600  0.80967100  1
  H  74  1  0.17265900  0.37416600  0.83247200  1
  H  127  1  0.24544100  0.46035000  0.44692700  1
  H  128  1  0.26449600  0.47853300  0.42245400  1
  H  129  1  0.29519800  0.41335400  0.44957200  1
  H  130  1  0.31422400  0.43148100  0.42533200  1
  H  131  1  0.27634200  0.43444200  0.39168400  1
  H  132  1  0.28392600  0.42608000  0.35816500  1
  H  133  1  0.32607400  0.47334700  0.37468100  1
  H  134  1  0.35086000  0.50167800  0.37354000  1
  H  135  1  0.30800000  0.49046000  0.44171400  1
  H  136  1  0.33522000  0.52138700  0.44052900  1
  H  137  1  0.34215400  0.56699100  0.40628500  1
  H  138  1  0.35355100  0.59607600  0.42588100  1
  H  139  1  0.38638900  0.52490300  0.43269000  1
  H  140  1  0.39779700  0.55413400  0.45239500  1
  H  141  1  0.39135200  0.55055100  0.38960600  1
  H  142  1  0.40167300  0.53954900  0.35718900  1
  H  143  1  0.34189100  0.45341900  0.30783600  1
  H  144  1  0.37225900  0.48140500  0.30784000  1
  H  145  1  0.41592400  0.48811800  0.34372900  1
  H  146  1  0.44728000  0.49697200  0.32582900  1
  H  147  1  0.37903400  0.53359000  0.31353000  1
  H  148  1  0.41056400  0.54240800  0.29548200  1
  H  149  1  0.28509500  0.46102200  0.32050100  1
  H  150  1  0.26735700  0.43900900  0.29791800  1
  H  151  1  0.31010700  0.38729700  0.30965700  1
  H  152  1  0.32800900  0.40944500  0.33245500  1
  H  205  1  0.81930200  0.89708000  0.19726800  1
  H  206  1  0.83741200  0.87790500  0.17282000  1
  H  207  1  0.77189400  0.84770000  0.19973500  1
  H  208  1  0.78994200  0.82855600  0.17551500  1
  H  209  1  0.79329900  0.86678400  0.14207900  1
  H  210  1  0.78460400  0.85936400  0.10859300  1
  H  211  1  0.83125200  0.81640300  0.12489700  1
  H  212  1  0.86029500  0.79229400  0.12325900  1
  H  213  1  0.84880100  0.83392600  0.19193800  1
  H  214  1  0.87968400  0.80669300  0.19051100  1
  H  215  1  0.92569000  0.79979800  0.15671300  1
  H  216  1  0.95406500  0.78805000  0.17692000  1
  H  217  1  0.88242900  0.75582900  0.18205600  1
  H  218  1  0.91091700  0.74409900  0.20237500  1
  H  219  1  0.90917300  0.75157400  0.13891500  1
  H  220  1  0.89825600  0.74178500  0.10637000  1
  H  221  1  0.81124200  0.80139400  0.05796100  1
  H  222  1  0.83967100  0.77144000  0.05752400  1
  H  223  1  0.84511200  0.72840000  0.09045200  1
  H  224  1  0.85446200  0.69767700  0.07192900  1
  H  225  1  0.89464000  0.76496400  0.06491600  1
  H  226  1  0.90403200  0.73405600  0.04630500  1
  H  227  1  0.81881300  0.85789000  0.07067300  1
  H  228  1  0.79668400  0.87549600  0.04809800  1
  H  229  1  0.74503400  0.83283400  0.06023800  1
  H  230  1  0.76729800  0.81506600  0.08302900  1
  H  283  1  0.68128100  0.88664600  0.69735400  1
  H  284  1  0.66318500  0.90584600  0.67291100  1
  H  285  1  0.72878700  0.93593500  0.69977500  1
  H  286  1  0.71075500  0.95510200  0.67555800  1
  H  287  1  0.70725500  0.91677000  0.64216700  1
  H  288  1  0.71595200  0.92408200  0.60866500  1
  H  289  1  0.66953100  0.96730100  0.62494400  1
  H  290  1  0.64022200  0.99113200  0.62315100  1
  H  291  1  0.65185400  0.94986700  0.69197700  1
  H  292  1  0.62091700  0.97703100  0.69047400  1
  H  293  1  0.57480100  0.98407400  0.65647300  1
  H  294  1  0.54645200  0.99583100  0.67670300  1
  H  295  1  0.61825600  0.02761400  0.68210400  1
  H  296  1  0.58979900  0.03934200  0.70245400  1
  H  297  1  0.59150300  0.03205600  0.63878400  1
  H  298  1  0.60240800  0.04173400  0.60621800  1
  H  299  1  0.68948300  0.98204700  0.55795600  1
  H  300  1  0.66100600  0.01195900  0.55743900  1
  H  301  1  0.65564800  0.05493600  0.59040700  1
  H  302  1  0.64623800  0.08583900  0.57212500  1
  H  303  1  0.60594000  0.01866900  0.56482100  1
  H  304  1  0.59648900  0.04975400  0.54645100  1
  H  305  1  0.68197200  0.92552300  0.57073500  1
  H  306  1  0.70416000  0.90796700  0.54817700  1
  H  307  1  0.75566500  0.95081500  0.56027800  1
  H  308  1  0.73334500  0.96852900  0.58306100  1
  H  361  1  0.24223200  0.32895500  0.55733700  1
  H  362  1  0.26081700  0.30886600  0.58105000  1
  H  363  1  0.29912700  0.36535500  0.54759300  1
  H  364  1  0.31759300  0.34543600  0.57110000  1
  H  365  1  0.27881200  0.35076000  0.60678100  1
  H  366  1  0.28622900  0.35968600  0.64020500  1
  H  367  1  0.32247100  0.30662400  0.62648400  1
  H  368  1  0.35018900  0.28092200  0.62701000  1
  H  369  1  0.30533300  0.28912500  0.55943100  1
  H  370  1  0.33337300  0.25886800  0.56075100  1
  H  371  1  0.34389400  0.21536500  0.59535300  1
  H  372  1  0.35530400  0.18631600  0.57572300  1
  H  373  1  0.38560100  0.25833600  0.56706900  1
  H  374  1  0.39705300  0.22911700  0.54734600  1
  H  375  1  0.39317100  0.23439900  0.61057100  1
  H  376  1  0.40317600  0.24589100  0.64294700  1
  H  377  1  0.33901800  0.32836500  0.69283600  1
  H  378  1  0.36991100  0.30099900  0.69303800  1
  H  379  1  0.41515000  0.29689200  0.65792600  1
  H  380  1  0.44618700  0.28840900  0.67635700  1
  H  381  1  0.37863500  0.24962500  0.68641200  1
  H  382  1  0.40980900  0.24118300  0.70498600  1
  H  383  1  0.28082100  0.32519100  0.67672900  1
  H  384  1  0.26412600  0.34793100  0.69937000  1
  H  385  1  0.31380100  0.39438900  0.69248800  1
  H  386  1  0.33059700  0.37157000  0.66961000  1
  H  439  1  0.25832100  0.45470600  0.05730700  1
  H  440  1  0.23973100  0.47479700  0.08101300  1
  H  441  1  0.20145400  0.41824700  0.04760800  1
  H  442  1  0.18298200  0.43816900  0.07111000  1
  H  443  1  0.22178300  0.43289600  0.10676900  1
  H  444  1  0.21436000  0.42394700  0.14018600  1
  H  445  1  0.17804700  0.47696200  0.12645900  1
  H  446  1  0.15045400  0.50277500  0.12702900  1
  H  447  1  0.19517000  0.49446300  0.05939200  1
  H  448  1  0.16719100  0.52477600  0.06074000  1
  H  449  1  0.15680700  0.56836200  0.09540900  1
  H  450  1  0.14539900  0.59744400  0.07581200  1
  H  451  1  0.11505200  0.52545300  0.06711100  1
  H  452  1  0.10360500  0.55470300  0.04742100  1
  H  453  1  0.10749400  0.54932600  0.11060100  1
  H  454  1  0.09746900  0.53781400  0.14296400  1
  H  455  1  0.16155300  0.45525100  0.19282600  1
  H  456  1  0.13069800  0.48266700  0.19304300  1
  H  457  1  0.08549700  0.48678300  0.15782200  1
  H  458  1  0.05436100  0.49530500  0.17611900  1
  H  459  1  0.12186900  0.53407900  0.18639900  1
  H  460  1  0.09059600  0.54255900  0.20484000  1
  H  461  1  0.21971600  0.45844800  0.17670900  1
  H  462  1  0.23643300  0.43573700  0.19936000  1
  H  463  1  0.18681200  0.38922000  0.19249000  1
  H  464  1  0.16999100  0.41201000  0.16960300  1
  H  517  1  0.68726600  0.90050600  0.30707200  1
  H  518  1  0.66723400  0.88184400  0.33077300  1
  H  519  1  0.72363300  0.84362600  0.29714000  1
  H  520  1  0.70377700  0.82508400  0.32064700  1
  H  521  1  0.70925300  0.86418500  0.35618100  1
  H  522  1  0.71852500  0.85697500  0.38956700  1
  H  523  1  0.66558400  0.82032600  0.37628800  1
  H  524  1  0.63916500  0.79330400  0.37737300  1
  H  525  1  0.64780300  0.83663700  0.30910800  1
  H  526  1  0.61759100  0.80859000  0.31072800  1
  H  527  1  0.57363300  0.79801000  0.34512000  1
  H  528  1  0.54514300  0.78584800  0.32521900  1
  H  529  1  0.61781500  0.75672700  0.31774500  1
  H  530  1  0.58918200  0.74456000  0.29773400  1
  H  531  1  0.59293800  0.74978600  0.36131500  1
  H  532  1  0.60427800  0.74043500  0.39385300  1
  H  533  1  0.68742800  0.80477700  0.44277200  1
  H  534  1  0.65951700  0.77436700  0.44349400  1
  H  535  1  0.65697100  0.72982200  0.41124100  1
  H  536  1  0.64767800  0.69902400  0.42969700  1
  H  537  1  0.60529300  0.76517100  0.43485800  1
  H  538  1  0.59597900  0.73421400  0.45340800  1
  H  539  1  0.68460800  0.86245600  0.42638200  1
  H  540  1  0.70745800  0.87895100  0.44904500  1
  H  541  1  0.75367800  0.82910200  0.44193800  1
  H  542  1  0.73074600  0.81250200  0.41904500  1
  H  595  1  0.81336100  0.88314500  0.80713200  1
  H  596  1  0.83337800  0.90184200  0.83082200  1
  H  597  1  0.77703400  0.94002600  0.79709400  1
  H  598  1  0.79687700  0.95860200  0.82058800  1
  H  599  1  0.79128000  0.91962200  0.85614100  1
  H  600  1  0.78202500  0.92680600  0.88953500  1
  H  601  1  0.83510000  0.96329000  0.87631200  1
  H  602  1  0.86160800  0.99025000  0.87743600  1
  H  603  1  0.85292000  0.94694900  0.80915500  1
  H  604  1  0.88316100  0.97496700  0.81078700  1
  H  605  1  0.92707300  0.98579400  0.84522000  1
  H  606  1  0.95553400  0.99792700  0.82527300  1
  H  607  1  0.88277800  0.02678400  0.81766300  1
  H  608  1  0.91138000  0.03892200  0.79760600  1
  H  609  1  0.90756400  0.03399900  0.86126700  1
  H  610  1  0.89623900  0.04333500  0.89381200  1
  H  611  1  0.81329800  0.97879700  0.94281000  1
  H  612  1  0.84122600  0.00919000  0.94354300  1
  H  613  1  0.84364700  0.05377300  0.91134900  1
  H  614  1  0.85293600  0.08455500  0.92982700  1
  H  615  1  0.89542800  0.01846200  0.93484200  1
  H  616  1  0.90473600  0.04939700  0.95341600  1
  H  617  1  0.81594200  0.92110400  0.92628900  1
  H  618  1  0.79306300  0.90460300  0.94892600  1
  H  619  1  0.74703600  0.95466600  0.94203500  1
  H  620  1  0.76998800  0.97127000  0.91916000  1
  H  673  1  0.74558800  0.46073600  0.05338500  1
  H  674  1  0.76472800  0.47896600  0.07778700  1
  H  675  1  0.79474000  0.41307000  0.05137700  1
  H  676  1  0.81385400  0.43123700  0.07554500  1
  H  677  1  0.77577100  0.43515800  0.10903900  1
  H  678  1  0.78336100  0.42681500  0.14256600  1
  H  679  1  0.82638400  0.47311800  0.12569900  1
  H  680  1  0.85114700  0.50151500  0.12682200  1
  H  681  1  0.80843300  0.49017000  0.05865300  1
  H  682  1  0.83557800  0.52116700  0.05985400  1
  H  683  1  0.84112100  0.56689300  0.09358900  1
  H  684  1  0.85246700  0.59599100  0.07397500  1
  H  685  1  0.88702500  0.52547400  0.06851100  1
  H  686  1  0.89838700  0.55470600  0.04880300  1
  H  687  1  0.89062600  0.55139600  0.11118700  1
  H  688  1  0.90112000  0.54026600  0.14354000  1
  H  689  1  0.84231800  0.45314600  0.19248200  1
  H  690  1  0.87267500  0.48115400  0.19244500  1
  H  691  1  0.91529700  0.48665800  0.15814000  1
  H  692  1  0.94650700  0.49522600  0.17634100  1
  H  693  1  0.87953300  0.53525500  0.18569300  1
  H  694  1  0.91091600  0.54385800  0.20397700  1
  H  695  1  0.78547600  0.46137300  0.18035900  1
  H  696  1  0.76774200  0.43938300  0.20296300  1
  H  697  1  0.80975300  0.38727700  0.19057300  1
  H  698  1  0.82764400  0.40940000  0.16775200  1
  H  751  1  0.75507800  0.32292500  0.55335500  1
  H  752  1  0.73595600  0.30471600  0.57777700  1
  H  753  1  0.70596500  0.37063500  0.55139200  1
  H  754  1  0.68687000  0.35248800  0.57558200  1
  H  755  1  0.72496600  0.34850500  0.60906900  1
  H  756  1  0.71736600  0.35685400  0.64259400  1
  H  757  1  0.67428400  0.31062000  0.62570100  1
  H  758  1  0.64975900  0.28199200  0.62692000  1
  H  759  1  0.69216200  0.29364400  0.55863200  1
  H  760  1  0.66502600  0.26264000  0.55983000  1
  H  761  1  0.65950800  0.21677600  0.59356100  1
  H  762  1  0.64809500  0.18773200  0.57392000  1
  H  763  1  0.61370400  0.25833900  0.56851600  1
  H  764  1  0.60227400  0.22915700  0.54877800  1
  H  765  1  0.61001300  0.23238000  0.61115200  1
  H  766  1  0.59958500  0.24343100  0.64353100  1
  H  767  1  0.65845500  0.33046400  0.69253200  1
  H  768  1  0.62815900  0.30238400  0.69252200  1
  H  769  1  0.58551600  0.29687600  0.65802800  1
  H  770  1  0.55416700  0.28820800  0.67601300  1
  H  771  1  0.62115900  0.24834900  0.68578000  1
  H  772  1  0.58963500  0.23964700  0.70385400  1
  H  773  1  0.71518300  0.32229100  0.68041000  1
  H  774  1  0.73292500  0.34428200  0.70301000  1
  H  775  1  0.69100200  0.39643300  0.69054300  1
  H  776  1  0.67310300  0.37431100  0.66772900  1
  H  829  1  0.18109900  0.88712500  0.80302800  1
  H  830  1  0.16300700  0.90633800  0.82746200  1
  H  831  1  0.22933200  0.93574400  0.80134900  1
  H  832  1  0.21131000  0.95492400  0.82556500  1
  H  833  1  0.20682700  0.91641700  0.85876500  1
  H  834  1  0.21548400  0.92371900  0.89228100  1
  H  835  1  0.16988600  0.96764900  0.87571300  1
  H  836  1  0.14121900  0.99217800  0.87721800  1
  H  837  1  0.15276400  0.95088100  0.80849200  1
  H  838  1  0.12192700  0.97818700  0.80996000  1
  H  839  1  0.07584000  0.98260400  0.84307500  1
  H  840  1  0.04729900  0.99426900  0.82299900  1
  H  841  1  0.11768600  0.02947100  0.81984700  1
  H  842  1  0.08903000  0.04112300  0.79965600  1
  H  843  1  0.09063600  0.03120700  0.86239600  1
  H  844  1  0.10153100  0.04090300  0.89497200  1
  H  845  1  0.19010100  0.98271300  0.94255500  1
  H  846  1  0.16172200  0.01272200  0.94303000  1
  H  847  1  0.15509600  0.05557100  0.90976600  1
  H  848  1  0.14568900  0.08635300  0.92818900  1
  H  849  1  0.10675200  0.01852700  0.93641600  1
  H  850  1  0.09729300  0.04950600  0.95492600  1
  H  851  1  0.18184400  0.92599400  0.93028200  1
  H  852  1  0.20402200  0.90837800  0.95281600  1
  H  853  1  0.25589500  0.95055800  0.94016200  1
  H  854  1  0.23358500  0.96833000  0.91740400  1
  H  907  1  0.31963000  0.89642800  0.30293600  1
  H  908  1  0.33770300  0.87716000  0.32735200  1
  H  909  1  0.27120600  0.84799500  0.30135700  1
  H  910  1  0.28920400  0.82876200  0.32555800  1
  H  911  1  0.29394600  0.86736200  0.35870100  1
  H  912  1  0.28530100  0.86016600  0.39223400  1
  H  913  1  0.33055300  0.81589100  0.37564300  1
  H  914  1  0.35949200  0.79163000  0.37728900  1
  H  915  1  0.34771800  0.83248800  0.30841000  1
  H  916  1  0.37861200  0.80525200  0.30994600  1
  H  917  1  0.42482800  0.80111100  0.34304100  1
  H  918  1  0.45331100  0.78945100  0.32290400  1
  H  919  1  0.38297000  0.75412700  0.32000000  1
  H  920  1  0.41156600  0.74248100  0.29974700  1
  H  921  1  0.41012500  0.75262100  0.36256100  1
  H  922  1  0.39928100  0.74305600  0.39517400  1
  H  923  1  0.31042600  0.80107300  0.44253200  1
  H  924  1  0.33888800  0.77114100  0.44309000  1
  H  925  1  0.34553400  0.72842500  0.40973500  1
  H  926  1  0.35497100  0.69745200  0.42791500  1
  H  927  1  0.39395900  0.76517300  0.43657100  1
  H  928  1  0.40344900  0.73400500  0.45483500  1
  H  929  1  0.31868200  0.85785000  0.43023300  1
  H  930  1  0.29645000  0.87542800  0.45274900  1
  H  931  1  0.24468700  0.83310900  0.44010700  1
  H  932  1  0.26704700  0.81538300  0.41735800  1
  H  985  1  0.75830300  0.45500200  0.44363400  1
  H  986  1  0.73969900  0.47512100  0.41995200  1
  H  987  1  0.70178600  0.41776700  0.45267100  1
  H  988  1  0.68329800  0.43771500  0.42919100  1
  H  989  1  0.72241400  0.43333100  0.39367100  1
  H  990  1  0.71499500  0.42448200  0.36023100  1
  H  991  1  0.67791400  0.47682500  0.37431800  1
  H  992  1  0.65055300  0.50283300  0.37372200  1
  H  993  1  0.69494400  0.49403400  0.44147300  1
  H  994  1  0.66701600  0.52439100  0.44016600  1
  H  995  1  0.65789700  0.56815100  0.40616600  1
  H  996  1  0.64647500  0.59711700  0.42588100  1
  H  997  1  0.61441100  0.52562300  0.43296600  1
  H  998  1  0.60293200  0.55476000  0.45276100  1
  H  999  1  0.60804500  0.54984900  0.39003400  1
  H  1000  1  0.59795000  0.53837100  0.35767200  1
  H  1001  1  0.66141500  0.45524600  0.30791900  1
  H  1002  1  0.63062900  0.48274900  0.30774400  1
  H  1003  1  0.58654900  0.48535300  0.34137400  1
  H  1004  1  0.55542600  0.49376100  0.32301200  1
  H  1005  1  0.62134800  0.53606600  0.31575200  1
  H  1006  1  0.59007600  0.54449000  0.29729500  1
  H  1007  1  0.71956800  0.45887500  0.32358000  1
  H  1008  1  0.73625400  0.43617100  0.30090700  1
  H  1009  1  0.68716200  0.38922600  0.30839600  1
  H  1010  1  0.67037600  0.41200800  0.33130600  1
  H  1063  1  0.74238600  0.32865800  0.94367000  1
  H  1064  1  0.76099300  0.30854700  0.91998700  1
  H  1065  1  0.79889800  0.36589900  0.95271000  1
  H  1066  1  0.81738700  0.34595800  0.92922500  1
  H  1067  1  0.77822600  0.35034500  0.89373100  1
  H  1068  1  0.78560900  0.35922800  0.86029400  1
  H  1069  1  0.82275500  0.30691500  0.87433000  1
  H  1070  1  0.84995200  0.28075700  0.87363700  1
  H  1071  1  0.80588200  0.28971800  0.94152700  1
  H  1072  1  0.83374900  0.25930700  0.94015800  1
  H  1073  1  0.84270500  0.21541300  0.90605200  1
  H  1074  1  0.85424000  0.18641400  0.92568300  1
  H  1075  1  0.88620600  0.25794000  0.93283200  1
  H  1076  1  0.89779400  0.22877200  0.95254900  1
  H  1077  1  0.89246700  0.23371200  0.88988100  1
  H  1078  1  0.90250800  0.24519200  0.85751500  1
  H  1079  1  0.83909900  0.32847700  0.80789800  1
  H  1080  1  0.86982100  0.30089600  0.80765800  1
  H  1081  1  0.91392900  0.29821400  0.84142000  1
  H  1082  1  0.94518700  0.28970800  0.82326200  1
  H  1083  1  0.87921900  0.24757500  0.81561100  1
  H  1084  1  0.91062700  0.23905000  0.79735800  1
  H  1085  1  0.78100200  0.32492000  0.82362800  1
  H  1086  1  0.76432400  0.34764800  0.80096700  1
  H  1087  1  0.81347600  0.39453400  0.80843500  1
  H  1088  1  0.83025300  0.37172900  0.83133500  1
  H  1141  1  0.31362900  0.88348400  0.69373600  1
  H  1142  1  0.33364900  0.90216800  0.67003800  1
  H  1143  1  0.27646300  0.93999700  0.70302700  1
  H  1144  1  0.29630000  0.95855800  0.67951600  1
  H  1145  1  0.29182600  0.91896000  0.64412700  1
  H  1146  1  0.28257400  0.92610000  0.61073200  1
  H  1147  1  0.33471300  0.96373800  0.62427900  1
  H  1148  1  0.36062400  0.99113800  0.62334900  1
  H  1149  1  0.35205900  0.94801300  0.69167900  1
  H  1150  1  0.38219800  0.97614200  0.69003400  1
  H  1151  1  0.42623200  0.98424100  0.65637200  1
  H  1152  1  0.45483200  0.99623900  0.67623900  1
  H  1153  1  0.38330400  0.02867400  0.68154600  1
  H  1154  1  0.41204600  0.04068300  0.70152000  1
  H  1155  1  0.40854900  0.03317300  0.63862500  1
  H  1156  1  0.39719600  0.04248400  0.60608000  1
  H  1157  1  0.31254900  0.97939700  0.55786400  1
  H  1158  1  0.34037400  0.00987900  0.55712900  1
  H  1159  1  0.34404800  0.05428700  0.58968600  1
  H  1160  1  0.35338200  0.08507000  0.57123200  1
  H  1161  1  0.39464000  0.01833200  0.56505500  1
  H  1162  1  0.40400500  0.04928700  0.54650800  1
  H  1163  1  0.31606800  0.92141200  0.57385300  1
  H  1164  1  0.29314200  0.90489500  0.55125400  1
  H  1165  1  0.24664600  0.95438800  0.55884800  1
  H  1166  1  0.26964500  0.97099500  0.58168900  1
  H  1219  1  0.18700800  0.90008300  0.19372600  1
  H  1220  1  0.16701600  0.88134800  0.17004200  1
  H  1221  1  0.22427900  0.84364400  0.20303500  1
  H  1222  1  0.20446800  0.82503200  0.17953900  1
  H  1223  1  0.20890500  0.86454800  0.14413500  1
  H  1224  1  0.21811200  0.85742900  0.11072800  1
  H  1225  1  0.16597300  0.81980400  0.12430000  1
  H  1226  1  0.13996800  0.79249000  0.12334500  1
  H  1227  1  0.14864600  0.83556400  0.19169100  1
  H  1228  1  0.11846900  0.80747500  0.19004900  1
  H  1229  1  0.07444700  0.79940000  0.15643500  1
  H  1230  1  0.04586200  0.78745200  0.17633800  1
  H  1231  1  0.11735200  0.75491100  0.18156900  1
  H  1232  1  0.08862400  0.74294900  0.20157700  1
  H  1233  1  0.09214900  0.75037000  0.13869300  1
  H  1234  1  0.10345800  0.74107300  0.10613300  1
  H  1235  1  0.18805900  0.80417900  0.05786100  1
  H  1236  1  0.16019900  0.77372900  0.05712700  1
  H  1237  1  0.15655600  0.72933300  0.08961500  1
  H  1238  1  0.14730400  0.69863400  0.07102800  1
  H  1239  1  0.10594700  0.76533700  0.06505900  1
  H  1240  1  0.09666600  0.73447000  0.04637900  1
  H  1241  1  0.18459900  0.86218800  0.07389600  1
  H  1242  1  0.20752300  0.87872000  0.05130700  1
  H  1243  1  0.25394600  0.82913800  0.05877500  1
  H  1244  1  0.23095300  0.81251500  0.08161200  1
  H  1254  1  0.23848900  0.43829600  0.76368800  1
  H  1257  1  0.25643400  0.45967200  0.74091600  1
  H  1258  1  0.25850400  0.44615700  0.71956000  1
  H  1259  1  0.28144500  0.44816000  0.73426800  1
  H  1261  1  0.21704500  0.41425500  0.78641200  1
  H  1263  1  0.28880500  0.41358200  0.71563100  1
  H  1269  1  0.26214200  0.34537500  0.26368800  1
  H  1272  1  0.24419500  0.32399600  0.24092300  1
  H  1273  1  0.24211300  0.33751200  0.21956700  1
  H  1274  1  0.21917900  0.33550000  0.23428000  1
  H  1276  1  0.28357400  0.36941200  0.28641300  1
  H  1278  1  0.21180300  0.37007400  0.21564600  1
  H  1284  1  0.70302500  0.88030600  0.01391000  1
  H  1287  1  0.68162800  0.89794600  0.99097800  1
  H  1288  1  0.69510000  0.89968600  0.96958200  1
  H  1289  1  0.69315700  0.92284600  0.98404900  1
  H  1291  1  0.72709200  0.85909400  0.03677300  1
  H  1293  1  0.72775200  0.93000100  0.96537000  1
  H  1299  1  0.79771900  0.90327100  0.51392200  1
  H  1302  1  0.81908400  0.88556400  0.49101000  1
  H  1303  1  0.80564700  0.88387100  0.46959500  1
  H  1304  1  0.80746200  0.86070900  0.48407100  1
  H  1306  1  0.77367200  0.92460600  0.53675000  1
  H  1308  1  0.77291400  0.85374400  0.46531200  1
  H  1314  1  0.76211400  0.34553300  0.23684400  1
  H  1317  1  0.74424200  0.32415500  0.25965100  1
  H  1318  1  0.74224300  0.33766600  0.28101600  1
  H  1319  1  0.71925400  0.33566500  0.26636300  1
  H  1321  1  0.78341300  0.36954300  0.21402500  1
  H  1323  1  0.71199700  0.37021000  0.28504900  1
  H  1329  1  0.73853700  0.43818000  0.73684400  1
  H  1332  1  0.75635200  0.45957900  0.75967100  1
  H  1333  1  0.75836600  0.44605300  0.78102700  1
  H  1334  1  0.78136000  0.44811500  0.76638800  1
  H  1336  1  0.71731400  0.41415300  0.71399900  1
  H  1338  1  0.78877300  0.41351600  0.78498700  1
  H  1344  1  0.29785200  0.90336600  0.98673300  1
  H  1347  1  0.31924300  0.88581300  0.00971800  1
  H  1348  1  0.30571900  0.88407100  0.03109100  1
  H  1349  1  0.30776700  0.86089200  0.01665700  1
  H  1351  1  0.27380600  0.92439200  0.96374300  1
  H  1353  1  0.27313300  0.85366400  0.03528100  1
  H  1359  1  0.20269100  0.88032400  0.48671700  1
  H  1362  1  0.18132500  0.89790500  0.50970400  1
  H  1363  1  0.19483100  0.89960700  0.53108700  1
  H  1364  1  0.19286100  0.92279500  0.51665600  1
  H  1366  1  0.22672600  0.85923200  0.46374200  1
  H  1368  1  0.22750400  0.92996800  0.53527100  1
  H  1374  1  0.73600600  0.93691900  0.26156700  1
  H  1377  1  0.75541800  0.95788900  0.23949300  1
  H  1378  1  0.76119400  0.94307800  0.21927900  1
  H  1379  1  0.78185500  0.94778600  0.23585800  1
  H  1381  1  0.71457200  0.91412500  0.28426900  1
  H  1383  1  0.79392900  0.91257400  0.22031100  1
  H  1389  1  0.76468400  0.84671600  0.76155200  1
  H  1392  1  0.74528500  0.82575700  0.73946300  1
  H  1393  1  0.73948800  0.84059000  0.71926400  1
  H  1394  1  0.71883700  0.83583700  0.73584300  1
  H  1396  1  0.78609100  0.86950800  0.78428400  1
  H  1398  1  0.70672200  0.87106400  0.72032700  1
  H  1404  1  0.20598100  0.37755400  0.51170900  1
  H  1407  1  0.18501200  0.39685800  0.48957700  1
  H  1408  1  0.19978500  0.40251200  0.46932100  1
  H  1409  1  0.19514600  0.42326500  0.48583200  1
  H  1411  1  0.22875100  0.35613000  0.53439300  1
  H  1413  1  0.23031300  0.43524300  0.47025000  1
  H  1419  1  0.29461600  0.40610600  0.01172400  1
  H  1422  1  0.31560700  0.38682800  0.98959400  1
  H  1423  1  0.30084900  0.38118300  0.96932800  1
  H  1424  1  0.30549000  0.36041900  0.98583000  1
  H  1426  1  0.27182200  0.42750600  0.03440600  1
  H  1428  1  0.27034700  0.34846000  0.97020000  1
  H  1434  1  0.26460600  0.84690100  0.73901100  1
  H  1437  1  0.24517000  0.82594000  0.76108200  1
  H  1438  1  0.23943600  0.84073900  0.78130900  1
  H  1439  1  0.21875400  0.83608600  0.76473900  1
  H  1441  1  0.28617000  0.86972500  0.71640100  1
  H  1443  1  0.20667000  0.87134200  0.78024500  1
  H  1449  1  0.23599800  0.93676200  0.23900000  1
  H  1452  1  0.25541800  0.95774200  0.26107000  1
  H  1453  1  0.26115700  0.94294900  0.28130000  1
  H  1454  1  0.28184100  0.94761900  0.26473500  1
  H  1456  1  0.21447000  0.91391100  0.21637400  1
  H  1458  1  0.29394100  0.91236900  0.28026400  1
  H  1464  1  0.79478600  0.40613000  0.48892500  1
  H  1467  1  0.81579800  0.38682300  0.51102800  1
  H  1468  1  0.80104700  0.38113700  0.53129100  1
  H  1469  1  0.80569600  0.36040100  0.51476600  1
  H  1471  1  0.77193700  0.42764300  0.46634700  1
  H  1473  1  0.77051800  0.34833700  0.53034300  1
  H  1479  1  0.70588500  0.37753000  0.98895000  1
  H  1482  1  0.68487100  0.39682600  0.01105900  1
  H  1483  1  0.69962300  0.40250700  0.03132200  1
  H  1484  1  0.69497000  0.42324800  0.01480100  1
  H  1486  1  0.72873800  0.35603400  0.96636200  1
  H  1488  1  0.73013900  0.43530800  0.03038400  1
  H  1494  1  0.13169300  0.15979600  0.98155500  1
  H  1497  1  0.14872000  0.12753900  0.99252000  1
  H  1498  1  0.14648800  0.10728800  0.97546800  1
  H  1499  1  0.13107400  0.10538800  0.99605600  1
  H  1501  1  0.09204600  0.19403100  0.96576100  1
  H  1503  1  0.08995900  0.08581800  0.96804400  1
  H  1509  1  0.36896700  0.62385200  0.48152800  1
  H  1512  1  0.35191600  0.65622800  0.49221100  1
  H  1513  1  0.35418600  0.67626800  0.47498500  1
  H  1514  1  0.36953600  0.67843300  0.49558800  1
  H  1516  1  0.40856600  0.58941100  0.46598800  1
  H  1518  1  0.41051900  0.69774500  0.46803500  1
  H  1524  1  0.97955800  0.77209900  0.23451900  1
  H  1527  1  0.01184500  0.78932300  0.24530200  1
  H  1528  1  0.03173400  0.78790100  0.22787100  1
  H  1529  1  0.03430700  0.77187000  0.24806200  1
  H  1531  1  0.94527700  0.73382900  0.21772100  1
  H  1533  1  0.05475900  0.73507800  0.21900500  1
  H  1539  1  0.52108200  0.01158200  0.73457500  1
  H  1542  1  0.48878800  0.99439000  0.74537900  1
  H  1543  1  0.46888600  0.99578400  0.72795600  1
  H  1544  1  0.46634400  0.01186900  0.74811900  1
  H  1546  1  0.55541100  0.04977000  0.71767400  1
  H  1548  1  0.44583400  0.04830900  0.71918000  1
  H  1554  1  0.36918300  0.15930300  0.51890900  1
  H  1557  1  0.35196800  0.12708700  0.50812800  1
  H  1558  1  0.35394600  0.10707600  0.52540200  1
  H  1559  1  0.36938900  0.10470400  0.50486400  1
  H  1561  1  0.40918300  0.19338700  0.53483700  1
  H  1563  1  0.41060000  0.08527700  0.53286300  1
  H  1569  1  0.13147500  0.62437500  0.01887600  1
  H  1572  1  0.14865900  0.65652200  0.00790100  1
  H  1573  1  0.14673000  0.67666700  0.02506700  1
  H  1574  1  0.13121500  0.67887200  0.00455300  1
  H  1576  1  0.09147900  0.59043600  0.03496000  1
  H  1578  1  0.08987900  0.69839700  0.03291900  1
  H  1584  1  0.52050500  0.77177400  0.26593700  1
  H  1587  1  0.48838900  0.78918700  0.25505400  1
  H  1588  1  0.46858000  0.78819900  0.27256600  1
  H  1589  1  0.46570200  0.77198600  0.25250900  1
  H  1591  1  0.55492500  0.73478600  0.28157300  1
  H  1593  1  0.44528900  0.73457200  0.28251400  1
  H  1599  1  0.98010600  0.01189300  0.76584300  1
  H  1602  1  0.01224300  0.99447800  0.75498100  1
  H  1603  1  0.03207300  0.99547300  0.77248100  1
  H  1604  1  0.03490600  0.01171400  0.75243500  1
  H  1606  1  0.94569900  0.04898600  0.78167600  1
  H  1608  1  0.05535200  0.04882600  0.78224500  1
  H  1614  1  0.86891200  0.62403800  0.01915000  1
  H  1617  1  0.85187200  0.65629100  0.00819800  1
  H  1618  1  0.85415400  0.67654700  0.02523800  1
  H  1619  1  0.86951200  0.67843700  0.00461800  1
  H  1621  1  0.90884500  0.58990000  0.03519800  1
  H  1623  1  0.91078900  0.69797800  0.03264300  1
  H  1629  1  0.63170100  0.15965300  0.51921100  1
  H  1632  1  0.64876600  0.12730200  0.50849800  1
  H  1633  1  0.64645100  0.10722300  0.52568800  1
  H  1634  1  0.63114900  0.10510700  0.50505400  1
  H  1636  1  0.59181300  0.19396800  0.53504500  1
  H  1638  1  0.59004500  0.08575900  0.53261900  1
  H  1644  1  0.63143900  0.62453200  0.48157200  1
  H  1647  1  0.64864800  0.65682300  0.49221600  1
  H  1648  1  0.64664400  0.67671900  0.47485000  1
  H  1649  1  0.63123500  0.67922700  0.49539700  1
  H  1651  1  0.59112300  0.59047800  0.46537200  1
  H  1653  1  0.58974400  0.69838000  0.46728900  1
  H  1659  1  0.86918300  0.15912900  0.98145900  1
  H  1662  1  0.85190600  0.12690700  0.99216600  1
  H  1663  1  0.85396200  0.10692500  0.97487700  1
  H  1664  1  0.86928800  0.10450300  0.99547400  1
  H  1666  1  0.90926500  0.19321000  0.96564000  1
  H  1668  1  0.91081500  0.08515900  0.96749600  1
  H  1674  1  0.48036400  0.27416100  0.73303900  1
  H  1677  1  0.51335500  0.29044500  0.74345800  1
  H  1678  1  0.53307400  0.28891700  0.72589200  1
  H  1679  1  0.53524000  0.27217100  0.74569800  1
  H  1681  1  0.44536400  0.23590300  0.71939400  1
  H  1683  1  0.55341700  0.23337500  0.71683000  1
  H  1689  1  0.02014200  0.50957200  0.23349500  1
  H  1692  1  0.98713200  0.49356500  0.24417500  1
  H  1693  1  0.96736000  0.49484800  0.22664100  1
  H  1694  1  0.96531400  0.51194600  0.24623900  1
  H  1696  1  0.05532700  0.54673700  0.22011200  1
  H  1698  1  0.94733400  0.55071100  0.21639500  1
  H  1704  1  0.01968700  0.27398200  0.76739400  1
  H  1707  1  0.98676100  0.29032300  0.75693000  1
  H  1708  1  0.96710100  0.28903100  0.77455200  1
  H  1709  1  0.96476200  0.27216400  0.75483200  1
  H  1711  1  0.05489200  0.23742300  0.77980500  1
  H  1713  1  0.94669300  0.23309800  0.78426600  1
  H  1719  1  0.48112900  0.50976100  0.26677700  1
  H  1722  1  0.51410000  0.49377100  0.25602000  1
  H  1723  1  0.53385500  0.49478700  0.27357700  1
  H  1724  1  0.53597300  0.51211300  0.25412900  1
  H  1726  1  0.44568800  0.54456400  0.27892900  1
  H  1728  1  0.55388900  0.55075800  0.28451400  1
  C  1  1  0.21258100  0.34171800  0.88404900  1
  C  2  1  0.20861000  0.34613300  0.86574600  1
  C  3  1  0.19164000  0.33280500  0.85984400  1
  C  5  1  0.19830400  0.32541000  0.88966700  1
  C  6  1  0.19754900  0.31636000  0.90764700  1
  C  7  1  0.18435200  0.29859900  0.91298200  1
  C  9  1  0.16023800  0.27154400  0.91196100  1
  C  10  1  0.16914300  0.27198200  0.92963100  1
  C  11  1  0.18374400  0.28892100  0.93035400  1
  C  12  1  0.14398700  0.25712000  0.90556300  1
  C  13  1  0.13418900  0.25795400  0.88785100  1
  C  15  1  0.12497000  0.26785600  0.85901300  1
  C  16  1  0.11129900  0.25095600  0.86447300  1
  C  17  1  0.11705600  0.24477600  0.88206000  1
  C  18  1  0.12401300  0.27857700  0.84168800  1
  C  19  1  0.13839400  0.29516500  0.83587400  1
  C  21  1  0.16500700  0.31980100  0.83594000  1
  C  22  1  0.15509600  0.32035500  0.81866000  1
  C  23  1  0.13843700  0.30539300  0.81872400  1
  C  24  1  0.18249400  0.33300200  0.84188500  1
  C  25  1  0.19254400  0.34644100  0.82849200  1
  C  26  1  0.18550400  0.36793700  0.82529100  1
  C  27  1  0.19601800  0.38094600  0.81207100  1
  C  28  1  0.21372400  0.37257000  0.80201100  1
  C  29  1  0.22069700  0.35113300  0.80525500  1
  C  30  1  0.21027800  0.33817100  0.81842600  1
  C  31  1  0.10609700  0.27379900  0.83003200  1
  C  32  1  0.08613700  0.28436500  0.83323000  1
  C  33  1  0.06782500  0.27919500  0.82261800  1
  C  34  1  0.06906300  0.26350200  0.80854300  1
  C  35  1  0.08910600  0.25306900  0.80517800  1
  C  36  1  0.10749400  0.25817600  0.81585400  1
  C  37  1  0.13740300  0.24024400  0.91768100  1
  C  38  1  0.14691800  0.21952300  0.91597500  1
  C  39  1  0.14028600  0.20247000  0.92748600  1
  C  40  1  0.12406800  0.20574600  0.94088700  1
  C  41  1  0.11464200  0.22653700  0.94271500  1
  C  42  1  0.12127800  0.24367200  0.93119500  1
  C  43  1  0.20956500  0.32699700  0.92169600  1
  C  44  1  0.22965900  0.31889900  0.92804100  1
  C  45  1  0.20094300  0.34600200  0.92969100  1
  C  46  1  0.21213200  0.35664000  0.94387800  1
  C  47  1  0.23212600  0.34856700  0.95032400  1
  C  48  1  0.24085300  0.32959000  0.94230200  1
  C  79  1  0.28803400  0.44190900  0.38398400  1
  C  80  1  0.29202600  0.43751400  0.36568100  1
  C  81  1  0.30903500  0.45081700  0.35981500  1
  C  83  1  0.30230800  0.45820500  0.38962600  1
  C  84  1  0.30303600  0.46724200  0.40761200  1
  C  85  1  0.31621200  0.48500900  0.41296500  1
  C  87  1  0.34032300  0.51206200  0.41198400  1
  C  88  1  0.33140300  0.51160400  0.42964900  1
  C  89  1  0.31679900  0.49466700  0.43034500  1
  C  90  1  0.35659900  0.52647600  0.40561800  1
  C  91  1  0.36640700  0.52567500  0.38791000  1
  C  93  1  0.37565000  0.51582100  0.35906700  1
  C  94  1  0.38937600  0.53264900  0.36458400  1
  C  95  1  0.38359400  0.53881200  0.38216900  1
  C  96  1  0.37659800  0.50515100  0.34172000  1
  C  97  1  0.36226000  0.48853400  0.33589300  1
  C  99  1  0.33570300  0.46383800  0.33594200  1
  C  100  1  0.34563600  0.46330300  0.31867100  1
  C  101  1  0.36223100  0.47833400  0.31873000  1
  C  102  1  0.31822600  0.45061600  0.34187100  1
  C  103  1  0.30817700  0.43720500  0.32845700  1
  C  104  1  0.31518200  0.41569800  0.32526200  1
  C  105  1  0.30465800  0.40270500  0.31203800  1
  C  106  1  0.28696300  0.41110500  0.30197500  1
  C  107  1  0.28002900  0.43255600  0.30520900  1
  C  108  1  0.29046400  0.44550300  0.31838200  1
  C  109  1  0.39457200  0.50989000  0.33011100  1
  C  110  1  0.41451300  0.49932200  0.33339200  1
  C  111  1  0.43290000  0.50453200  0.32288600  1
  C  112  1  0.43173900  0.52021400  0.30879800  1
  C  113  1  0.41172400  0.53066600  0.30536200  1
  C  114  1  0.39327000  0.52554800  0.31595300  1
  C  115  1  0.36320200  0.54331000  0.41776700  1
  C  116  1  0.35375000  0.56405900  0.41606000  1
  C  117  1  0.36041000  0.58107800  0.42759000  1
  C  118  1  0.37660200  0.57774500  0.44100300  1
  C  119  1  0.38595500  0.55692400  0.44284400  1
  C  120  1  0.37928700  0.53981800  0.43130600  1
  C  121  1  0.29101100  0.45658900  0.42164800  1
  C  122  1  0.27092400  0.46469700  0.42800300  1
  C  123  1  0.29963800  0.43758700  0.42964200  1
  C  124  1  0.28846300  0.42696200  0.44384600  1
  C  125  1  0.26848800  0.43505500  0.45031500  1
  C  126  1  0.25975500  0.45402600  0.44228900  1
  C  157  1  0.80056500  0.85501600  0.13432400  1
  C  158  1  0.79598900  0.85111100  0.11604000  1
  C  159  1  0.80902000  0.83393300  0.11009500  1
  C  161  1  0.81669300  0.84049900  0.13987100  1
  C  162  1  0.82578600  0.83956400  0.15782700  1
  C  163  1  0.84346100  0.82621500  0.16307400  1
  C  165  1  0.87048800  0.80209100  0.16186800  1
  C  166  1  0.86991600  0.81065600  0.17966000  1
  C  167  1  0.85302200  0.82529300  0.18048100  1
  C  168  1  0.88494400  0.78594100  0.15534100  1
  C  169  1  0.88429300  0.77653400  0.13747400  1
  C  171  1  0.87454500  0.76780600  0.10849600  1
  C  172  1  0.89139800  0.75402500  0.11386100  1
  C  173  1  0.89749100  0.75949000  0.13153500  1
  C  174  1  0.86379700  0.76705200  0.09118100  1
  C  175  1  0.84688400  0.78119500  0.08562300  1
  C  177  1  0.82183900  0.80741400  0.08604600  1
  C  178  1  0.82124500  0.79763600  0.06871300  1
  C  179  1  0.83655000  0.78129600  0.06851900  1
  C  180  1  0.80857900  0.82478200  0.09214100  1
  C  181  1  0.79503200  0.83487900  0.07884600  1
  C  182  1  0.77350100  0.82787300  0.07577800  1
  C  183  1  0.76043900  0.83832100  0.06255800  1
  C  184  1  0.76879800  0.85592600  0.05235500  1
  C  185  1  0.79025600  0.86289400  0.05549400  1
  C  186  1  0.80327000  0.85253800  0.06866500  1
  C  187  1  0.86890500  0.74952200  0.07922100  1
  C  188  1  0.85734300  0.72987100  0.08100200  1
  C  189  1  0.86284100  0.71186700  0.07013100  1
  C  190  1  0.87998400  0.71308400  0.05732900  1
  C  191  1  0.89142600  0.73282500  0.05537600  1
  C  192  1  0.88591700  0.75093100  0.06624800  1
  C  193  1  0.90149900  0.77887900  0.16758200  1
  C  194  1  0.92238500  0.78812000  0.16633400  1
  C  195  1  0.93898100  0.78126400  0.17822500  1
  C  196  1  0.93506000  0.76512200  0.19157100  1
  C  197  1  0.91413000  0.75590400  0.19288500  1
  C  198  1  0.89746500  0.76274300  0.18096900  1
  C  199  1  0.81525800  0.85156700  0.17193800  1
  C  200  1  0.82352500  0.87156600  0.17834800  1
  C  201  1  0.79616700  0.84307400  0.17987600  1
  C  202  1  0.78559300  0.85431400  0.19406700  1
  C  203  1  0.79381100  0.87423100  0.20055500  1
  C  204  1  0.81289200  0.88281200  0.19260700  1
  C  235  1  0.70003800  0.92856000  0.63440000  1
  C  236  1  0.70459900  0.93238900  0.61610200  1
  C  237  1  0.69161800  0.94959600  0.61013300  1
  C  239  1  0.68395100  0.94313400  0.63992500  1
  C  240  1  0.67488400  0.94414900  0.65788600  1
  C  241  1  0.65719500  0.95750000  0.66309800  1
  C  243  1  0.63013100  0.98157500  0.66182700  1
  C  244  1  0.63070700  0.97306300  0.67963700  1
  C  245  1  0.64762900  0.95846300  0.68050000  1
  C  246  1  0.61564000  0.99767000  0.65525200  1
  C  247  1  0.61629100  0.00700500  0.63735900  1
  C  249  1  0.62603500  0.01563600  0.60835900  1
  C  250  1  0.60921200  0.02946400  0.61370900  1
  C  251  1  0.60309200  0.02403300  0.63138300  1
  C  252  1  0.63680400  0.01636000  0.59105200  1
  C  253  1  0.65373800  0.00222400  0.58553200  1
  C  255  1  0.67882100  0.97604700  0.58602600  1
  C  256  1  0.67943500  0.98579400  0.56868100  1
  C  257  1  0.66411300  0.00211700  0.56844700  1
  C  258  1  0.69208700  0.95870100  0.59216400  1
  C  259  1  0.70568200  0.94860900  0.57890500  1
  C  260  1  0.72719300  0.95568200  0.57583300  1
  C  261  1  0.74028900  0.94526200  0.56262100  1
  C  262  1  0.73199400  0.92760800  0.55244000  1
  C  263  1  0.71055400  0.92058400  0.55557700  1
  C  264  1  0.69750500  0.93091000  0.56873900  1
  C  265  1  0.63178200  0.03394100  0.57911800  1
  C  266  1  0.64338700  0.05355600  0.58097300  1
  C  267  1  0.63784200  0.07167400  0.57025500  1
  C  268  1  0.62062500  0.07059800  0.55751700  1
  C  269  1  0.60917500  0.05087600  0.55545300  1
  C  270  1  0.61470500  0.03267100  0.56619800  1
  C  271  1  0.59908900  0.00477700  0.66748100  1
  C  272  1  0.57814900  0.99567200  0.66615000  1
  C  273  1  0.56156700  0.00253800  0.67805000  1
  C  274  1  0.56555400  0.01855300  0.69149400  1
  C  275  1  0.58653100  0.02764300  0.69288300  1
  C  276  1  0.60318200  0.02080100  0.68095200  1
  C  277  1  0.68538500  0.93214500  0.67201100  1
  C  278  1  0.67708600  0.91216300  0.67843100  1
  C  279  1  0.70449900  0.94060600  0.67993500  1
  C  280  1  0.71507000  0.92934700  0.69411900  1
  C  281  1  0.70681600  0.90945000  0.70061700  1
  C  282  1  0.68771500  0.90089600  0.69268200  1
  C  313  1  0.28927200  0.34230500  0.61500200  1
  C  314  1  0.29316700  0.34705700  0.63325200  1
  C  315  1  0.30842700  0.33225200  0.63991700  1
  C  317  1  0.30184500  0.32431400  0.61019100  1
  C  318  1  0.30215600  0.31448200  0.59249600  1
  C  319  1  0.31507800  0.29639900  0.58751800  1
  C  321  1  0.33980800  0.26994800  0.58864800  1
  C  322  1  0.32995300  0.26921800  0.57134500  1
  C  323  1  0.31490200  0.28575800  0.57055500  1
  C  324  1  0.35683900  0.25637700  0.59492400  1
  C  325  1  0.36707300  0.25804100  0.61241000  1
  C  327  1  0.37601500  0.26832500  0.64121100  1
  C  328  1  0.39061500  0.25231000  0.63556100  1
  C  329  1  0.38503400  0.24589000  0.61799500  1
  C  330  1  0.37625600  0.27868800  0.65870900  1
  C  331  1  0.36119000  0.29464400  0.66455000  1
  C  333  1  0.33415600  0.31882100  0.66431600  1
  C  334  1  0.34330200  0.31885900  0.68190300  1
  C  335  1  0.36022500  0.30419900  0.68195400  1
  C  336  1  0.31701000  0.33227800  0.65806900  1
  C  337  1  0.30718400  0.34637300  0.67110800  1
  C  338  1  0.31643100  0.36666600  0.67565400  1
  C  339  1  0.30653100  0.38009900  0.68890000  1
  C  340  1  0.28719400  0.37341200  0.69762600  1
  C  341  1  0.27791000  0.35326200  0.69292800  1
  C  342  1  0.28774300  0.33986600  0.67973700  1
  C  343  1  0.39401300  0.27416300  0.67061900  1
  C  344  1  0.41374400  0.28536000  0.66800000  1
  C  345  1  0.43194000  0.28037700  0.67882800  1
  C  346  1  0.43081800  0.26423000  0.69253900  1
  C  347  1  0.41098400  0.25317700  0.69533000  1
  C  348  1  0.39271900  0.25809600  0.68444200  1
  C  349  1  0.36372900  0.23946500  0.58297400  1
  C  350  1  0.35504300  0.21845800  0.58524300  1
  C  351  1  0.36170600  0.20146000  0.57369600  1
  C  352  1  0.37717200  0.20506200  0.55973000  1
  C  353  1  0.38582700  0.22611300  0.55737800  1
  C  354  1  0.37912200  0.24320800  0.56891300  1
  C  355  1  0.29089400  0.32524200  0.57808300  1
  C  356  1  0.26899000  0.32062300  0.57392800  1
  C  357  1  0.30177800  0.34167700  0.56820500  1
  C  358  1  0.29092300  0.35337500  0.55444800  1
  C  359  1  0.26901700  0.34897900  0.55035400  1
  C  360  1  0.25810900  0.33241300  0.56010800  1
  C  391  1  0.21132600  0.44134900  0.11499300  1
  C  392  1  0.20745500  0.43660900  0.13325000  1
  C  393  1  0.19214900  0.45137100  0.13990300  1
  C  395  1  0.19872900  0.45932400  0.11018000  1
  C  396  1  0.19840700  0.46915300  0.09248300  1
  C  397  1  0.18551800  0.48726800  0.08751800  1
  C  399  1  0.16084200  0.51376900  0.08867000  1
  C  400  1  0.17066800  0.51447300  0.07135600  1
  C  401  1  0.18568000  0.49789800  0.07055000  1
  C  402  1  0.14383100  0.52735800  0.09495600  1
  C  403  1  0.13361100  0.52570700  0.11244800  1
  C  405  1  0.12464200  0.51539000  0.14123400  1
  C  406  1  0.11006300  0.53143000  0.13559700  1
  C  407  1  0.11566200  0.53787100  0.11804000  1
  C  408  1  0.12438100  0.50500300  0.15872100  1
  C  409  1  0.13938700  0.48898000  0.16454100  1
  C  411  1  0.16636400  0.46474200  0.16428500  1
  C  412  1  0.15720000  0.46468300  0.18186600  1
  C  413  1  0.14033500  0.47940900  0.18194000  1
  C  414  1  0.18353700  0.45131100  0.15804700  1
  C  415  1  0.19337600  0.43723300  0.17109300  1
  C  416  1  0.18415100  0.41693400  0.17564600  1
  C  417  1  0.19405100  0.40353000  0.18891500  1
  C  418  1  0.21338700  0.41023500  0.19763400  1
  C  419  1  0.22264400  0.43039600  0.19293300  1
  C  420  1  0.21280800  0.44376600  0.17972300  1
  C  421  1  0.10658700  0.50948900  0.17060200  1
  C  422  1  0.08686300  0.49829600  0.16791300  1
  C  423  1  0.06860500  0.50331200  0.17865300  1
  C  424  1  0.06967000  0.51945300  0.19237300  1
  C  425  1  0.08948400  0.53052000  0.19521800  1
  C  426  1  0.10780500  0.52558500  0.18440500  1
  C  427  1  0.13695400  0.54428900  0.08301600  1
  C  428  1  0.14565000  0.56528900  0.08530200  1
  C  429  1  0.13898700  0.58230800  0.07377400  1
  C  430  1  0.12350100  0.57873300  0.05981800  1
  C  431  1  0.11483800  0.55769100  0.05745000  1
  C  432  1  0.12154500  0.54057400  0.06896400  1
  C  433  1  0.20966500  0.45839400  0.07806900  1
  C  434  1  0.23156300  0.46303100  0.07390000  1
  C  435  1  0.19879100  0.44194000  0.06820600  1
  C  436  1  0.20965100  0.43023900  0.05445400  1
  C  437  1  0.23155000  0.43464700  0.05035000  1
  C  438  1  0.24244900  0.45123100  0.06009100  1
  C  469  1  0.70090800  0.85374400  0.36450000  1
  C  470  1  0.70582300  0.84999400  0.38274000  1
  C  471  1  0.69118400  0.83466600  0.38954800  1
  C  473  1  0.68294600  0.84104400  0.35984800  1
  C  474  1  0.67297700  0.84054800  0.34221200  1
  C  475  1  0.65493800  0.82749200  0.33736800  1
  C  477  1  0.62850900  0.80276000  0.33876800  1
  C  478  1  0.62788200  0.81223200  0.32130900  1
  C  479  1  0.64437700  0.82731600  0.32036900  1
  C  480  1  0.61492000  0.78584400  0.34523600  1
  C  481  1  0.61641200  0.77606000  0.36291600  1
  C  483  1  0.62653400  0.76773300  0.39188200  1
  C  484  1  0.61057300  0.75299400  0.38638500  1
  C  485  1  0.60425200  0.75819700  0.36871400  1
  C  486  1  0.63694300  0.76775900  0.40935700  1
  C  487  1  0.65324200  0.78261300  0.41489300  1
  C  489  1  0.67786100  0.80922600  0.41420500  1
  C  490  1  0.67790500  0.80034600  0.43189400  1
  C  491  1  0.66288200  0.78375300  0.43225700  1
  C  492  1  0.69140600  0.82619000  0.40773600  1
  C  493  1  0.70567400  0.83603900  0.42062700  1
  C  494  1  0.72593600  0.82669000  0.42510900  1
  C  495  1  0.73942900  0.83646800  0.43837800  1
  C  496  1  0.73282600  0.85577500  0.44720700  1
  C  497  1  0.71273000  0.86518700  0.44253900  1
  C  498  1  0.69927900  0.85548300  0.42931600  1
  C  499  1  0.63214000  0.75037800  0.42156900  1
  C  500  1  0.64435900  0.73106900  0.42035000  1
  C  501  1  0.63888700  0.71301200  0.43117400  1
  C  502  1  0.62112500  0.71383900  0.44337800  1
  C  503  1  0.60907900  0.73328400  0.44483100  1
  C  504  1  0.61454600  0.75142900  0.43399400  1
  C  505  1  0.59829100  0.77847000  0.33320800  1
  C  506  1  0.57709500  0.78679100  0.33515400  1
  C  507  1  0.56042800  0.77968600  0.32344900  1
  C  508  1  0.56458500  0.76420700  0.30959900  1
  C  509  1  0.58580600  0.75587600  0.30760600  1
  C  510  1  0.60255100  0.76297100  0.31933600  1
  C  511  1  0.68359300  0.85176500  0.32770200  1
  C  512  1  0.67894600  0.87368000  0.32359200  1
  C  513  1  0.69998600  0.84089500  0.31776400  1
  C  514  1  0.71165500  0.85180000  0.30402000  1
  C  515  1  0.70725900  0.87372700  0.29999900  1
  C  516  1  0.69070700  0.88460700  0.30978800  1
  C  547  1  0.79964100  0.93004200  0.86446700  1
  C  548  1  0.79473700  0.93377300  0.88271300  1
  C  549  1  0.80942900  0.94904000  0.88954000  1
  C  551  1  0.81764800  0.94268800  0.85983300  1
  C  552  1  0.82763600  0.94316500  0.84220300  1
  C  553  1  0.84571300  0.95617400  0.83738300  1
  C  555  1  0.87215300  0.98089300  0.83878900  1
  C  556  1  0.87283300  0.97136300  0.82135400  1
  C  557  1  0.85632300  0.95629800  0.82040700  1
  C  558  1  0.88574200  0.99780900  0.84525500  1
  C  559  1  0.88421500  0.00762200  0.86292000  1
  C  561  1  0.87410100  0.01593400  0.89189100  1
  C  562  1  0.88998800  0.03074100  0.88636200  1
  C  563  1  0.89631800  0.02553200  0.86869500  1
  C  564  1  0.86373700  0.01586400  0.90938600  1
  C  565  1  0.84745500  0.00099700  0.91492500  1
  C  567  1  0.82282300  0.97439700  0.91422800  1
  C  568  1  0.82282100  0.98322900  0.93193200  1
  C  569  1  0.83784400  0.99982400  0.93229700  1
  C  570  1  0.80924500  0.95746700  0.90774400  1
  C  571  1  0.79496100  0.94761800  0.92062600  1
  C  572  1  0.77474400  0.95702700  0.92516300  1
  C  573  1  0.76123200  0.94724000  0.93841300  1
  C  574  1  0.76775500  0.92785200  0.94715600  1
  C  575  1  0.78782400  0.91840200  0.94245200  1
  C  576  1  0.80129000  0.92810700  0.92924300  1
  C  577  1  0.86853900  0.03324000  0.92160300  1
  C  578  1  0.85628400  0.05253300  0.92043000  1
  C  579  1  0.86176400  0.07058300  0.93125900  1
  C  580  1  0.87954300  0.06975500  0.94344700  1
  C  581  1  0.89160900  0.05032200  0.94486700  1
  C  582  1  0.88616700  0.03220000  0.93399400  1
  C  583  1  0.90236400  0.00519500  0.83322500  1
  C  584  1  0.92358400  0.99695400  0.83521200  1
  C  585  1  0.94023400  0.00404500  0.82348400  1
  C  586  1  0.93603600  0.01943300  0.80957100  1
  C  587  1  0.91479100  0.02768800  0.80753800  1
  C  588  1  0.89806300  0.02060500  0.81928900  1
  C  589  1  0.81704000  0.93192400  0.82769600  1
  C  590  1  0.82168000  0.91000000  0.82361900  1
  C  591  1  0.80065900  0.94277900  0.81773600  1
  C  592  1  0.78900800  0.93186100  0.80398900  1
  C  593  1  0.79339400  0.90992200  0.80000300  1
  C  594  1  0.80993100  0.89905400  0.80981700  1
  C  625  1  0.78763100  0.44244700  0.11667800  1
  C  626  1  0.79164800  0.43804500  0.13497700  1
  C  627  1  0.80891000  0.45107800  0.14074400  1
  C  629  1  0.80217200  0.45845600  0.11093500  1
  C  630  1  0.80302200  0.46735400  0.09290500  1
  C  631  1  0.81630600  0.48502300  0.08751000  1
  C  633  1  0.84034600  0.51214100  0.08851000  1
  C  634  1  0.83168300  0.51145200  0.07075900  1
  C  635  1  0.81712600  0.49447400  0.07005400  1
  C  636  1  0.85645000  0.52671300  0.09493100  1
  C  637  1  0.86615700  0.52603800  0.11268200  1
  C  639  1  0.87548200  0.51614200  0.14149200  1
  C  640  1  0.88892700  0.53325000  0.13610000  1
  C  641  1  0.88308100  0.53944400  0.11853600  1
  C  642  1  0.87662100  0.50527000  0.15873800  1
  C  643  1  0.86241100  0.48851200  0.16450500  1
  C  645  1  0.83583300  0.46384000  0.16450000  1
  C  646  1  0.84593100  0.46315300  0.18169700  1
  C  647  1  0.86255700  0.47815400  0.18159900  1
  C  648  1  0.81822200  0.45075300  0.15864100  1
  C  649  1  0.80819300  0.43736100  0.17207800  1
  C  650  1  0.81498300  0.41574600  0.17509400  1
  C  651  1  0.80445800  0.40276800  0.18832700  1
  C  652  1  0.78698400  0.41129100  0.19859100  1
  C  653  1  0.78026100  0.43284500  0.19553400  1
  C  654  1  0.79069400  0.44578000  0.18235200  1
  C  655  1  0.89454900  0.51009800  0.17035800  1
  C  656  1  0.91412200  0.49857700  0.16790700  1
  C  657  1  0.93241700  0.50361400  0.17859100  1
  C  658  1  0.93159000  0.52025200  0.19188700  1
  C  659  1  0.91192400  0.53165900  0.19449400  1
  C  660  1  0.89352900  0.52661400  0.18381100  1
  C  661  1  0.86300900  0.54354700  0.08276600  1
  C  662  1  0.85305400  0.56409900  0.08408100  1
  C  663  1  0.85969000  0.58112500  0.07254400  1
  C  664  1  0.87634000  0.57798700  0.05950500  1
  C  665  1  0.88619600  0.55735400  0.05806300  1
  C  666  1  0.87956100  0.54024500  0.06960800  1
  C  667  1  0.79094700  0.45668900  0.07890700  1
  C  668  1  0.77100700  0.46497700  0.07239100  1
  C  669  1  0.79936800  0.43747400  0.07112300  1
  C  670  1  0.78814200  0.42682300  0.05696400  1
  C  671  1  0.76830300  0.43508300  0.05034800  1
  C  672  1  0.75977200  0.45426700  0.05816400  1
  C  703  1  0.71310400  0.34122000  0.61670700  1
  C  704  1  0.70909700  0.34560500  0.63501100  1
  C  705  1  0.69180000  0.33260900  0.64076300  1
  C  707  1  0.69854600  0.32523000  0.61095800  1
  C  708  1  0.69768500  0.31635100  0.59292300  1
  C  709  1  0.68440100  0.29868400  0.58752500  1
  C  711  1  0.66037400  0.27156000  0.58852300  1
  C  712  1  0.66900000  0.27228400  0.57076000  1
  C  713  1  0.68355400  0.28926300  0.57005800  1
  C  714  1  0.64427400  0.25698200  0.59494300  1
  C  715  1  0.63461300  0.25761000  0.61271200  1
  C  717  1  0.62532000  0.26745900  0.64154100  1
  C  718  1  0.61181700  0.25041100  0.63611500  1
  C  719  1  0.61765900  0.24422700  0.61854700  1
  C  720  1  0.62420100  0.27829700  0.65880100  1
  C  721  1  0.63838200  0.29508300  0.66456200  1
  C  723  1  0.66489500  0.31982300  0.66452800  1
  C  724  1  0.65479900  0.32050200  0.68172600  1
  C  725  1  0.63823700  0.30543200  0.68165800  1
  C  726  1  0.68247400  0.33294400  0.65865400  1
  C  727  1  0.69250900  0.34632700  0.67209500  1
  C  728  1  0.68574500  0.36795300  0.67508700  1
  C  729  1  0.69626700  0.38092800  0.68832500  1
  C  730  1  0.71372400  0.37239300  0.69860400  1
  C  731  1  0.72041800  0.35082600  0.69557200  1
  C  732  1  0.70998100  0.33789200  0.68238900  1
  C  733  1  0.60623000  0.27351100  0.67039100  1
  C  734  1  0.58665100  0.28498900  0.66782500  1
  C  735  1  0.56827000  0.27988600  0.67838000  1
  C  736  1  0.56902300  0.26324500  0.69167900  1
  C  737  1  0.58869400  0.25188700  0.69440500  1
  C  738  1  0.60717100  0.25698700  0.68384000  1
  C  739  1  0.63767600  0.24019000  0.58275500  1
  C  740  1  0.64758400  0.21961300  0.58405200  1
  C  741  1  0.64091600  0.20262100  0.57249600  1
  C  742  1  0.62426700  0.20581500  0.55946400  1
  C  743  1  0.61446600  0.22647400  0.55803000  1
  C  744  1  0.62114100  0.24355200  0.56959300  1
  C  745  1  0.70975900  0.32701800  0.57892500  1
  C  746  1  0.72968500  0.31871300  0.57239100  1
  C  747  1  0.70134300  0.34623900  0.57114700  1
  C  748  1  0.71255800  0.35687700  0.55697300  1
  C  749  1  0.73237200  0.34858900  0.55032900  1
  C  750  1  0.74090000  0.32940100  0.55814100  1
  C  781  1  0.19971200  0.92829800  0.86649600  1
  C  782  1  0.20426200  0.93214300  0.88479400  1
  C  783  1  0.19154900  0.94959400  0.89066400  1
  C  785  1  0.18391800  0.94313400  0.86086700  1
  C  786  1  0.17505600  0.94432600  0.84284100  1
  C  787  1  0.15757900  0.95791100  0.83754700  1
  C  789  1  0.13059500  0.98207000  0.83879400  1
  C  790  1  0.13149000  0.97394200  0.82086800  1
  C  791  1  0.14835300  0.95926600  0.82003000  1
  C  792  1  0.11595400  0.99798500  0.84543600  1
  C  793  1  0.11636100  0.00708700  0.86341800  1
  C  795  1  0.12607000  0.01572200  0.89242000  1
  C  796  1  0.10871600  0.02900400  0.88731100  1
  C  797  1  0.10263900  0.02357900  0.86962200  1
  C  798  1  0.13702100  0.01664900  0.90963400  1
  C  799  1  0.15407400  0.00262600  0.91510300  1
  C  801  1  0.17907200  0.97636400  0.91464300  1
  C  802  1  0.17994600  0.98636000  0.93187700  1
  C  803  1  0.16467600  0.00273400  0.93208800  1
  C  804  1  0.19216800  0.95885800  0.90857300  1
  C  805  1  0.20573300  0.94876700  0.92185600  1
  C  806  1  0.22734200  0.95562900  0.92476100  1
  C  807  1  0.24042800  0.94518000  0.93796300  1
  C  808  1  0.23201700  0.92771100  0.94830400  1
  C  809  1  0.21048400  0.92088300  0.94532400  1
  C  810  1  0.19744000  0.93124700  0.93217700  1
  C  811  1  0.13190500  0.03420600  0.92156100  1
  C  812  1  0.14310300  0.05401700  0.91942600  1
  C  813  1  0.13757100  0.07205900  0.93023700  1
  C  814  1  0.12073300  0.07072800  0.94331800  1
  C  815  1  0.10965800  0.05083100  0.94562800  1
  C  816  1  0.11521600  0.03268100  0.93482400  1
  C  817  1  0.09933900  0.00496900  0.83323300  1
  C  818  1  0.07881900  0.99486700  0.83391300  1
  C  819  1  0.06212400  0.00168900  0.82211000  1
  C  820  1  0.06560600  0.01861600  0.80939200  1
  C  821  1  0.08617500  0.02869000  0.80864000  1
  C  822  1  0.10292800  0.02191300  0.82049200  1
  C  823  1  0.18558300  0.93229200  0.82874900  1
  C  824  1  0.17707000  0.91249900  0.82211300  1
  C  825  1  0.20491100  0.94054900  0.82104700  1
  C  826  1  0.21546900  0.92929100  0.80685700  1
  C  827  1  0.20700700  0.90957500  0.80014900  1
  C  828  1  0.18769400  0.90122600  0.80786500  1
  C  859  1  0.30101900  0.85546400  0.36644200  1
  C  860  1  0.29648400  0.85168600  0.38475200  1
  C  861  1  0.30911700  0.83417900  0.39063200  1
  C  863  1  0.31673200  0.84053900  0.36082000  1
  C  864  1  0.32553100  0.83924100  0.34277800  1
  C  865  1  0.34299700  0.82563300  0.33750700  1
  C  867  1  0.37002600  0.80153200  0.33881400  1
  C  868  1  0.36906400  0.80954200  0.32085100  1
  C  869  1  0.35217200  0.82418000  0.31997700  1
  C  870  1  0.38473400  0.78570800  0.34550800  1
  C  871  1  0.38438400  0.77672200  0.36353400  1
  C  873  1  0.37471700  0.76820700  0.39256900  1
  C  874  1  0.39210200  0.75494300  0.38749500  1
  C  875  1  0.39818300  0.76032700  0.36980000  1
  C  876  1  0.36373400  0.76729000  0.40976800  1
  C  877  1  0.34661800  0.78125900  0.41518700  1
  C  879  1  0.32155200  0.80745200  0.41465300  1
  C  880  1  0.32064200  0.79746100  0.43188900  1
  C  881  1  0.33594800  0.78112100  0.43214000  1
  C  882  1  0.30845300  0.82493800  0.40854800  1
  C  883  1  0.29484600  0.83502700  0.42179900  1
  C  884  1  0.27325100  0.82811600  0.42470000  1
  C  885  1  0.26013400  0.83854300  0.43789200  1
  C  886  1  0.26849200  0.85604900  0.44821700  1
  C  887  1  0.29001500  0.86291600  0.44525000  1
  C  888  1  0.30309000  0.85257500  0.43211400  1
  C  889  1  0.36875600  0.74966200  0.42165300  1
  C  890  1  0.35753200  0.72988300  0.41940300  1
  C  891  1  0.36309400  0.71172300  0.43006100  1
  C  892  1  0.37997100  0.71290800  0.44311400  1
  C  893  1  0.39103400  0.73278900  0.44557300  1
  C  894  1  0.38547200  0.75104600  0.43490100  1
  C  895  1  0.40133100  0.77868000  0.33333333  1
  C  896  1  0.42183900  0.78881200  0.33391500  1
  C  897  1  0.43850100  0.78198900  0.32208100  1
  C  898  1  0.43500000  0.76503100  0.30939700  1
  C  899  1  0.41444300  0.75492200  0.30871700  1
  C  900  1  0.39772400  0.76169800  0.32060300  1
  C  901  1  0.31503100  0.85129100  0.32868300  1
  C  902  1  0.32360600  0.87104900  0.32202600  1
  C  903  1  0.29565700  0.84310300  0.32101500  1
  C  904  1  0.28510500  0.85440100  0.30684300  1
  C  905  1  0.29363000  0.87407600  0.30011300  1
  C  906  1  0.31298800  0.88236200  0.30779600  1
  C  937  1  0.71180200  0.44168000  0.38551200  1
  C  938  1  0.70790200  0.43697400  0.36725400  1
  C  939  1  0.69239000  0.45158200  0.36069300  1
  C  941  1  0.69897700  0.45944900  0.39043400  1
  C  942  1  0.69854100  0.46913500  0.40818600  1
  C  943  1  0.68556200  0.48715700  0.41322400  1
  C  945  1  0.66093800  0.51370800  0.41210300  1
  C  946  1  0.67055400  0.51417500  0.42950600  1
  C  947  1  0.68554100  0.49757500  0.43028800  1
  C  948  1  0.64405100  0.52743400  0.40579100  1
  C  949  1  0.63391900  0.52595700  0.38825000  1
  C  951  1  0.62494700  0.51574300  0.35944000  1
  C  952  1  0.61048900  0.53190200  0.36505300  1
  C  953  1  0.61611200  0.53830400  0.38261500  1
  C  954  1  0.62459200  0.50527600  0.34199100  1
  C  955  1  0.63949900  0.48915000  0.33619000  1
  C  957  1  0.66645900  0.46489300  0.33639100  1
  C  958  1  0.65719000  0.46478000  0.31885000  1
  C  959  1  0.64032600  0.47950800  0.31881400  1
  C  960  1  0.68368400  0.45149700  0.34258200  1
  C  961  1  0.69349500  0.43744700  0.32950200  1
  C  962  1  0.68441200  0.41703200  0.32511900  1
  C  963  1  0.69430700  0.40362500  0.31185100  1
  C  964  1  0.71347400  0.41046100  0.30294000  1
  C  965  1  0.72259200  0.43073900  0.30747300  1
  C  966  1  0.71276200  0.44411100  0.32068300  1
  C  967  1  0.60682900  0.50984000  0.33010900  1
  C  968  1  0.58757200  0.49764100  0.33193100  1
  C  969  1  0.56932400  0.50259200  0.32115500  1
  C  970  1  0.56989000  0.51979400  0.30837300  1
  C  971  1  0.58927200  0.53183800  0.30635400  1
  C  972  1  0.60760700  0.52690300  0.31714500  1
  C  973  1  0.63717300  0.54428700  0.41780000  1
  C  974  1  0.64638200  0.56512900  0.41599200  1
  C  975  1  0.63971400  0.58207400  0.42759300  1
  C  976  1  0.62372700  0.57857600  0.44115000  1
  C  977  1  0.61456200  0.55767900  0.44304900  1
  C  978  1  0.62127500  0.54063400  0.43146400  1
  C  979  1  0.70981100  0.45831300  0.42255700  1
  C  980  1  0.73161200  0.46316600  0.42690800  1
  C  981  1  0.69904000  0.44162700  0.43222000  1
  C  982  1  0.70990800  0.42991500  0.44596100  1
  C  983  1  0.73171400  0.43454400  0.45024800  1
  C  984  1  0.74250600  0.45135800  0.44070700  1
  C  1015  1  0.78882000  0.34199700  0.88555500  1
  C  1016  1  0.79267100  0.34669800  0.86728700  1
  C  1017  1  0.80821200  0.33212900  0.86071700  1
  C  1019  1  0.80166300  0.32423400  0.89046100  1
  C  1020  1  0.80214000  0.31454700  0.90821100  1
  C  1021  1  0.81510400  0.29650300  0.91322300  1
  C  1023  1  0.83967100  0.26990100  0.91204600  1
  C  1024  1  0.83013000  0.26947100  0.92948100  1
  C  1025  1  0.81518000  0.28610300  0.93029500  1
  C  1026  1  0.85651000  0.25614200  0.90569700  1
  C  1027  1  0.86657500  0.25758700  0.88812500  1
  C  1029  1  0.87551000  0.26782000  0.85931200  1
  C  1030  1  0.88995200  0.25162900  0.86489400  1
  C  1031  1  0.88434600  0.24521100  0.88245500  1
  C  1032  1  0.87587200  0.27832200  0.84187800  1
  C  1033  1  0.86101300  0.29451200  0.83611700  1
  C  1035  1  0.83412900  0.31885400  0.83638700  1
  C  1036  1  0.84338600  0.31898900  0.81884100  1
  C  1037  1  0.86018300  0.30418300  0.81875500  1
  C  1038  1  0.81691900  0.33224900  0.84260500  1
  C  1039  1  0.80710200  0.34631900  0.82954200  1
  C  1040  1  0.81620500  0.36672400  0.82515600  1
  C  1041  1  0.80633000  0.38013200  0.81187700  1
  C  1042  1  0.78714300  0.37332500  0.80298100  1
  C  1043  1  0.77800700  0.35305500  0.80751700  1
  C  1044  1  0.78781900  0.33967800  0.82073100  1
  C  1045  1  0.89366400  0.27380500  0.83001100  1
  C  1046  1  0.91293500  0.28596000  0.83194300  1
  C  1047  1  0.93126700  0.28094300  0.82129300  1
  C  1048  1  0.93076700  0.26373400  0.80851600  1
  C  1049  1  0.91137200  0.25173900  0.80638500  1
  C  1050  1  0.89295500  0.25673400  0.81705600  1
  C  1051  1  0.86341300  0.23928700  0.91769400  1
  C  1052  1  0.85423500  0.21843100  0.91586700  1
  C  1053  1  0.86096900  0.20146600  0.92741800  1
  C  1054  1  0.87699400  0.20495500  0.94094500  1
  C  1055  1  0.88612300  0.22586200  0.94286900  1
  C  1056  1  0.87934500  0.24292900  0.93133200  1
  C  1057  1  0.79087900  0.32535400  0.92259500  1
  C  1058  1  0.76908000  0.32049500  0.92694800  1
  C  1059  1  0.80164700  0.34204000  0.93225700  1
  C  1060  1  0.79077900  0.35374800  0.94600000  1
  C  1061  1  0.76897100  0.34911900  0.95028400  1
  C  1062  1  0.75818100  0.33230500  0.94074100  1
  C  1093  1  0.30005800  0.92952800  0.63584300  1
  C  1094  1  0.29515900  0.93324300  0.61759400  1
  C  1095  1  0.30953700  0.94886600  0.61086700  1
  C  1097  1  0.31775200  0.94255100  0.64058600  1
  C  1098  1  0.32752900  0.94329200  0.65829500  1
  C  1099  1  0.34538600  0.95656400  0.66320100  1
  C  1101  1  0.37176600  0.98135100  0.66177400  1
  C  1102  1  0.37210300  0.97224900  0.67937900  1
  C  1103  1  0.35564700  0.95712300  0.68032800  1
  C  1104  1  0.38551200  0.99808200  0.65519800  1
  C  1105  1  0.38424100  0.00763900  0.63741800  1
  C  1107  1  0.37412400  0.01591700  0.60843800  1
  C  1108  1  0.39058300  0.03022200  0.61370200  1
  C  1109  1  0.39690900  0.02503100  0.63137600  1
  C  1110  1  0.36350400  0.01604800  0.59105500  1
  C  1111  1  0.34707600  0.00130000  0.58558700  1
  C  1113  1  0.32252300  0.97461500  0.58629100  1
  C  1114  1  0.32220500  0.98372100  0.56868800  1
  C  1115  1  0.33717900  0.00036200  0.56832200  1
  C  1116  1  0.30915000  0.95749500  0.59272800  1
  C  1117  1  0.29487000  0.94765200  0.57984300  1
  C  1118  1  0.27450800  0.95688700  0.57552300  1
  C  1119  1  0.26097700  0.94710300  0.56228600  1
  C  1120  1  0.26763900  0.92789700  0.55333600  1
  C  1121  1  0.28783600  0.91859200  0.55784600  1
  C  1122  1  0.30133100  0.92830800  0.57102700  1
  C  1123  1  0.36833000  0.03343400  0.57885500  1
  C  1124  1  0.35643900  0.05291900  0.58037300  1
  C  1125  1  0.36193300  0.07096500  0.56954800  1
  C  1126  1  0.37940400  0.06996000  0.55705300  1
  C  1127  1  0.39112100  0.05035200  0.55531000  1
  C  1128  1  0.38562100  0.03220800  0.56613900  1
  C  1129  1  0.40219700  0.00537400  0.66719500  1
  C  1130  1  0.42305700  0.99609200  0.66587100  1
  C  1131  1  0.43978700  0.00311200  0.67754600  1
  C  1132  1  0.43601000  0.01942900  0.69076500  1
  C  1133  1  0.41512100  0.02871900  0.69213800  1
  C  1134  1  0.39832000  0.02173000  0.68042100  1
  C  1135  1  0.31687700  0.93206400  0.67278100  1
  C  1136  1  0.32175600  0.91024800  0.67707300  1
  C  1137  1  0.30025100  0.94281700  0.68252500  1
  C  1138  1  0.28859500  0.93190100  0.69627100  1
  C  1139  1  0.29322700  0.91007100  0.70047800  1
  C  1140  1  0.31000100  0.89930500  0.69087300  1
  C  1171  1  0.20065600  0.85399000  0.13585100  1
  C  1172  1  0.20553300  0.85028700  0.11759700  1
  C  1173  1  0.19113500  0.83467700  0.11087200  1
  C  1175  1  0.18296100  0.84097400  0.14060200  1
  C  1176  1  0.17320500  0.84022400  0.15832100  1
  C  1177  1  0.15532200  0.82698500  0.16322100  1
  C  1179  1  0.12891700  0.80222400  0.16180000  1
  C  1180  1  0.12857500  0.81134800  0.17939700  1
  C  1181  1  0.14505200  0.82645100  0.18034400  1
  C  1182  1  0.11514800  0.78551100  0.15522600  1
  C  1183  1  0.11641800  0.77593700  0.13745200  1
  C  1185  1  0.12649600  0.76767300  0.10846100  1
  C  1186  1  0.11006600  0.75334500  0.11374600  1
  C  1187  1  0.10374600  0.75854500  0.13142000  1
  C  1188  1  0.13707400  0.76757300  0.09106000  1
  C  1189  1  0.15352200  0.78230000  0.08559300  1
  C  1191  1  0.17810100  0.80896100  0.08629200  1
  C  1192  1  0.17839100  0.79987000  0.06868300  1
  C  1193  1  0.16340900  0.78323700  0.06832200  1
  C  1194  1  0.19149400  0.82606700  0.09272800  1
  C  1195  1  0.20576900  0.83591200  0.07983800  1
  C  1196  1  0.22611100  0.82665400  0.07548500  1
  C  1197  1  0.23964500  0.83645200  0.06225700  1
  C  1198  1  0.23302100  0.85570900  0.05336300  1
  C  1199  1  0.21282600  0.86501400  0.05788600  1
  C  1200  1  0.19933200  0.85528900  0.07106300  1
  C  1201  1  0.13223700  0.75019300  0.07885600  1
  C  1202  1  0.14415700  0.73071900  0.08031200  1
  C  1203  1  0.13870300  0.71272000  0.06941600  1
  C  1204  1  0.12126400  0.71377000  0.05689500  1
  C  1205  1  0.10951900  0.73337000  0.05520900  1
  C  1206  1  0.11495300  0.75145200  0.06613400  1
  C  1207  1  0.09846600  0.77822800  0.16723000  1
  C  1208  1  0.07761900  0.78754100  0.16592800  1
  C  1209  1  0.06089600  0.78054700  0.17762200  1
  C  1210  1  0.06466900  0.76422300  0.19083500  1
  C  1211  1  0.08554700  0.75490400  0.19218900  1
  C  1212  1  0.10234100  0.76187000  0.18045400  1
  C  1213  1  0.18384500  0.85148600  0.17279000  1
  C  1214  1  0.17892600  0.87329500  0.17707500  1
  C  1215  1  0.20049800  0.84077200  0.18253200  1
  C  1216  1  0.21212800  0.85171100  0.19628000  1
  C  1217  1  0.20745800  0.87353800  0.20047500  1
  C  1218  1  0.19066300  0.88426700  0.19087000  1
  C  1249  1  0.23887500  0.40416600  0.76630700  1
  C  1250  1  0.24441900  0.42422000  0.75816400  1
  C  1251  1  0.25811400  0.42484500  0.74244900  1
  C  1252  1  0.26571100  0.40478900  0.73519500  1
  C  1256  1  0.26389600  0.44592600  0.73386600  1
  C  1260  1  0.22546600  0.40182200  0.78146900  1
  C  1262  1  0.27868300  0.40205700  0.71976300  1
  C  1264  1  0.26174600  0.37950500  0.26630800  1
  C  1265  1  0.25620500  0.35945000  0.25816600  1
  C  1266  1  0.24250600  0.35882200  0.24245600  1
  C  1267  1  0.23489700  0.37887500  0.23520500  1
  C  1271  1  0.23672600  0.33773800  0.23387400  1
  C  1275  1  0.27516600  0.38185000  0.28146300  1
  C  1277  1  0.22192000  0.38160400  0.21977500  1
  C  1279  1  0.73715600  0.88069600  0.01648000  1
  C  1280  1  0.71709400  0.88614000  0.00830400  1
  C  1281  1  0.71645300  0.89960100  0.99244400  1
  C  1282  1  0.73649900  0.90706200  0.98507600  1
  C  1286  1  0.69536600  0.90528600  0.98383000  1
  C  1290  1  0.73951200  0.86748300  0.03176700  1
  C  1292  1  0.73921000  0.91980400  0.96950100  1
  C  1294  1  0.76358300  0.90303800  0.51644000  1
  C  1295  1  0.78363600  0.89751400  0.50828800  1
  C  1296  1  0.78424700  0.88405600  0.49242400  1
  C  1297  1  0.76418500  0.87668300  0.48502600  1
  C  1301  1  0.80532900  0.87827900  0.48384400  1
  C  1305  1  0.76125400  0.91620500  0.53175700  1
  C  1307  1  0.76144600  0.86391800  0.46946800  1
  C  1309  1  0.76172300  0.37966500  0.23422900  1
  C  1310  1  0.75620100  0.35960900  0.24238200  1
  C  1311  1  0.74255700  0.35898300  0.25812800  1
  C  1312  1  0.73498300  0.37903700  0.26540300  1
  C  1316  1  0.73680400  0.33789800  0.26672200  1
  C  1320  1  0.77509100  0.38200400  0.21903800  1
  C  1322  1  0.72205700  0.38176400  0.28086700  1
  C  1324  1  0.73900100  0.40405100  0.73421100  1
  C  1325  1  0.74447900  0.42411400  0.74237500  1
  C  1326  1  0.75811300  0.42475700  0.75812700  1
  C  1327  1  0.76572200  0.40471400  0.76539500  1
  C  1331  1  0.76381500  0.44584600  0.76673600  1
  C  1335  1  0.72563400  0.40169500  0.71902400  1
  C  1337  1  0.77862300  0.40200500  0.78087400  1
  C  1339  1  0.26372900  0.90287600  0.98410100  1
  C  1340  1  0.28378700  0.89749300  0.99231400  1
  C  1341  1  0.28442500  0.88405400  0.00818900  1
  C  1342  1  0.26438400  0.87654600  0.01552900  1
  C  1346  1  0.30550800  0.87844500  0.01685000  1
  C  1350  1  0.26136600  0.91608200  0.96880900  1
  C  1352  1  0.26166600  0.86383700  0.03112200  1
  C  1354  1  0.23681700  0.88071800  0.48411600  1
  C  1355  1  0.21676600  0.88614500  0.49232000  1
  C  1356  1  0.21614800  0.89957200  0.50820100  1
  C  1357  1  0.23620300  0.90701800  0.51556200  1
  C  1361  1  0.19507300  0.90523500  0.51684800  1
  C  1365  1  0.23916200  0.86755200  0.46879900  1
  C  1367  1  0.23893300  0.91973300  0.53115100  1
  C  1369  1  0.73805700  0.90311000  0.26604400  1
  C  1370  1  0.74352700  0.92292600  0.25746900  1
  C  1371  1  0.75918400  0.92343500  0.24317100  1
  C  1372  1  0.76892100  0.90349200  0.23782100  1
  C  1376  1  0.76465600  0.94425100  0.23397700  1
  C  1380  1  0.72274300  0.90123600  0.27988700  1
  C  1382  1  0.78355000  0.90087700  0.22354100  1
  C  1384  1  0.76259500  0.88051700  0.76606300  1
  C  1385  1  0.75714500  0.86070800  0.75747000  1
  C  1386  1  0.74148400  0.86020100  0.74317600  1
  C  1387  1  0.73172200  0.88014200  0.73784700  1
  C  1391  1  0.73603000  0.83939400  0.73396200  1
  C  1395  1  0.77791300  0.88239300  0.77990400  1
  C  1397  1  0.71708900  0.88276600  0.72357300  1
  C  1399  1  0.23979800  0.37956100  0.51613100  1
  C  1400  1  0.21998200  0.38501800  0.50755600  1
  C  1401  1  0.21947400  0.40058900  0.49318800  1
  C  1402  1  0.23942300  0.41025600  0.48776300  1
  C  1406  1  0.19865100  0.40604900  0.48400700  1
  C  1410  1  0.24164000  0.36433200  0.53005000  1
  C  1412  1  0.24200100  0.42483700  0.47344000  1
  C  1414  1  0.26079900  0.40407900  0.01613200  1
  C  1415  1  0.28062100  0.39863800  0.00756200  1
  C  1416  1  0.28114300  0.38307700  0.99318800  1
  C  1417  1  0.26120400  0.37340400  0.98775000  1
  C  1421  1  0.30197800  0.37763400  0.98401300  1
  C  1425  1  0.25893900  0.41930300  0.03005500  1
  C  1427  1  0.25863600  0.35882700  0.97341900  1
  C  1429  1  0.26260000  0.88071700  0.73455900  1
  C  1430  1  0.25710800  0.86090100  0.74312400  1
  C  1431  1  0.24146100  0.86040300  0.75742900  1
  C  1432  1  0.23176600  0.88035800  0.76280300  1
  C  1436  1  0.23595900  0.83958800  0.76661200  1
  C  1440  1  0.27790300  0.88258900  0.72070700  1
  C  1442  1  0.21714100  0.88298400  0.77708100  1
  C  1444  1  0.23803700  0.90294700  0.23455100  1
  C  1445  1  0.24351100  0.92276900  0.24311400  1
  C  1446  1  0.25915500  0.92328300  0.25742200  1
  C  1447  1  0.26886800  0.90333700  0.26279700  1
  C  1451  1  0.26463700  0.94410200  0.26660400  1
  C  1455  1  0.22273900  0.90105600  0.22069700  1
  C  1457  1  0.28349300  0.90071400  0.27707500  1
  C  1459  1  0.76096900  0.40408100  0.48451900  1
  C  1460  1  0.78079900  0.39864200  0.49307900  1
  C  1461  1  0.78133800  0.38305500  0.50743300  1
  C  1462  1  0.76140500  0.37335800  0.51286100  1
  C  1466  1  0.80217400  0.37761200  0.51660000  1
  C  1470  1  0.75909000  0.41932200  0.47061600  1
  C  1472  1  0.75884300  0.35876700  0.52717900  1
  C  1474  1  0.73970200  0.37958600  0.98454400  1
  C  1475  1  0.71987300  0.38501600  0.99310900  1
  C  1476  1  0.71933100  0.40059900  0.00746500  1
  C  1477  1  0.73926200  0.41029600  0.01289600  1
  C  1481  1  0.69849400  0.40603700  0.01663300  1
  C  1485  1  0.74158600  0.36434600  0.97063800  1
  C  1487  1  0.74182400  0.42488900  0.02721100  1
  C  1489  1  0.10206100  0.16216500  0.96706800  1
  C  1490  1  0.11897000  0.15115700  0.97622300  1
  C  1491  1  0.11916700  0.12822700  0.97674100  1
  C  1492  1  0.10188400  0.11710900  0.96786800  1
  C  1496  1  0.13741700  0.11652700  0.98569900  1
  C  1500  1  0.10359100  0.18360600  0.96224000  1
  C  1502  1  0.10204600  0.09529900  0.96396600  1
  C  1504  1  0.39864500  0.62132200  0.46712800  1
  C  1505  1  0.38171300  0.63243200  0.47616500  1
  C  1506  1  0.38151500  0.65536500  0.47650000  1
  C  1507  1  0.39882500  0.66638400  0.46758000  1
  C  1511  1  0.36323200  0.66716200  0.48531600  1
  C  1515  1  0.39707300  0.59985700  0.46239600  1
  C  1517  1  0.39871400  0.68816000  0.46355600  1
  C  1519  1  0.97733300  0.74312800  0.21908100  1
  C  1520  1  0.98826400  0.75968600  0.22875600  1
  C  1521  1  0.01119200  0.76026500  0.22887000  1
  C  1522  1  0.02235600  0.74365200  0.21916900  1
  C  1526  1  0.02284600  0.77839500  0.23804500  1
  C  1530  1  0.95600600  0.74502000  0.21405200  1
  C  1532  1  0.04370300  0.74518200  0.21401000  1
  C  1534  1  0.52332600  0.04048400  0.71903600  1
  C  1535  1  0.51238200  0.02397200  0.72876700  1
  C  1536  1  0.48945300  0.02340500  0.72889100  1
  C  1537  1  0.47829500  0.03998400  0.71914700  1
  C  1541  1  0.47779200  0.00530900  0.73810700  1
  C  1545  1  0.54467500  0.03854700  0.71409700  1
  C  1547  1  0.45695500  0.03842500  0.71397600  1
  C  1549  1  0.39884700  0.16163300  0.53336100  1
  C  1550  1  0.38187800  0.15064000  0.52426100  1
  C  1551  1  0.38148700  0.12770700  0.52395400  1
  C  1552  1  0.39867800  0.11655500  0.53293100  1
  C  1556  1  0.36313900  0.11606300  0.51508900  1
  C  1560  1  0.39735500  0.18313400  0.53802000  1
  C  1562  1  0.39846900  0.09475200  0.53686000  1
  C  1564  1  0.10186100  0.62217200  0.03342000  1
  C  1565  1  0.11880500  0.63308100  0.02422100  1
  C  1566  1  0.11919300  0.65601300  0.02380400  1
  C  1567  1  0.10203100  0.66722800  0.03276500  1
  C  1571  1  0.13750600  0.66759600  0.01482800  1
  C  1575  1  0.10332200  0.60067900  0.03812400  1
  C  1577  1  0.10225900  0.68906300  0.03659200  1
  C  1579  1  0.52245600  0.74288400  0.28152700  1
  C  1580  1  0.51169600  0.75946600  0.27175000  1
  C  1581  1  0.48877200  0.76029800  0.27170800  1
  C  1582  1  0.47743700  0.74388900  0.28152700  1
  C  1586  1  0.47729400  0.77847100  0.26243500  1
  C  1590  1  0.54377500  0.74480400  0.28654400  1
  C  1592  1  0.45606300  0.74551600  0.28659700  1
  C  1594  1  0.97814400  0.04074300  0.78149100  1
  C  1595  1  0.98891600  0.02415100  0.77173300  1
  C  1596  1  0.01183900  0.02334300  0.77166000  1
  C  1597  1  0.02314100  0.03974200  0.78151100  1
  C  1601  1  0.02333300  0.00519800  0.76236400  1
  C  1605  1  0.95681700  0.03882600  0.78648600  1
  C  1607  1  0.04451200  0.03809100  0.78659600  1
  C  1609  1  0.89858700  0.62166200  0.03357600  1
  C  1610  1  0.88165600  0.63267400  0.02445000  1
  C  1611  1  0.88146800  0.65560400  0.02391700  1
  C  1612  1  0.89878800  0.66666667  0.03274300  1
  C  1616  1  0.86319600  0.66730300  0.01499300  1
  C  1620  1  0.89708700  0.60022200  0.03841700  1
  C  1622  1  0.89865000  0.68852400  0.03665800  1
  C  1624  1  0.60198800  0.16216200  0.53356200  1
  C  1625  1  0.61893700  0.15106700  0.52453400  1
  C  1626  1  0.61913000  0.12813400  0.52415800  1
  C  1627  1  0.60178700  0.11710100  0.53302400  1
  C  1631  1  0.63743100  0.11635300  0.51535600  1
  C  1635  1  0.60352500  0.18362200  0.53832700  1
  C  1637  1  0.60189100  0.09532800  0.53705000  1
  C  1639  1  0.60174300  0.62211400  0.46719000  1
  C  1640  1  0.61873600  0.63316700  0.47620000  1
  C  1641  1  0.61910200  0.65610000  0.47642900  1
  C  1642  1  0.60186300  0.66718700  0.46746600  1
  C  1646  1  0.63746500  0.66780100  0.48521700  1
  C  1650  1  0.60319100  0.60059800  0.46255000  1
  C  1652  1  0.60199500  0.68897100  0.46344600  1
  C  1654  1  0.89893200  0.16146100  0.96714000  1
  C  1655  1  0.88190100  0.15046100  0.97615100  1
  C  1656  1  0.88151300  0.12752900  0.97646100  1
  C  1657  1  0.89877200  0.11638400  0.96757600  1
  C  1661  1  0.86310600  0.11588500  0.98523700  1
  C  1665  1  0.89745300  0.18294700  0.96242800  1
  C  1667  1  0.89860800  0.09459100  0.96359200  1
  C  1669  1  0.47716100  0.24560500  0.71716600  1
  C  1670  1  0.48867600  0.26189800  0.72666300  1
  C  1671  1  0.51162700  0.26198300  0.72635500  1
  C  1672  1  0.52219600  0.24528400  0.71627900  1
  C  1676  1  0.52393900  0.27939300  0.73589400  1
  C  1680  1  0.45529600  0.24683600  0.71397700  1
  C  1682  1  0.54393700  0.24517100  0.71217400  1
  C  1684  1  0.02336300  0.53781500  0.21722500  1
  C  1685  1  0.01184500  0.52174200  0.22697800  1
  C  1686  1  0.98889300  0.52172100  0.22671200  1
  C  1687  1  0.97834200  0.53827200  0.21644700  1
  C  1691  1  0.97655800  0.50451800  0.23650000  1
  C  1695  1  0.04521800  0.53645400  0.21405100  1
  C  1697  1  0.95657800  0.53840100  0.21240700  1
  C  1699  1  0.02278200  0.24553100  0.78341900  1
  C  1700  1  0.01133500  0.26178100  0.77381700  1
  C  1701  1  0.98838600  0.26196500  0.77416500  1
  C  1702  1  0.97775100  0.24536400  0.78431200  1
  C  1706  1  0.97613900  0.27938300  0.76457300  1
  C  1710  1  0.04462600  0.24684100  0.78664000  1
  C  1712  1  0.95600700  0.24527800  0.78842700  1
  C  1714  1  0.47796600  0.53774900  0.28336700  1
  C  1715  1  0.48945000  0.52180300  0.27344400  1
  C  1716  1  0.51240300  0.52172000  0.27372200  1
  C  1717  1  0.52298700  0.53810900  0.28414900  1
  C  1721  1  0.52469800  0.50460100  0.26379500  1
  C  1725  1  0.45612900  0.53625500  0.28656000  1
  C  1727  1  0.54476100  0.53822100  0.28817200  1
  N  4  1  0.18617500  0.32064400  0.87466100  1
  N  8  1  0.16997400  0.28766400  0.90248500  1
  N  14  1  0.13846600  0.27125500  0.87345200  1
  N  20  1  0.15454900  0.30437100  0.84568100  1
  N  75  1  0.05061100  0.25886400  0.80011200  1
  N  76  1  0.11826800  0.18842300  0.95042000  1
  N  77  1  0.24085200  0.35920300  0.96425100  1
  N  78  1  0.22387500  0.38291400  0.78871400  1
  N  82  1  0.31447200  0.46297400  0.37464000  1
  N  86  1  0.33059400  0.49596000  0.40248400  1
  N  92  1  0.36210900  0.51242900  0.37347800  1
  N  98  1  0.34612900  0.47927900  0.34569400  1
  N  153  1  0.45024600  0.52494200  0.30049800  1
  N  154  1  0.38244700  0.59504900  0.45053000  1
  N  155  1  0.25976800  0.42442200  0.46424700  1
  N  156  1  0.27678800  0.40076600  0.28869100  1
  N  160  1  0.82120500  0.82829600  0.12485300  1
  N  164  1  0.85445900  0.81202800  0.15243300  1
  N  170  1  0.87109100  0.78108700  0.12306800  1
  N  176  1  0.83751000  0.79709400  0.09561500  1
  N  231  1  0.88458100  0.69492700  0.04846500  1
  N  232  1  0.95191300  0.75924000  0.20164300  1
  N  233  1  0.78317500  0.88305300  0.21442700  1
  N  234  1  0.75842800  0.86595600  0.03900300  1
  N  238  1  0.67945000  0.95530000  0.62488200  1
  N  242  1  0.64617800  0.97163000  0.65242000  1
  N  248  1  0.62944800  0.00236100  0.62294400  1
  N  254  1  0.66310600  0.98635100  0.59555500  1
  N  309  1  0.61593500  0.08886600  0.54885300  1
  N  310  1  0.54873300  0.02439400  0.70162400  1
  N  311  1  0.71745200  0.90060400  0.71447800  1
  N  312  1  0.74236100  0.91765800  0.53904600  1
  N  316  1  0.31288400  0.31885700  0.62563500  1
  N  320  1  0.33025200  0.28638200  0.59785800  1
  N  326  1  0.36226300  0.27110000  0.62684900  1
  N  332  1  0.34532900  0.30397900  0.65448000  1
  N  387  1  0.44920700  0.25980400  0.70117800  1
  N  388  1  0.38280700  0.18786900  0.54997600  1
  N  389  1  0.26030300  0.36115100  0.53737800  1
  N  390  1  0.27794400  0.38372400  0.71142100  1
  N  394  1  0.18768100  0.46476300  0.12562100  1
  N  398  1  0.17038400  0.49732100  0.09787300  1
  N  404  1  0.13841800  0.51264400  0.12688600  1
  N  410  1  0.15523100  0.47962700  0.15446400  1
  N  465  1  0.05123200  0.52394000  0.20090800  1
  N  466  1  0.11788600  0.59593700  0.05006400  1
  N  467  1  0.24027100  0.42247700  0.03737400  1
  N  468  1  0.22264900  0.39993700  0.21143100  1
  N  472  1  0.67770000  0.83004900  0.37536200  1
  N  476  1  0.64488600  0.81251900  0.34789600  1
  N  482  1  0.62933500  0.78122700  0.37735200  1
  N  488  1  0.66276400  0.79814000  0.40458000  1
  N  543  1  0.61643000  0.69555400  0.45203000  1
  N  544  1  0.54770900  0.75817600  0.29964100  1
  N  545  1  0.71947900  0.88252800  0.28710700  1
  N  546  1  0.74315100  0.86484400  0.46108100  1
  N  550  1  0.82291900  0.95365100  0.87535700  1
  N  554  1  0.85574800  0.97116600  0.84790500  1
  N  560  1  0.87133100  0.00241500  0.87737300  1
  N  566  1  0.83790000  0.98550200  0.90459700  1
  N  621  1  0.88423100  0.08803100  0.95211600  1
  N  622  1  0.95288700  0.02541900  0.79956000  1
  N  623  1  0.78117700  0.90110500  0.78711800  1
  N  624  1  0.75747400  0.91881500  0.96106900  1
  N  628  1  0.81449400  0.46307000  0.12586000  1
  N  632  1  0.83051600  0.49612800  0.09804500  1
  N  638  1  0.86203300  0.51263400  0.12704300  1
  N  644  1  0.84615800  0.47937300  0.15477300  1
  N  699  1  0.94996100  0.52436900  0.20064800  1
  N  700  1  0.88216700  0.59531700  0.04999200  1
  N  701  1  0.75957400  0.42445200  0.03642400  1
  N  702  1  0.77680400  0.40094400  0.21187300  1
  N  706  1  0.68621000  0.32062400  0.62587700  1
  N  710  1  0.67022000  0.28755400  0.59806800  1
  N  716  1  0.63877400  0.27097000  0.62709400  1
  N  722  1  0.65459700  0.30426500  0.65481200  1
  N  777  1  0.55055500  0.25899600  0.70024100  1
  N  778  1  0.61839900  0.18850800  0.54994800  1
  N  779  1  0.74110000  0.35921800  0.53640200  1
  N  780  1  0.72391400  0.38274600  0.71187700  1
  N  784  1  0.17954400  0.95542900  0.87585800  1
  N  788  1  0.14641300  0.97186500  0.84827700  1
  N  794  1  0.12982900  0.00277300  0.87769400  1
  N  800  1  0.16325500  0.98657100  0.90516100  1
  N  855  1  0.11609900  0.08890300  0.95214200  1
  N  856  1  0.04867400  0.02436400  0.79937600  1
  N  857  1  0.21762400  0.90075400  0.78626500  1
  N  858  1  0.24242600  0.91768300  0.96163200  1
  N  862  1  0.32109100  0.82826500  0.37582900  1
  N  866  1  0.35421900  0.81177300  0.34828300  1
  N  872  1  0.37094700  0.78111400  0.37781600  1
  N  878  1  0.33744300  0.79729900  0.40522200  1
  N  933  1  0.38468200  0.69462000  0.45174100  1
  N  934  1  0.45188900  0.75933100  0.29930700  1
  N  935  1  0.28302400  0.88292700  0.28623800  1
  N  936  1  0.25808600  0.86601200  0.46158100  1
  N  940  1  0.68780400  0.46482600  0.37504400  1
  N  944  1  0.67056400  0.49736500  0.40283200  1
  N  950  1  0.63864700  0.51286200  0.37381900  1
  N  956  1  0.65540200  0.47982900  0.34621800  1
  N  1011  1  0.55149000  0.52391700  0.29964600  1
  N  1012  1  0.61803200  0.59576200  0.45088500  1
  N  1013  1  0.74044100  0.42238500  0.46322600  1
  N  1014  1  0.72272000  0.40013700  0.28915200  1
  N  1018  1  0.81282300  0.31887800  0.87505800  1
  N  1022  1  0.83003400  0.28625200  0.90279300  1
  N  1028  1  0.86182200  0.27068200  0.87370000  1
  N  1034  1  0.84515100  0.30385700  0.84617600  1
  N  1089  1  0.94926200  0.25948300  0.79998100  1
  N  1090  1  0.88275900  0.18774700  0.95062400  1
  N  1091  1  0.76023800  0.36127800  0.96325900  1
  N  1092  1  0.77790300  0.38365500  0.78919300  1
  N  1096  1  0.32288500  0.95365800  0.62510200  1
  N  1100  1  0.35558900  0.97134600  0.65258500  1
  N  1106  1  0.37104100  0.00269900  0.62310700  1
  N  1112  1  0.33774700  0.98560700  0.59585000  1
  N  1167  1  0.38414500  0.08823000  0.54840100  1
  N  1168  1  0.45292700  0.02527400  0.70074200  1
  N  1169  1  0.28104900  0.90126700  0.71339500  1
  N  1170  1  0.25725200  0.91882100  0.53949700  1
  N  1174  1  0.17780700  0.82987600  0.12511800  1
  N  1178  1  0.14510800  0.81220700  0.15260900  1
  N  1184  1  0.12958500  0.78089600  0.12312500  1
  N  1190  1  0.16287700  0.79797600  0.09585600  1
  N  1245  1  0.11661700  0.69556300  0.04811000  1
  N  1246  1  0.04776500  0.75843000  0.20085200  1
  N  1247  1  0.21961500  0.88236900  0.21339300  1
  N  1248  1  0.24335700  0.86475600  0.03948500  1
  N  1253  1  0.25962200  0.38636200  0.74405500  1
  N  1255  1  0.24719200  0.38602600  0.75844300  1
  N  1268  1  0.24098500  0.39730400  0.24406500  1
  N  1270  1  0.25341900  0.39764300  0.25844700  1
  N  1283  1  0.75493500  0.90108900  0.99397600  1
  N  1285  1  0.75528500  0.88887600  0.00849900  1
  N  1298  1  0.74575800  0.88274400  0.49390000  1
  N  1300  1  0.74543200  0.89495000  0.50842500  1
  N  1313  1  0.74104400  0.39746500  0.25652700  1
  N  1315  1  0.75342900  0.39780200  0.24211200  1
  N  1328  1  0.75970900  0.38627900  0.75650700  1
  N  1330  1  0.74733500  0.38592500  0.74208600  1
  N  1343  1  0.24595300  0.88245300  0.00658800  1
  N  1345  1  0.24560500  0.89464800  0.99205400  1
  N  1358  1  0.25462500  0.90106400  0.50663400  1
  N  1360  1  0.25495600  0.88888200  0.49209300  1
  N  1373  1  0.76283400  0.88524700  0.24695700  1
  N  1375  1  0.74851500  0.88504900  0.26008100  1
  N  1388  1  0.73779200  0.89837900  0.74700200  1
  N  1390  1  0.75211300  0.89857500  0.76012200  1
  N  1403  1  0.25767400  0.40417800  0.49689300  1
  N  1405  1  0.25786900  0.38993700  0.51008600  1
  N  1418  1  0.24294500  0.37946600  0.99687700  1
  N  1420  1  0.24273600  0.39369900  0.01007600  1
  N  1433  1  0.23787100  0.89860100  0.75367600  1
  N  1435  1  0.25217700  0.89879000  0.74054300  1
  N  1448  1  0.26278400  0.88508900  0.25366600  1
  N  1450  1  0.24848000  0.88488700  0.24053300  1
  N  1463  1  0.74314000  0.37942200  0.50374800  1
  N  1465  1  0.74291600  0.39367700  0.49056600  1
  N  1478  1  0.75752600  0.40424300  0.00377500  1
  N  1480  1  0.75775300  0.38999400  0.99059000  1
  N  1493  1  0.08617100  0.12897100  0.95948100  1
  N  1495  1  0.08625000  0.15015200  0.95904900  1
  N  1508  1  0.41455500  0.65443500  0.45930900  1
  N  1510  1  0.41446900  0.63325000  0.45903400  1
  N  1523  1  0.01057500  0.72826300  0.21029400  1
  N  1525  1  0.98940600  0.72800800  0.21021400  1
  N  1538  1  0.49007900  0.05533800  0.71023200  1
  N  1540  1  0.51124700  0.05558400  0.71015000  1
  N  1553  1  0.41451100  0.12840000  0.54116900  1
  N  1555  1  0.41458400  0.14958400  0.54144300  1
  N  1568  1  0.08621100  0.65543700  0.04108400  1
  N  1570  1  0.08612700  0.63425500  0.04146300  1
  N  1583  1  0.48910600  0.72844900  0.29045300  1
  N  1585  1  0.51027100  0.72797100  0.29052100  1
  N  1598  1  0.01148800  0.05517800  0.79045200  1
  N  1600  1  0.99032200  0.05565100  0.79050100  1
  N  1613  1  0.91452900  0.65485300  0.04108800  1
  N  1615  1  0.91444000  0.63367400  0.04153400  1
  N  1628  1  0.58603300  0.12903800  0.54127400  1
  N  1630  1  0.58612600  0.15022100  0.54158600  1
  N  1643  1  0.58602700  0.65528800  0.45928700  1
  N  1645  1  0.58597300  0.63410300  0.45908500  1
  N  1658  1  0.91464400  0.12823100  0.95939300  1
  N  1660  1  0.91471400  0.14941400  0.95911900  1
  N  1673  1  0.50985400  0.23019600  0.70758300  1
  N  1675  1  0.48868100  0.23034100  0.70795600  1
  N  1688  1  0.99070600  0.55316300  0.20752500  1
  N  1690  1  0.01188000  0.55295500  0.20784000  1
  N  1703  1  0.99006100  0.23033400  0.79312100  1
  N  1705  1  0.01123400  0.23040800  0.79276400  1
  N  1718  1  0.51064900  0.55284800  0.29327300  1
  N  1720  1  0.48947600  0.55267400  0.29297500  1
