# generated using pymatgen
data_H13C20(NO)2
_symmetry_space_group_name_H-M   'P 1'
_cell_length_a   59.87520000
_cell_length_b   59.87520000
_cell_length_c   65.15570000
_cell_angle_alpha   90.00000000
_cell_angle_beta   90.00000000
_cell_angle_gamma   89.95570000
_symmetry_Int_Tables_number   1
_chemical_formula_structural   H13C20(NO)2
_chemical_formula_sum   'H1664 C2560 N256 O256'
_cell_volume   233585.69321964
_cell_formula_units_Z   128
loop_
 _symmetry_equiv_pos_site_id
 _symmetry_equiv_pos_as_xyz
  1  'x, y, z'
loop_
 _atom_site_type_symbol
 _atom_site_label
 _atom_site_symmetry_multiplicity
 _atom_site_fract_x
 _atom_site_fract_y
 _atom_site_fract_z
 _atom_site_occupancy
  H  7  1  0.55620700  0.90746000  0.06090400  1
  H  8  1  0.52793800  0.86936200  0.10729000  1
  H  15  1  0.64343700  0.94125300  0.05230900  1
  H  16  1  0.61777000  0.89570400  0.09402800  1
  H  19  1  0.61202100  0.85690600  0.08317100  1
  H  20  1  0.60064400  0.84446400  0.10321300  1
  H  21  1  0.58480800  0.90740900  0.01783000  1
  H  22  1  0.57549200  0.88744700  0.03300500  1
  H  29  1  0.36632200  0.59231300  0.56099500  1
  H  30  1  0.39457600  0.63058400  0.60729300  1
  H  37  1  0.27898900  0.55888400  0.55199300  1
  H  38  1  0.30460200  0.60435700  0.59384400  1
  H  41  1  0.31056500  0.64309000  0.58296400  1
  H  42  1  0.32192300  0.65560700  0.60297400  1
  H  43  1  0.33793000  0.59253200  0.51779100  1
  H  44  1  0.34726300  0.61244100  0.53301400  1
  H  51  1  0.12112400  0.15604100  0.80975900  1
  H  52  1  0.08206400  0.18220600  0.85664100  1
  H  59  1  0.15758000  0.06994300  0.79834200  1
  H  60  1  0.11383000  0.09405100  0.84255300  1
  H  63  1  0.07436500  0.09737500  0.83270700  1
  H  64  1  0.06150000  0.10795200  0.85287100  1
  H  65  1  0.11996000  0.12763500  0.76607300  1
  H  66  1  0.10058800  0.13621600  0.78224900  1
  H  73  1  0.80014100  0.34518700  0.30972500  1
  H  74  1  0.83933300  0.31904800  0.35653200  1
  H  81  1  0.76377200  0.43132300  0.29827100  1
  H  82  1  0.80756000  0.40716600  0.34243400  1
  H  85  1  0.84697200  0.40394400  0.33258100  1
  H  86  1  0.85988200  0.39331100  0.35268900  1
  H  87  1  0.80119300  0.37347700  0.26599600  1
  H  88  1  0.82057400  0.36479700  0.28210900  1
  H  95  1  0.55552200  0.59404000  0.55083600  1
  H  96  1  0.52732000  0.62909700  0.50243400  1
  H  103  1  0.64274400  0.56127000  0.56097800  1
  H  104  1  0.61718900  0.60511200  0.51770800  1
  H  107  1  0.61080100  0.64435400  0.52728200  1
  H  108  1  0.59954200  0.65580000  0.50668800  1
  H  109  1  0.58370800  0.59625700  0.59405100  1
  H  110  1  0.57434300  0.61553400  0.57814500  1
  H  117  1  0.36708900  0.90620500  0.05051500  1
  H  118  1  0.39534100  0.87071500  0.00239600  1
  H  125  1  0.27961200  0.93879600  0.06031300  1
  H  126  1  0.30537500  0.89453100  0.01748500  1
  H  129  1  0.31193200  0.85547700  0.02743300  1
  H  130  1  0.32321900  0.84386100  0.00692900  1
  H  131  1  0.33886300  0.90454900  0.09371000  1
  H  132  1  0.34831500  0.88510600  0.07801700  1
  H  139  1  0.11960900  0.34437900  0.80156500  1
  H  140  1  0.08276900  0.31848200  0.75314400  1
  H  147  1  0.15555400  0.43045900  0.81363400  1
  H  148  1  0.11250600  0.40653400  0.76883800  1
  H  151  1  0.07279300  0.40282700  0.77815200  1
  H  152  1  0.06058100  0.39241800  0.75758200  1
  H  153  1  0.11753600  0.37261300  0.84527200  1
  H  154  1  0.09846700  0.36404600  0.82879300  1
  H  161  1  0.80176100  0.15677600  0.30159500  1
  H  162  1  0.83847100  0.18289700  0.25318300  1
  H  169  1  0.76634600  0.07055900  0.31382100  1
  H  170  1  0.80919200  0.09465400  0.26893800  1
  H  173  1  0.84884700  0.09849200  0.27805400  1
  H  174  1  0.86096800  0.10904100  0.25750800  1
  H  175  1  0.80405200  0.12871800  0.34533200  1
  H  176  1  0.82303900  0.13744900  0.32885600  1
  H  183  1  0.36597600  0.09535000  0.05294600  1
  H  184  1  0.39329300  0.13428400  0.00651900  1
  H  191  1  0.28011000  0.05635300  0.05615800  1
  H  192  1  0.30633400  0.10346100  0.01657300  1
  H  195  1  0.30818000  0.14268600  0.02944500  1
  H  196  1  0.31937500  0.15606500  0.00979700  1
  H  197  1  0.33319500  0.09437100  0.09487900  1
  H  198  1  0.34282000  0.11428500  0.07987100  1
  H  205  1  0.55674300  0.40565300  0.55308300  1
  H  206  1  0.52973500  0.36648000  0.50662800  1
  H  213  1  0.64225800  0.44534600  0.55672500  1
  H  214  1  0.61628500  0.39865900  0.51654800  1
  H  217  1  0.61510100  0.35923800  0.52922000  1
  H  218  1  0.60401600  0.34571700  0.50960700  1
  H  219  1  0.58965000  0.40619300  0.59507200  1
  H  220  1  0.58012500  0.38646600  0.57980400  1
  H  227  1  0.80165400  0.84506000  0.30196900  1
  H  228  1  0.83860500  0.81842400  0.25378500  1
  H  235  1  0.76846200  0.93141500  0.31733600  1
  H  236  1  0.80582500  0.90596800  0.26891500  1
  H  239  1  0.84660100  0.90379200  0.27640400  1
  H  240  1  0.85866600  0.89310800  0.25590000  1
  H  241  1  0.80791900  0.87319700  0.34589000  1
  H  242  1  0.82550200  0.86433200  0.32816400  1
  H  249  1  0.12101200  0.65592900  0.80213900  1
  H  250  1  0.08398500  0.68270200  0.75406000  1
  H  257  1  0.15406200  0.56945600  0.81729600  1
  H  258  1  0.11673600  0.59514800  0.76897000  1
  H  261  1  0.07601200  0.59719900  0.77644300  1
  H  262  1  0.06392500  0.60800900  0.75601200  1
  H  263  1  0.11485800  0.62776400  0.84601800  1
  H  264  1  0.09726600  0.63676900  0.82837000  1
  H  271  1  0.36735800  0.40328200  0.55943900  1
  H  272  1  0.39474000  0.36689000  0.60751900  1
  H  279  1  0.28099800  0.44101900  0.55513800  1
  H  280  1  0.30732900  0.39474400  0.59546600  1
  H  283  1  0.31037700  0.35527800  0.58328800  1
  H  284  1  0.32152100  0.34274800  0.60343600  1
  H  285  1  0.33502000  0.40303800  0.51731800  1
  H  286  1  0.34479100  0.38350300  0.53268900  1
  H  293  1  0.55535400  0.09678500  0.05940000  1
  H  294  1  0.52786500  0.13343400  0.10728800  1
  H  301  1  0.64161000  0.05894600  0.05544900  1
  H  302  1  0.61515800  0.10535600  0.09559300  1
  H  305  1  0.61233900  0.14482400  0.08318900  1
  H  306  1  0.60115400  0.15750600  0.10323900  1
  H  307  1  0.58784100  0.09696300  0.01733800  1
  H  308  1  0.57802900  0.11654000  0.03264100  1
  H  315  1  0.80337300  0.65668800  0.30990600  1
  H  316  1  0.83787400  0.68295200  0.35969900  1
  H  323  1  0.77083800  0.57034000  0.29385200  1
  H  324  1  0.80733600  0.59565300  0.34282200  1
  H  327  1  0.84840900  0.59815500  0.33581800  1
  H  328  1  0.85974100  0.60863400  0.35675700  1
  H  329  1  0.81056800  0.62879800  0.26599600  1
  H  330  1  0.82779700  0.63765800  0.28401200  1
  H  337  1  0.11974800  0.84440000  0.81027900  1
  H  338  1  0.08508100  0.81790100  0.85988100  1
  H  345  1  0.15194600  0.93080800  0.79406700  1
  H  346  1  0.11570800  0.90542000  0.84318300  1
  H  349  1  0.07472600  0.90292700  0.83644600  1
  H  350  1  0.06336400  0.89228400  0.85729000  1
  H  351  1  0.11230700  0.87219200  0.76638600  1
  H  352  1  0.09517300  0.86321200  0.78442100  1
  H  359  1  0.05562100  0.41002500  0.56051300  1
  H  360  1  0.02836100  0.37275500  0.60816200  1
  H  367  1  0.14333700  0.44072300  0.54526000  1
  H  368  1  0.11723100  0.40268200  0.59284600  1
  H  371  1  0.11316400  0.36261500  0.58494800  1
  H  372  1  0.10217600  0.35069100  0.60538900  1
  H  373  1  0.08288400  0.40533800  0.51645700  1
  H  374  1  0.07375500  0.38722200  0.53357100  1
  H  381  1  0.86658000  0.09139700  0.06043100  1
  H  382  1  0.89368200  0.12851300  0.10825400  1
  H  389  1  0.77890900  0.06041000  0.04526600  1
  H  390  1  0.80509100  0.09831000  0.09292600  1
  H  393  1  0.80888900  0.13850100  0.08499400  1
  H  394  1  0.81979900  0.15038200  0.10549400  1
  H  395  1  0.83917000  0.09615800  0.01640300  1
  H  396  1  0.84833600  0.11419700  0.03357100  1
  H  403  1  0.61870200  0.65504300  0.31006700  1
  H  404  1  0.57862700  0.68203100  0.35598300  1
  H  411  1  0.65907300  0.56948400  0.30522600  1
  H  412  1  0.61319700  0.59480400  0.34659900  1
  H  415  1  0.57401400  0.59597000  0.33530800  1
  H  416  1  0.56036900  0.60711000  0.35478400  1
  H  417  1  0.61829800  0.62172500  0.26816900  1
  H  418  1  0.59894100  0.63104000  0.28395900  1
  H  425  1  0.30410600  0.84535200  0.81000000  1
  H  426  1  0.34415400  0.81842200  0.85595300  1
  H  433  1  0.26379900  0.93094000  0.80498000  1
  H  434  1  0.30941400  0.90552100  0.84654100  1
  H  437  1  0.34862700  0.90456800  0.83539900  1
  H  438  1  0.36222400  0.89339300  0.85487700  1
  H  439  1  0.30458500  0.87857100  0.76807000  1
  H  440  1  0.32387100  0.86916800  0.78387500  1
  H  447  1  0.05499000  0.09336900  0.05116000  1
  H  448  1  0.02807900  0.12784000  0.00161400  1
  H  455  1  0.14260500  0.06334200  0.06753900  1
  H  456  1  0.11666300  0.09997700  0.01896000  1
  H  459  1  0.11230400  0.14043600  0.02593200  1
  H  460  1  0.10154100  0.15148500  0.00497300  1
  H  461  1  0.08186400  0.09953100  0.09524200  1
  H  462  1  0.07272800  0.11710100  0.07763200  1
  H  469  1  0.86718000  0.40848600  0.55116600  1
  H  470  1  0.89400000  0.37430700  0.50139000  1
  H  477  1  0.77965700  0.43866300  0.56767700  1
  H  478  1  0.80567800  0.40261600  0.51874700  1
  H  481  1  0.80968300  0.36195700  0.52554300  1
  H  482  1  0.82039500  0.35098700  0.50452700  1
  H  483  1  0.84009500  0.40169900  0.59517800  1
  H  484  1  0.84926000  0.38440300  0.57735300  1
  H  491  1  0.61757500  0.84464300  0.30128200  1
  H  492  1  0.57991300  0.81763300  0.25375700  1
  H  499  1  0.65685600  0.93060500  0.30717200  1
  H  500  1  0.61227400  0.90503700  0.26482600  1
  H  503  1  0.57275100  0.90334500  0.27538800  1
  H  504  1  0.55988100  0.89226800  0.25545300  1
  H  505  1  0.61581400  0.87778000  0.34325700  1
  H  506  1  0.59695300  0.86832500  0.32704300  1
  H  513  1  0.30520700  0.65579000  0.80120700  1
  H  514  1  0.34290700  0.68271900  0.75367500  1
  H  521  1  0.26567600  0.56994400  0.80700400  1
  H  522  1  0.31026700  0.59550100  0.76465900  1
  H  525  1  0.34978900  0.59689300  0.77516200  1
  H  526  1  0.36266000  0.60800500  0.75524800  1
  H  527  1  0.30691500  0.62261200  0.84316000  1
  H  528  1  0.32574800  0.63214200  0.82697300  1
  H  535  1  0.86593200  0.59222200  0.55251200  1
  H  536  1  0.89236300  0.63137100  0.50562900  1
  H  543  1  0.77926300  0.55393800  0.55944800  1
  H  544  1  0.80677800  0.59609200  0.51596900  1
  H  547  1  0.80646400  0.63625600  0.52714700  1
  H  548  1  0.81735300  0.64968200  0.50742200  1
  H  549  1  0.83298300  0.59395400  0.59487700  1
  H  550  1  0.84269700  0.61259200  0.57859100  1
  H  557  1  0.05598000  0.90830800  0.05240100  1
  H  558  1  0.02928600  0.86918900  0.00566200  1
  H  565  1  0.14299600  0.94588600  0.05871500  1
  H  566  1  0.11539200  0.90275900  0.01611400  1
  H  569  1  0.11480900  0.86287200  0.02790600  1
  H  570  1  0.10385600  0.84949700  0.00817200  1
  H  571  1  0.08865100  0.90737600  0.09477500  1
  H  572  1  0.07887900  0.88837500  0.07887500  1
  H  579  1  0.30320900  0.34538600  0.80171800  1
  H  580  1  0.34097800  0.31784300  0.75435600  1
  H  587  1  0.26679200  0.43210300  0.81130100  1
  H  588  1  0.30581100  0.40473300  0.76526700  1
  H  591  1  0.34633600  0.40425700  0.77397700  1
  H  592  1  0.35900200  0.39301200  0.75403500  1
  H  593  1  0.30902100  0.37820300  0.84401800  1
  H  594  1  0.32640700  0.36840000  0.82659900  1
  H  601  1  0.61848200  0.15519800  0.30163500  1
  H  602  1  0.58081800  0.18261400  0.25415200  1
  H  609  1  0.65487100  0.06855100  0.31153600  1
  H  610  1  0.61600300  0.09578100  0.26532900  1
  H  613  1  0.57549200  0.09617100  0.27382800  1
  H  614  1  0.56290400  0.10742400  0.25385500  1
  H  615  1  0.61258600  0.12259100  0.34400900  1
  H  616  1  0.59524700  0.13239800  0.32656300  1
  H  623  1  0.86711700  0.90632200  0.05976000  1
  H  624  1  0.89391500  0.86952800  0.10800500  1
  H  631  1  0.77998200  0.94322000  0.05272300  1
  H  632  1  0.80761700  0.90084900  0.09592600  1
  H  635  1  0.80878900  0.86065500  0.08481000  1
  H  636  1  0.81974200  0.84798100  0.10494300  1
  H  637  1  0.83469500  0.90428300  0.01729000  1
  H  638  1  0.84457200  0.88564100  0.03351400  1
  H  645  1  0.05474600  0.59478700  0.55984800  1
  H  646  1  0.02817600  0.63131500  0.60836500  1
  H  653  1  0.14197600  0.55815000  0.55213200  1
  H  654  1  0.11455900  0.60015800  0.59573900  1
  H  657  1  0.11312400  0.64039000  0.58485000  1
  H  658  1  0.10229300  0.65289600  0.60512300  1
  H  659  1  0.08689300  0.59714300  0.51725400  1
  H  660  1  0.07708100  0.61565400  0.53363700  1
  H  667  1  0.30407400  0.15583600  0.81068700  1
  H  668  1  0.33951500  0.18300600  0.85965900  1
  H  675  1  0.26859700  0.06895300  0.79976700  1
  H  676  1  0.30630200  0.09615700  0.84674800  1
  H  679  1  0.34716200  0.09703600  0.83869000  1
  H  680  1  0.35912100  0.10806000  0.85909100  1
  H  681  1  0.31123400  0.12339800  0.76826600  1
  H  682  1  0.32808600  0.13318900  0.78612200  1
  H  689  1  0.61729200  0.34471900  0.31042800  1
  H  690  1  0.58225500  0.31750500  0.35961400  1
  H  697  1  0.65268300  0.43158600  0.29953400  1
  H  698  1  0.61518000  0.40424800  0.34656900  1
  H  701  1  0.57426800  0.40350600  0.33869400  1
  H  702  1  0.56248300  0.39240900  0.35914500  1
  H  703  1  0.61001200  0.37709700  0.26803700  1
  H  704  1  0.59323900  0.36719000  0.28588900  1
  H  711  1  0.63665800  0.94632700  0.01220200  1
  H  718  1  0.56745200  0.02289700  0.01785600  1
  H  719  1  0.57372200  0.05843600  0.03194100  1
  H  720  1  0.64254300  0.05210500  0.01995400  1
  H  721  1  0.57756800  0.94935000  0.04638200  1
  H  724  1  0.65305700  0.00689900  0.02050100  1
  H  725  1  0.65318500  0.01954500  0.99591100  1
  H  726  1  0.65100800  0.97758200  0.99450300  1
  H  727  1  0.62907200  0.99126400  0.98150300  1
  H  737  1  0.28605000  0.55367300  0.51192300  1
  H  744  1  0.35525900  0.47721000  0.51798300  1
  H  745  1  0.34898900  0.44165600  0.53199100  1
  H  746  1  0.28022600  0.44779900  0.51963900  1
  H  747  1  0.34475400  0.55057900  0.54664800  1
  H  750  1  0.26964300  0.49302600  0.52022800  1
  H  751  1  0.26961400  0.48041000  0.49562400  1
  H  752  1  0.27178200  0.52236500  0.49423800  1
  H  753  1  0.29380000  0.50871200  0.48133300  1
  H  763  1  0.15952000  0.07712900  0.75789400  1
  H  770  1  0.23670300  0.14562700  0.76330700  1
  H  771  1  0.27125100  0.13822500  0.77871300  1
  H  772  1  0.26446900  0.06995300  0.76454400  1
  H  773  1  0.16365900  0.13560800  0.79283800  1
  H  776  1  0.21964000  0.06009200  0.76409300  1
  H  777  1  0.23201100  0.06073900  0.73939200  1
  H  778  1  0.18996200  0.06333900  0.73865200  1
  H  779  1  0.20366400  0.08546300  0.72598400  1
  H  789  1  0.76163100  0.42400300  0.25784100  1
  H  796  1  0.68475800  0.35516400  0.26313900  1
  H  797  1  0.65006900  0.36239200  0.27841400  1
  H  798  1  0.65664300  0.43070100  0.26421800  1
  H  799  1  0.75769800  0.36560400  0.29290800  1
  H  802  1  0.70136600  0.44081600  0.26378200  1
  H  803  1  0.68909200  0.43994900  0.23904600  1
  H  804  1  0.73117300  0.43759100  0.23848000  1
  H  805  1  0.71764300  0.41533700  0.22584400  1
  H  815  1  0.63587900  0.55720500  0.60088400  1
  H  822  1  0.56773100  0.47978200  0.59520800  1
  H  823  1  0.57456500  0.44454300  0.58067700  1
  H  824  1  0.64334700  0.45190200  0.59230300  1
  H  825  1  0.57672800  0.55358700  0.56685500  1
  H  828  1  0.65307200  0.49720500  0.59235700  1
  H  829  1  0.65347100  0.48426800  0.61681700  1
  H  830  1  0.65058500  0.52617900  0.61864400  1
  H  831  1  0.62892000  0.51201300  0.63155500  1
  H  841  1  0.28658100  0.94343900  0.10019000  1
  H  848  1  0.35469100  0.02074500  0.09397100  1
  H  849  1  0.34796900  0.05616000  0.07980500  1
  H  850  1  0.27919100  0.04902200  0.09158300  1
  H  851  1  0.34544200  0.94699800  0.06574000  1
  H  854  1  0.26937200  0.00355800  0.09131300  1
  H  855  1  0.26893000  0.01650900  0.11576600  1
  H  856  1  0.27182200  0.97462700  0.11768200  1
  H  857  1  0.29351900  0.98880200  0.13053900  1
  H  867  1  0.15710400  0.42334800  0.85388900  1
  H  874  1  0.23487000  0.35542000  0.84827800  1
  H  875  1  0.26938100  0.36297700  0.83286200  1
  H  876  1  0.26187000  0.43132200  0.84646500  1
  H  877  1  0.16145900  0.36468400  0.81922400  1
  H  880  1  0.21684300  0.44077300  0.84709300  1
  H  881  1  0.22951300  0.44045800  0.87167100  1
  H  882  1  0.18752700  0.43744200  0.87289100  1
  H  883  1  0.20163100  0.41553700  0.88553500  1
  H  893  1  0.76466200  0.07786200  0.35406300  1
  H  900  1  0.68671000  0.14552800  0.34817400  1
  H  901  1  0.65216200  0.13783400  0.33284600  1
  H  902  1  0.65993300  0.06955100  0.34668400  1
  H  903  1  0.76020100  0.13632200  0.31913300  1
  H  906  1  0.70495600  0.06019000  0.34739600  1
  H  907  1  0.69228000  0.06069600  0.37196900  1
  H  908  1  0.73427400  0.06380500  0.37315000  1
  H  909  1  0.72011800  0.08577000  0.38566100  1
  H  919  1  0.76587800  0.92336200  0.35589100  1
  H  926  1  0.68872100  0.85517700  0.34744700  1
  H  927  1  0.65470400  0.86238600  0.33080200  1
  H  928  1  0.66201000  0.93111000  0.34280700  1
  H  929  1  0.76369000  0.86422700  0.32172400  1
  H  932  1  0.70714400  0.94045400  0.34557700  1
  H  933  1  0.69273100  0.94075400  0.36933300  1
  H  934  1  0.73447400  0.93757900  0.37325200  1
  H  935  1  0.71942000  0.91595100  0.38532800  1
  H  945  1  0.15673600  0.57731300  0.85587300  1
  H  952  1  0.23405000  0.64525300  0.84742600  1
  H  953  1  0.26803600  0.63801400  0.83077600  1
  H  954  1  0.26062700  0.56927800  0.84264800  1
  H  955  1  0.15911100  0.63642300  0.82167600  1
  H  958  1  0.21540500  0.56006700  0.84534900  1
  H  959  1  0.22984800  0.55958700  0.86908700  1
  H  960  1  0.18814200  0.56292400  0.87310300  1
  H  961  1  0.20330000  0.58446100  0.88520500  1
  H  971  1  0.76877900  0.57841300  0.25537200  1
  H  978  1  0.69061700  0.64529600  0.26479400  1
  H  979  1  0.65670300  0.63765600  0.28140800  1
  H  980  1  0.66509200  0.56899700  0.26966700  1
  H  981  1  0.76597000  0.63736600  0.28975300  1
  H  984  1  0.71064800  0.56042900  0.26669400  1
  H  985  1  0.69582100  0.55964100  0.24316600  1
  H  986  1  0.73736400  0.56363000  0.23850000  1
  H  987  1  0.72163900  0.58492500  0.22661800  1
  H  997  1  0.15414800  0.92248500  0.75563900  1
  H  1004  1  0.23203500  0.85525800  0.76484800  1
  H  1005  1  0.26609500  0.86278200  0.78128700  1
  H  1006  1  0.25795200  0.93144300  0.76934500  1
  H  1007  1  0.15686800  0.86373400  0.79030200  1
  H  1010  1  0.21250200  0.94027900  0.76647000  1
  H  1011  1  0.22715600  0.94076100  0.74284400  1
  H  1012  1  0.18553300  0.93700700  0.73850000  1
  H  1013  1  0.20103500  0.91552900  0.72664000  1
  H  1023  1  0.13413100  0.44603100  0.50707900  1
  H  1030  1  0.06580600  0.52303600  0.51591400  1
  H  1031  1  0.07283000  0.55803800  0.53072000  1
  H  1032  1  0.14124100  0.55136600  0.51702200  1
  H  1033  1  0.07622000  0.44885200  0.54293400  1
  H  1036  1  0.15126800  0.50602800  0.51620400  1
  H  1037  1  0.15082700  0.51939100  0.49194000  1
  H  1038  1  0.14814800  0.47750200  0.48956000  1
  H  1039  1  0.12600600  0.49178400  0.47743400  1
  H  1049  1  0.78790900  0.05537900  0.00702800  1
  H  1056  1  0.85597000  0.97824400  0.01602100  1
  H  1057  1  0.84893800  0.94330500  0.03091900  1
  H  1058  1  0.78045200  0.95012600  0.01759700  1
  H  1059  1  0.84581300  0.05249400  0.04287600  1
  H  1062  1  0.77061300  0.99559000  0.01665900  1
  H  1063  1  0.77077800  0.98202800  0.99248500  1
  H  1064  1  0.77368800  0.02386000  0.98975400  1
  H  1065  1  0.79568800  0.00935900  0.97763300  1
  H  1075  1  0.13329100  0.05868600  0.10555200  1
  H  1082  1  0.06641200  0.98083200  0.09545800  1
  H  1083  1  0.07390200  0.94600800  0.08049500  1
  H  1084  1  0.14231600  0.95362700  0.09372100  1
  H  1085  1  0.07563800  0.05551400  0.06940200  1
  H  1088  1  0.15146000  0.99939600  0.09507400  1
  H  1089  1  0.15155400  0.98540000  0.11903700  1
  H  1090  1  0.14793500  0.02710800  0.12244900  1
  H  1091  1  0.12616400  0.01205800  0.13431700  1
  H  1101  1  0.78874900  0.44249900  0.60580600  1
  H  1108  1  0.85577200  0.52048700  0.59704700  1
  H  1109  1  0.84819700  0.55509000  0.58166400  1
  H  1110  1  0.77973200  0.54721200  0.59461600  1
  H  1111  1  0.84679900  0.44599300  0.57023100  1
  H  1114  1  0.77065500  0.50172200  0.59623200  1
  H  1115  1  0.77066300  0.51553400  0.62028500  1
  H  1116  1  0.77422900  0.47374100  0.62331300  1
  H  1117  1  0.79597200  0.48867600  0.63534300  1
  H  1127  1  0.40044300  0.88448500  0.06726400  1
  H  1134  1  0.48853800  0.89124400  0.02946400  1
  H  1135  1  0.52462500  0.88542800  0.04240700  1
  H  1136  1  0.50226300  0.90054600  0.10208800  1
  H  1137  1  0.41784800  0.90624000  0.00810100  1
  H  1140  1  0.45397400  0.92489100  0.09227500  1
  H  1141  1  0.46313200  0.90353300  0.10901000  1
  H  1142  1  0.42440100  0.89723600  0.09591500  1
  H  1143  1  0.44254600  0.87494900  0.08944200  1
  H  1153  1  0.52211100  0.61579800  0.56738300  1
  H  1160  1  0.43404500  0.60850800  0.52957300  1
  H  1161  1  0.39793100  0.61420900  0.54246900  1
  H  1162  1  0.42032600  0.59948900  0.60221600  1
  H  1163  1  0.50484500  0.59363000  0.50831800  1
  H  1166  1  0.46875000  0.57534800  0.59254200  1
  H  1167  1  0.45946100  0.59675000  0.60916700  1
  H  1168  1  0.49815800  0.60320900  0.59607400  1
  H  1169  1  0.47988700  0.62534000  0.58945300  1
  H  1179  1  0.09603300  0.31164400  0.81775400  1
  H  1186  1  0.10203600  0.22340600  0.77921700  1
  H  1187  1  0.09737800  0.18698900  0.79185400  1
  H  1188  1  0.11247800  0.20906800  0.85161700  1
  H  1189  1  0.11780000  0.29462400  0.75850800  1
  H  1192  1  0.13550200  0.25782700  0.84230200  1
  H  1193  1  0.11415900  0.24827400  0.85885800  1
  H  1194  1  0.10729800  0.28702100  0.84616900  1
  H  1195  1  0.08542300  0.26864800  0.83917500  1
  H  1205  1  0.82516000  0.18961300  0.31778500  1
  H  1212  1  0.81902500  0.27777400  0.27919300  1
  H  1213  1  0.82379500  0.31419800  0.29178500  1
  H  1214  1  0.80883900  0.29221100  0.35161200  1
  H  1215  1  0.80331100  0.20658800  0.25855200  1
  H  1218  1  0.78566400  0.24350100  0.34236500  1
  H  1219  1  0.80705000  0.25301000  0.35889300  1
  H  1220  1  0.81376400  0.21422500  0.34620600  1
  H  1221  1  0.83570700  0.23252400  0.33922300  1
  H  1231  1  0.52143000  0.11886400  0.04285000  1
  H  1238  1  0.43459600  0.11227800  0.08305700  1
  H  1239  1  0.39807300  0.11810900  0.07104000  1
  H  1240  1  0.41856400  0.10253600  0.01088400  1
  H  1241  1  0.50585100  0.09739300  0.10253000  1
  H  1244  1  0.46709200  0.07812200  0.01956100  1
  H  1245  1  0.45742200  0.09932700  0.00290400  1
  H  1246  1  0.49657600  0.10567700  0.01490800  1
  H  1247  1  0.47867900  0.12807400  0.02163800  1
  H  1257  1  0.40130700  0.38114200  0.54300700  1
  H  1264  1  0.48825400  0.38798700  0.58316300  1
  H  1265  1  0.52483500  0.38255100  0.57112900  1
  H  1266  1  0.50415500  0.39797600  0.51100400  1
  H  1267  1  0.41684200  0.40276100  0.60264700  1
  H  1270  1  0.45543400  0.42189100  0.51966000  1
  H  1271  1  0.46525500  0.40071600  0.50304600  1
  H  1272  1  0.42617200  0.39405800  0.51504800  1
  H  1273  1  0.44425400  0.37185400  0.52189900  1
  H  1283  1  0.82586600  0.68936000  0.29444400  1
  H  1290  1  0.82017100  0.77788000  0.33212000  1
  H  1291  1  0.82483200  0.81414500  0.31912700  1
  H  1292  1  0.80887900  0.79152900  0.25970900  1
  H  1293  1  0.80385900  0.70696000  0.35348900  1
  H  1296  1  0.78618700  0.74278800  0.26954400  1
  H  1297  1  0.80741400  0.75223000  0.25280900  1
  H  1298  1  0.81449400  0.71364300  0.26581600  1
  H  1299  1  0.83632500  0.73217100  0.27257800  1
  H  1309  1  0.09728300  0.81171000  0.79470400  1
  H  1316  1  0.10277200  0.72316800  0.83236000  1
  H  1317  1  0.09794900  0.68691500  0.81937000  1
  H  1318  1  0.11385400  0.70948500  0.75992300  1
  H  1319  1  0.11924500  0.79399900  0.85373500  1
  H  1322  1  0.13678500  0.75811000  0.76974400  1
  H  1323  1  0.11549200  0.74878500  0.75302300  1
  H  1324  1  0.10864800  0.78741100  0.76605400  1
  H  1325  1  0.08670900  0.76900400  0.77280100  1
  H  1335  1  0.89987000  0.38603400  0.56673200  1
  H  1342  1  0.98856600  0.39244700  0.52963900  1
  H  1343  1  0.02468800  0.38745500  0.54283400  1
  H  1344  1  0.00162900  0.40268000  0.60227800  1
  H  1345  1  0.91778600  0.40856900  0.50794400  1
  H  1348  1  0.95298000  0.42570900  0.59229700  1
  H  1349  1  0.96230700  0.40432500  0.60893200  1
  H  1350  1  0.92382300  0.39742400  0.59560300  1
  H  1351  1  0.94240700  0.37561100  0.58883900  1
  H  1361  1  0.02223300  0.11566000  0.06688200  1
  H  1368  1  0.93361700  0.10934400  0.02970500  1
  H  1369  1  0.89748000  0.11421500  0.04288900  1
  H  1370  1  0.92048400  0.09864400  0.10227100  1
  H  1371  1  0.00440600  0.09345300  0.00796300  1
  H  1374  1  0.96917600  0.07572500  0.09222000  1
  H  1375  1  0.95979800  0.09699800  0.10895000  1
  H  1376  1  0.99828200  0.10403800  0.09568400  1
  H  1377  1  0.97966800  0.12586000  0.08901000  1
  H  1387  1  0.59351300  0.81141500  0.31802800  1
  H  1394  1  0.59931800  0.72287800  0.27904600  1
  H  1395  1  0.59493300  0.68629700  0.29154500  1
  H  1396  1  0.60938400  0.70836800  0.35142500  1
  H  1397  1  0.61545200  0.79446900  0.25884800  1
  H  1400  1  0.63214200  0.75716400  0.34253400  1
  H  1401  1  0.61061900  0.74752700  0.35884500  1
  H  1402  1  0.60384900  0.78633800  0.34636900  1
  H  1403  1  0.58210400  0.76800800  0.33895800  1
  H  1413  1  0.32934700  0.68897200  0.81794400  1
  H  1420  1  0.32357200  0.77755100  0.77898300  1
  H  1421  1  0.32791100  0.81413900  0.79149200  1
  H  1422  1  0.31346900  0.79202700  0.85136800  1
  H  1423  1  0.30742000  0.70595500  0.75877000  1
  H  1426  1  0.29076500  0.74323200  0.84245700  1
  H  1427  1  0.31228600  0.75285700  0.85877800  1
  H  1428  1  0.31905400  0.71404900  0.84629000  1
  H  1429  1  0.34080100  0.73238000  0.83888400  1
  H  1439  1  0.02149800  0.61788000  0.54370900  1
  H  1446  1  0.93359000  0.61159400  0.58285000  1
  H  1447  1  0.89703300  0.61616000  0.57037100  1
  H  1448  1  0.91883000  0.60070600  0.51057700  1
  H  1449  1  0.00503100  0.59612300  0.60308800  1
  H  1452  1  0.96774800  0.57789700  0.51971800  1
  H  1453  1  0.95794500  0.59906400  0.50308000  1
  H  1454  1  0.99674600  0.60619900  0.51547900  1
  H  1455  1  0.97829700  0.62805200  0.52244400  1
  H  1465  1  0.90043300  0.88324900  0.04345600  1
  H  1472  1  0.98808900  0.88967800  0.08272100  1
  H  1473  1  0.02461200  0.88473900  0.07033800  1
  H  1474  1  0.00310300  0.90012600  0.01044500  1
  H  1475  1  0.91677500  0.90508100  0.10284600  1
  H  1478  1  0.95427900  0.92338100  0.01946900  1
  H  1479  1  0.96403700  0.90216300  0.00286600  1
  H  1480  1  0.92516500  0.89523800  0.01523000  1
  H  1481  1  0.94349900  0.87327600  0.02216600  1
  H  1491  1  0.32717100  0.18877400  0.79469500  1
  H  1498  1  0.32215000  0.27789500  0.83247800  1
  H  1499  1  0.32645800  0.31427000  0.81946500  1
  H  1500  1  0.31102000  0.29135500  0.76005200  1
  H  1501  1  0.30524300  0.20668100  0.85365100  1
  H  1504  1  0.28862100  0.24265400  0.76969200  1
  H  1505  1  0.31003200  0.25205700  0.75313900  1
  H  1506  1  0.31697800  0.21346000  0.76607100  1
  H  1507  1  0.33870100  0.23195000  0.77319100  1
  H  1517  1  0.59432000  0.31174000  0.29454900  1
  H  1524  1  0.59960700  0.22266600  0.33232000  1
  H  1525  1  0.59529800  0.18628200  0.31932300  1
  H  1526  1  0.61061700  0.20919300  0.25987500  1
  H  1527  1  0.61645100  0.29387900  0.35345500  1
  H  1530  1  0.63296300  0.25792000  0.26948000  1
  H  1531  1  0.61153700  0.24849900  0.25295100  1
  H  1532  1  0.60458600  0.28709400  0.26590000  1
  H  1533  1  0.58287800  0.26858900  0.27302600  1
  H  1543  1  0.54491900  0.83407200  0.12950700  1
  H  1550  1  0.60481000  0.87125700  0.19482300  1
  H  1551  1  0.60613600  0.86980200  0.23087700  1
  H  1552  1  0.54300600  0.83901700  0.23229800  1
  H  1553  1  0.58551800  0.89105500  0.12820100  1
  H  1556  1  0.52291300  0.85100400  0.18797500  1
  H  1557  1  0.52726900  0.82497200  0.20016700  1
  H  1558  1  0.52919900  0.82191800  0.16195600  1
  H  1559  1  0.55440300  0.81353600  0.17381600  1
  H  1569  1  0.37779800  0.66592200  0.62933000  1
  H  1576  1  0.31767400  0.62936400  0.69476800  1
  H  1577  1  0.31642800  0.63083300  0.73083000  1
  H  1578  1  0.37979000  0.66116200  0.73213700  1
  H  1579  1  0.33682700  0.60921100  0.62819400  1
  H  1582  1  0.39971200  0.64902200  0.68780600  1
  H  1583  1  0.39554100  0.67510700  0.69995400  1
  H  1584  1  0.39359400  0.67808500  0.66173500  1
  H  1585  1  0.36846800  0.68667600  0.67360800  1
  H  1595  1  0.04661900  0.16295300  0.87782700  1
  H  1602  1  0.08610400  0.10618000  0.94443600  1
  H  1603  1  0.08329700  0.10472200  0.98043000  1
  H  1604  1  0.04764100  0.16529900  0.98064000  1
  H  1605  1  0.10643200  0.12655600  0.87820300  1
  H  1608  1  0.05993200  0.18625600  0.93666200  1
  H  1609  1  0.03386700  0.18009400  0.94809900  1
  H  1610  1  0.03228700  0.17785000  0.90984400  1
  H  1611  1  0.02539100  0.15212200  0.92154000  1
  H  1621  1  0.87503600  0.33861900  0.37757100  1
  H  1628  1  0.83542300  0.39547500  0.44402600  1
  H  1629  1  0.83845100  0.39726000  0.47999800  1
  H  1630  1  0.87462800  0.33698000  0.48043600  1
  H  1631  1  0.81486000  0.37443900  0.37805800  1
  H  1634  1  0.86226900  0.31557800  0.43667700  1
  H  1635  1  0.88836100  0.32206800  0.44790700  1
  H  1636  1  0.88963300  0.32399100  0.40962400  1
  H  1637  1  0.89640400  0.34987600  0.42109000  1
  H  1647  1  0.54299300  0.66465700  0.48044200  1
  H  1654  1  0.60498000  0.62995500  0.41567500  1
  H  1655  1  0.60656000  0.63140700  0.37962900  1
  H  1656  1  0.54204100  0.65924800  0.37765300  1
  H  1657  1  0.58610900  0.60950400  0.48221800  1
  H  1660  1  0.52219300  0.64641700  0.42189600  1
  H  1661  1  0.52534300  0.67259000  0.40965400  1
  H  1662  1  0.52684400  0.67583800  0.44787200  1
  H  1663  1  0.55168900  0.68539200  0.43614300  1
  H  1673  1  0.37957100  0.83512600  0.98038900  1
  H  1680  1  0.31780600  0.87038500  0.91569000  1
  H  1681  1  0.31625600  0.86909800  0.87963900  1
  H  1682  1  0.38065700  0.84097200  0.87762500  1
  H  1683  1  0.33667200  0.89043000  0.98232500  1
  H  1686  1  0.40050300  0.85355500  0.92195100  1
  H  1687  1  0.39728300  0.82745600  0.90959400  1
  H  1688  1  0.39570700  0.82402500  0.94779500  1
  H  1689  1  0.37085200  0.81461200  0.93599100  1
  H  1699  1  0.04712200  0.33672600  0.73213300  1
  H  1706  1  0.08479700  0.39567800  0.66638900  1
  H  1707  1  0.08220800  0.39747800  0.63039900  1
  H  1708  1  0.04910100  0.33552700  0.62928800  1
  H  1709  1  0.10545600  0.37535500  0.73251900  1
  H  1712  1  0.06196100  0.31455700  0.67316300  1
  H  1713  1  0.03574000  0.31975600  0.66160900  1
  H  1714  1  0.03380900  0.32147900  0.69988400  1
  H  1715  1  0.02584600  0.34701900  0.68838800  1
  H  1725  1  0.87446600  0.16455300  0.23229000  1
  H  1732  1  0.83672700  0.10575600  0.16647200  1
  H  1733  1  0.83953100  0.10383900  0.13050000  1
  H  1734  1  0.87301600  0.16559800  0.12941800  1
  H  1735  1  0.81590000  0.12625300  0.23249400  1
  H  1738  1  0.86000500  0.18674200  0.17318900  1
  H  1739  1  0.88626700  0.18138400  0.16177500  1
  H  1740  1  0.88796500  0.17974100  0.20006100  1
  H  1741  1  0.89586400  0.15413100  0.18865900  1
  H  1751  1  0.37416800  0.16925200  0.98379000  1
  H  1758  1  0.31691300  0.12733100  0.91910700  1
  H  1759  1  0.31492900  0.12880900  0.88307400  1
  H  1760  1  0.37578500  0.16384400  0.88097300  1
  H  1761  1  0.33806000  0.10933000  0.98554400  1
  H  1764  1  0.39719800  0.15330300  0.92514800  1
  H  1765  1  0.39097300  0.17892400  0.91290600  1
  H  1766  1  0.38919600  0.18195800  0.95114200  1
  H  1767  1  0.36338800  0.18862600  0.93945500  1
  H  1777  1  0.54874700  0.33174000  0.48407800  1
  H  1784  1  0.60548500  0.37319600  0.41874500  1
  H  1785  1  0.60704900  0.37162500  0.38269100  1
  H  1786  1  0.54609800  0.33670100  0.38126200  1
  H  1787  1  0.58492200  0.39162800  0.48527300  1
  H  1790  1  0.52521100  0.34738800  0.42559800  1
  H  1791  1  0.53128200  0.32170800  0.41339300  1
  H  1792  1  0.53346100  0.31882700  0.45162000  1
  H  1793  1  0.55913800  0.31209000  0.43972500  1
  H  1803  1  0.87363100  0.83615400  0.23252200  1
  H  1810  1  0.83740100  0.89404400  0.16532400  1
  H  1811  1  0.84033200  0.89496900  0.12933200  1
  H  1812  1  0.87282600  0.83263200  0.12968100  1
  H  1813  1  0.81535900  0.87497900  0.23145500  1
  H  1816  1  0.85970600  0.81282700  0.17381800  1
  H  1817  1  0.88607300  0.81776700  0.16246100  1
  H  1818  1  0.88752600  0.82031300  0.20072000  1
  H  1819  1  0.89560800  0.84559000  0.18883600  1
  H  1829  1  0.04865800  0.66463200  0.73286200  1
  H  1836  1  0.08551100  0.60724000  0.66560000  1
  H  1837  1  0.08236700  0.60616700  0.62962900  1
  H  1838  1  0.04895200  0.66802500  0.63000600  1
  H  1839  1  0.10745900  0.62659700  0.73165400  1
  H  1842  1  0.06208400  0.68812300  0.67405200  1
  H  1843  1  0.03572800  0.68282300  0.66280900  1
  H  1844  1  0.03449200  0.68032300  0.70107500  1
  H  1845  1  0.02668900  0.65491500  0.68926600  1
  H  1855  1  0.37702100  0.33171300  0.63010900  1
  H  1862  1  0.31693800  0.37137500  0.69384900  1
  H  1863  1  0.31465800  0.37022700  0.72988000  1
  H  1864  1  0.37724300  0.33835500  0.73287200  1
  H  1865  1  0.33781100  0.38966200  0.62740500  1
  H  1868  1  0.39852700  0.34958000  0.68876300  1
  H  1869  1  0.39362100  0.32379700  0.70120700  1
  H  1870  1  0.39241000  0.32025000  0.66299100  1
  H  1871  1  0.36689200  0.31231700  0.67452600  1
  H  1881  1  0.54550800  0.16869900  0.12978200  1
  H  1888  1  0.60521400  0.12906700  0.19383800  1
  H  1889  1  0.60728000  0.13021900  0.22988100  1
  H  1890  1  0.54469100  0.16213400  0.23254500  1
  H  1891  1  0.58467100  0.11071800  0.12731600  1
  H  1894  1  0.52367300  0.15090500  0.18832300  1
  H  1895  1  0.52851600  0.17669000  0.20078700  1
  H  1896  1  0.52996600  0.18022300  0.16257600  1
  H  1897  1  0.55541200  0.18815100  0.17424500  1
  H  1907  1  0.87297500  0.66595000  0.38107500  1
  H  1914  1  0.83768300  0.60569500  0.44675000  1
  H  1915  1  0.84016800  0.60407000  0.48275000  1
  H  1916  1  0.87031100  0.66752700  0.48395000  1
  H  1917  1  0.81602900  0.62527900  0.38068700  1
  H  1920  1  0.85705400  0.68776800  0.43995400  1
  H  1921  1  0.88341200  0.68360700  0.45160200  1
  H  1922  1  0.88554400  0.68187000  0.41332300  1
  H  1923  1  0.89446900  0.65669700  0.42490900  1
  H  1933  1  0.04954700  0.83509300  0.88098400  1
  H  1940  1  0.08501400  0.89438700  0.94729600  1
  H  1941  1  0.08213100  0.89585400  0.98326800  1
  H  1942  1  0.05108800  0.83281300  0.98388400  1
  H  1943  1  0.10701300  0.87504500  0.88130100  1
  H  1946  1  0.06460300  0.81264500  0.93990600  1
  H  1947  1  0.03817100  0.81707300  0.95133100  1
  H  1948  1  0.03648800  0.81907000  0.91304300  1
  H  1949  1  0.02775600  0.84428500  0.92467600  1
  H  1959  1  0.76720900  0.88780800  0.09313400  1
  H  1966  1  0.68896100  0.95371200  0.10801600  1
  H  1967  1  0.65238900  0.95151000  0.09427200  1
  H  1968  1  0.66286100  0.88389400  0.07955200  1
  H  1969  1  0.76586600  0.95714600  0.08472100  1
  H  1972  1  0.70920700  0.87606800  0.07659400  1
  H  1973  1  0.69488400  0.86515300  0.09818100  1
  H  1974  1  0.73619600  0.86720500  0.10366900  1
  H  1975  1  0.72064900  0.88208100  0.12216800  1
  H  1985  1  0.15516800  0.61320200  0.59269700  1
  H  1992  1  0.23293100  0.54664700  0.60730700  1
  H  1993  1  0.26959600  0.54865500  0.59377200  1
  H  1994  1  0.25968400  0.61638700  0.57919900  1
  H  1995  1  0.15598800  0.54389300  0.58407800  1
  H  1998  1  0.21330600  0.62446600  0.57603700  1
  H  1999  1  0.22769600  0.63531200  0.59761600  1
  H  2000  1  0.18640000  0.63354400  0.60314500  1
  H  2001  1  0.20184000  0.61851900  0.62161600  1
  H  2011  1  0.10459500  0.94582200  0.84284600  1
  H  2018  1  0.17503300  0.02122100  0.84812900  1
  H  2019  1  0.17164200  0.05843300  0.83607900  1
  H  2020  1  0.10192200  0.05073400  0.83197000  1
  H  2021  1  0.17098900  0.94532000  0.82256200  1
  H  2024  1  0.09201300  0.00471400  0.82931500  1
  H  2025  1  0.08579200  0.01873100  0.85258700  1
  H  2026  1  0.08748100  0.97727800  0.85697200  1
  H  2027  1  0.10626300  0.99179400  0.87299200  1
  H  2037  1  0.81814200  0.55506000  0.34252600  1
  H  2044  1  0.74681500  0.48042500  0.34797800  1
  H  2045  1  0.74986300  0.44321200  0.33589300  1
  H  2046  1  0.81966200  0.45023300  0.33191100  1
  H  2047  1  0.75165400  0.55637900  0.32258800  1
  H  2050  1  0.83010300  0.49603600  0.32931000  1
  H  2051  1  0.83604900  0.48199800  0.35263400  1
  H  2052  1  0.83486000  0.52349800  0.35688200  1
  H  2053  1  0.81589000  0.50924500  0.37291800  1
  H  2063  1  0.76703600  0.60889000  0.51768300  1
  H  2070  1  0.68639100  0.54567000  0.50429700  1
  H  2071  1  0.65003900  0.54946500  0.51816200  1
  H  2072  1  0.66352900  0.61656600  0.53268600  1
  H  2073  1  0.76416800  0.54004200  0.52832900  1
  H  2076  1  0.71046300  0.62256500  0.53481500  1
  H  2077  1  0.69590800  0.63368300  0.51343000  1
  H  2078  1  0.73676100  0.62992900  0.50667100  1
  H  2079  1  0.72015600  0.61498400  0.48904300  1
  H  2089  1  0.15522100  0.88932900  0.01895800  1
  H  2096  1  0.23510300  0.95293600  0.00382700  1
  H  2097  1  0.27163400  0.94987300  0.01755900  1
  H  2098  1  0.25944300  0.88273000  0.03291700  1
  H  2099  1  0.15829300  0.95867000  0.02705300  1
  H  2102  1  0.21277400  0.87625600  0.03591800  1
  H  2103  1  0.22691200  0.86467000  0.01451400  1
  H  2104  1  0.18572800  0.86781400  0.00875500  1
  H  2105  1  0.20175800  0.88209200  0.99022700  1
  H  2115  1  0.10543600  0.55513300  0.76910900  1
  H  2122  1  0.17443100  0.47829000  0.76341900  1
  H  2123  1  0.17031800  0.44121100  0.77556700  1
  H  2124  1  0.10078200  0.45039100  0.77976800  1
  H  2125  1  0.17210200  0.55439900  0.78861600  1
  H  2128  1  0.09179600  0.49656500  0.78245500  1
  H  2129  1  0.08523400  0.48271700  0.75918200  1
  H  2130  1  0.08768400  0.52414100  0.75487500  1
  H  2131  1  0.10610300  0.50926900  0.73875400  1
  H  2141  1  0.81700900  0.94606600  0.26922200  1
  H  2148  1  0.74769000  0.02259200  0.26354900  1
  H  2149  1  0.75160000  0.05970500  0.27569100  1
  H  2150  1  0.82117500  0.05084100  0.28001100  1
  H  2151  1  0.75032900  0.94644000  0.28866300  1
  H  2154  1  0.83038100  0.00467900  0.28270300  1
  H  2155  1  0.83690100  0.01860500  0.25945700  1
  H  2156  1  0.83465000  0.97717700  0.25508300  1
  H  2157  1  0.81618100  0.99199500  0.23896600  1
  H  2167  1  0.15663400  0.11301300  0.02023500  1
  H  2174  1  0.23144500  0.04348400  0.00754700  1
  H  2175  1  0.26943100  0.04552000  0.01787600  1
  H  2176  1  0.26286700  0.11489600  0.02679800  1
  H  2177  1  0.15848200  0.04609900  0.03903200  1
  H  2180  1  0.21727200  0.12505600  0.03222300  1
  H  2181  1  0.22957300  0.13282600  0.00853200  1
  H  2182  1  0.18780100  0.13146500  0.00668300  1
  H  2183  1  0.20105000  0.11382200  0.98872300  1
  H  2193  1  0.76571100  0.38988000  0.51950800  1
  H  2200  1  0.69067700  0.45968200  0.50841300  1
  H  2201  1  0.65281600  0.45711400  0.51889400  1
  H  2202  1  0.65980400  0.38756400  0.52605600  1
  H  2203  1  0.76405800  0.45645500  0.53927200  1
  H  2206  1  0.70537600  0.37748600  0.53104400  1
  H  2207  1  0.69299800  0.37033600  0.50722100  1
  H  2208  1  0.73473000  0.37186800  0.50524400  1
  H  2209  1  0.72136200  0.38998500  0.48776600  1
  H  2219  1  0.15658900  0.38892000  0.59115000  1
  H  2226  1  0.23369000  0.45541900  0.60481000  1
  H  2227  1  0.27157800  0.45237700  0.59438900  1
  H  2228  1  0.26287000  0.38349700  0.58404100  1
  H  2229  1  0.16054900  0.45621700  0.57379800  1
  H  2232  1  0.21676300  0.37513700  0.57834400  1
  H  2233  1  0.22892500  0.36619900  0.60175100  1
  H  2234  1  0.18724800  0.36898700  0.60390900  1
  H  2235  1  0.20119700  0.38562400  0.62221100  1
  H  2245  1  0.76564100  0.11180400  0.09148800  1
  H  2252  1  0.68899000  0.04477500  0.10509200  1
  H  2253  1  0.65109800  0.04762900  0.09460600  1
  H  2254  1  0.65944800  0.11661200  0.08451500  1
  H  2255  1  0.76207400  0.04457800  0.07385900  1
  H  2258  1  0.70543100  0.12535000  0.07898400  1
  H  2259  1  0.69323200  0.13398700  0.10247000  1
  H  2260  1  0.73494400  0.13145000  0.10454500  1
  H  2261  1  0.72112000  0.11459200  0.12275700  1
  H  2271  1  0.60385600  0.44553300  0.34613700  1
  H  2278  1  0.67373000  0.52117800  0.35548100  1
  H  2279  1  0.67112800  0.55861400  0.34400700  1
  H  2280  1  0.60199100  0.55067400  0.33524500  1
  H  2281  1  0.67123100  0.44433600  0.32926900  1
  H  2284  1  0.59277500  0.50422300  0.33119600  1
  H  2285  1  0.58447900  0.51833400  0.35387100  1
  H  2286  1  0.58604100  0.47712900  0.35891900  1
  H  2287  1  0.60376300  0.49178900  0.37582000  1
  H  2297  1  0.31794500  0.05513800  0.84616600  1
  H  2304  1  0.24839200  0.97923400  0.85468800  1
  H  2305  1  0.25128100  0.94176800  0.84324900  1
  H  2306  1  0.32062400  0.94960000  0.83571700  1
  H  2307  1  0.25050000  0.05522400  0.82916300  1
  H  2310  1  0.32980800  0.99591500  0.83151400  1
  H  2311  1  0.33791300  0.98215500  0.85442200  1
  H  2312  1  0.33621100  0.02354500  0.85876200  1
  H  2313  1  0.31861800  0.00904000  0.87589300  1
  H  2323  1  0.60441600  0.05501800  0.26583700  1
  H  2330  1  0.67320900  0.97830600  0.25695700  1
  H  2331  1  0.66998500  0.94091400  0.26847900  1
  H  2332  1  0.60076500  0.94952400  0.27618700  1
  H  2333  1  0.67212000  0.05450700  0.28193000  1
  H  2336  1  0.59209000  0.99595200  0.28048100  1
  H  2337  1  0.58370600  0.98228400  0.25761900  1
  H  2338  1  0.58575900  0.02365600  0.25329400  1
  H  2339  1  0.60307300  0.00896200  0.23604100  1
  H  2349  1  0.31748400  0.44544000  0.76576100  1
  H  2356  1  0.24907800  0.52245300  0.75665700  1
  H  2357  1  0.25243700  0.55983600  0.76818300  1
  H  2358  1  0.32160100  0.55089400  0.77605700  1
  H  2359  1  0.24973300  0.44622200  0.78162900  1
  H  2362  1  0.33007800  0.50444800  0.78036800  1
  H  2363  1  0.33853800  0.51806800  0.75750400  1
  H  2364  1  0.33631600  0.47669200  0.75321400  1
  H  2365  1  0.31910200  0.49145300  0.73592500  1
  H  2375  1  0.55620700  0.90746000  0.66186000  1
  H  2376  1  0.52793800  0.86936200  0.70824600  1
  H  2383  1  0.64343700  0.94125300  0.65326500  1
  H  2384  1  0.61777000  0.89570400  0.69498400  1
  H  2387  1  0.61202100  0.85690600  0.68412700  1
  H  2388  1  0.60064400  0.84446400  0.70416900  1
  H  2389  1  0.58480800  0.90740900  0.61878600  1
  H  2390  1  0.57549200  0.88744700  0.63396100  1
  H  2397  1  0.36632200  0.59231300  0.16195100  1
  H  2398  1  0.39457600  0.63058400  0.20824900  1
  H  2405  1  0.27898900  0.55888400  0.15294900  1
  H  2406  1  0.30460200  0.60435700  0.19480000  1
  H  2409  1  0.31056500  0.64309000  0.18392000  1
  H  2410  1  0.32192300  0.65560700  0.20393000  1
  H  2411  1  0.33793000  0.59253200  0.11874700  1
  H  2412  1  0.34726300  0.61244100  0.13397000  1
  H  2419  1  0.12112400  0.15604100  0.41071500  1
  H  2420  1  0.08206400  0.18220600  0.45759700  1
  H  2427  1  0.15758000  0.06994300  0.39929800  1
  H  2428  1  0.11383000  0.09405100  0.44350900  1
  H  2431  1  0.07436500  0.09737500  0.43366300  1
  H  2432  1  0.06150000  0.10795200  0.45382700  1
  H  2433  1  0.11996000  0.12763500  0.36702900  1
  H  2434  1  0.10058800  0.13621600  0.38320500  1
  H  2441  1  0.80014100  0.34518700  0.91068090  1
  H  2442  1  0.83933300  0.31904800  0.95748790  1
  H  2449  1  0.76377200  0.43132300  0.89922700  1
  H  2450  1  0.80756000  0.40716600  0.94338990  1
  H  2453  1  0.84697200  0.40394400  0.93353690  1
  H  2454  1  0.85988200  0.39331100  0.95364490  1
  H  2455  1  0.80119300  0.37347700  0.86695200  1
  H  2456  1  0.82057400  0.36479700  0.88306500  1
  H  2463  1  0.55552200  0.59404000  0.15179200  1
  H  2464  1  0.52732000  0.62909700  0.10339000  1
  H  2471  1  0.64274400  0.56127000  0.16193400  1
  H  2472  1  0.61718900  0.60511200  0.11866400  1
  H  2475  1  0.61080100  0.64435400  0.12823800  1
  H  2476  1  0.59954200  0.65580000  0.10764400  1
  H  2477  1  0.58370800  0.59625700  0.19500700  1
  H  2478  1  0.57434300  0.61553400  0.17910100  1
  H  2485  1  0.36708900  0.90620500  0.65147100  1
  H  2486  1  0.39534100  0.87071500  0.60335200  1
  H  2493  1  0.27961200  0.93879600  0.66126900  1
  H  2494  1  0.30537500  0.89453100  0.61844100  1
  H  2497  1  0.31193200  0.85547700  0.62838900  1
  H  2498  1  0.32321900  0.84386100  0.60788500  1
  H  2499  1  0.33886300  0.90454900  0.69466600  1
  H  2500  1  0.34831500  0.88510600  0.67897300  1
  H  2507  1  0.11960900  0.34437900  0.40252100  1
  H  2508  1  0.08276900  0.31848200  0.35410000  1
  H  2515  1  0.15555400  0.43045900  0.41459000  1
  H  2516  1  0.11250600  0.40653400  0.36979400  1
  H  2519  1  0.07279300  0.40282700  0.37910800  1
  H  2520  1  0.06058100  0.39241800  0.35853800  1
  H  2521  1  0.11753600  0.37261300  0.44622800  1
  H  2522  1  0.09846700  0.36404600  0.42974900  1
  H  2529  1  0.80176100  0.15677600  0.90255090  1
  H  2530  1  0.83847100  0.18289700  0.85413900  1
  H  2537  1  0.76634600  0.07055900  0.91477690  1
  H  2538  1  0.80919200  0.09465400  0.86989400  1
  H  2541  1  0.84884700  0.09849200  0.87901000  1
  H  2542  1  0.86096800  0.10904100  0.85846400  1
  H  2543  1  0.80405200  0.12871800  0.94628790  1
  H  2544  1  0.82303900  0.13744900  0.92981190  1
  H  2551  1  0.36597600  0.09535000  0.65390200  1
  H  2552  1  0.39329300  0.13428400  0.60747500  1
  H  2559  1  0.28011000  0.05635300  0.65711400  1
  H  2560  1  0.30633400  0.10346100  0.61752900  1
  H  2563  1  0.30818000  0.14268600  0.63040100  1
  H  2564  1  0.31937500  0.15606500  0.61075300  1
  H  2565  1  0.33319500  0.09437100  0.69583500  1
  H  2566  1  0.34282000  0.11428500  0.68082700  1
  H  2573  1  0.55674300  0.40565300  0.15403900  1
  H  2574  1  0.52973500  0.36648000  0.10758400  1
  H  2581  1  0.64225800  0.44534600  0.15768100  1
  H  2582  1  0.61628500  0.39865900  0.11750400  1
  H  2585  1  0.61510100  0.35923800  0.13017600  1
  H  2586  1  0.60401600  0.34571700  0.11056300  1
  H  2587  1  0.58965000  0.40619300  0.19602800  1
  H  2588  1  0.58012500  0.38646600  0.18076000  1
  H  2595  1  0.80165400  0.84506000  0.90292490  1
  H  2596  1  0.83860500  0.81842400  0.85474100  1
  H  2603  1  0.76846200  0.93141500  0.91829190  1
  H  2604  1  0.80582500  0.90596800  0.86987100  1
  H  2607  1  0.84660100  0.90379200  0.87736000  1
  H  2608  1  0.85866600  0.89310800  0.85685600  1
  H  2609  1  0.80791900  0.87319700  0.94684590  1
  H  2610  1  0.82550200  0.86433200  0.92911990  1
  H  2617  1  0.12101200  0.65592900  0.40309500  1
  H  2618  1  0.08398500  0.68270200  0.35501600  1
  H  2625  1  0.15406200  0.56945600  0.41825200  1
  H  2626  1  0.11673600  0.59514800  0.36992600  1
  H  2629  1  0.07601200  0.59719900  0.37739900  1
  H  2630  1  0.06392500  0.60800900  0.35696800  1
  H  2631  1  0.11485800  0.62776400  0.44697400  1
  H  2632  1  0.09726600  0.63676900  0.42932600  1
  H  2639  1  0.36735800  0.40328200  0.16039500  1
  H  2640  1  0.39474000  0.36689000  0.20847500  1
  H  2647  1  0.28099800  0.44101900  0.15609400  1
  H  2648  1  0.30732900  0.39474400  0.19642200  1
  H  2651  1  0.31037700  0.35527800  0.18424400  1
  H  2652  1  0.32152100  0.34274800  0.20439200  1
  H  2653  1  0.33502000  0.40303800  0.11827400  1
  H  2654  1  0.34479100  0.38350300  0.13364500  1
  H  2661  1  0.55535400  0.09678500  0.66035600  1
  H  2662  1  0.52786500  0.13343400  0.70824400  1
  H  2669  1  0.64161000  0.05894600  0.65640500  1
  H  2670  1  0.61515800  0.10535600  0.69654900  1
  H  2673  1  0.61233900  0.14482400  0.68414500  1
  H  2674  1  0.60115400  0.15750600  0.70419500  1
  H  2675  1  0.58784100  0.09696300  0.61829400  1
  H  2676  1  0.57802900  0.11654000  0.63359700  1
  H  2683  1  0.80337300  0.65668800  0.91086190  1
  H  2684  1  0.83787400  0.68295200  0.96065490  1
  H  2691  1  0.77083800  0.57034000  0.89480800  1
  H  2692  1  0.80733600  0.59565300  0.94377790  1
  H  2695  1  0.84840900  0.59815500  0.93677390  1
  H  2696  1  0.85974100  0.60863400  0.95771290  1
  H  2697  1  0.81056800  0.62879800  0.86695200  1
  H  2698  1  0.82779700  0.63765800  0.88496800  1
  H  2705  1  0.11974800  0.84440000  0.41123500  1
  H  2706  1  0.08508100  0.81790100  0.46083700  1
  H  2713  1  0.15194600  0.93080800  0.39502300  1
  H  2714  1  0.11570800  0.90542000  0.44413900  1
  H  2717  1  0.07472600  0.90292700  0.43740200  1
  H  2718  1  0.06336400  0.89228400  0.45824600  1
  H  2719  1  0.11230700  0.87219200  0.36734200  1
  H  2720  1  0.09517300  0.86321200  0.38537700  1
  H  2727  1  0.05562100  0.41002500  0.16146900  1
  H  2728  1  0.02836100  0.37275500  0.20911800  1
  H  2735  1  0.14333700  0.44072300  0.14621600  1
  H  2736  1  0.11723100  0.40268200  0.19380200  1
  H  2739  1  0.11316400  0.36261500  0.18590400  1
  H  2740  1  0.10217600  0.35069100  0.20634500  1
  H  2741  1  0.08288400  0.40533800  0.11741300  1
  H  2742  1  0.07375500  0.38722200  0.13452700  1
  H  2749  1  0.86658000  0.09139700  0.66138700  1
  H  2750  1  0.89368200  0.12851300  0.70921000  1
  H  2757  1  0.77890900  0.06041000  0.64622200  1
  H  2758  1  0.80509100  0.09831000  0.69388200  1
  H  2761  1  0.80888900  0.13850100  0.68595000  1
  H  2762  1  0.81979900  0.15038200  0.70645000  1
  H  2763  1  0.83917000  0.09615800  0.61735900  1
  H  2764  1  0.84833600  0.11419700  0.63452700  1
  H  2771  1  0.61870200  0.65504300  0.91102290  1
  H  2772  1  0.57862700  0.68203100  0.95693890  1
  H  2779  1  0.65907300  0.56948400  0.90618190  1
  H  2780  1  0.61319700  0.59480400  0.94755490  1
  H  2783  1  0.57401400  0.59597000  0.93626390  1
  H  2784  1  0.56036900  0.60711000  0.95573990  1
  H  2785  1  0.61829800  0.62172500  0.86912500  1
  H  2786  1  0.59894100  0.63104000  0.88491500  1
  H  2793  1  0.30410600  0.84535200  0.41095600  1
  H  2794  1  0.34415400  0.81842200  0.45690900  1
  H  2801  1  0.26379900  0.93094000  0.40593600  1
  H  2802  1  0.30941400  0.90552100  0.44749700  1
  H  2805  1  0.34862700  0.90456800  0.43635500  1
  H  2806  1  0.36222400  0.89339300  0.45583300  1
  H  2807  1  0.30458500  0.87857100  0.36902600  1
  H  2808  1  0.32387100  0.86916800  0.38483100  1
  H  2815  1  0.05499000  0.09336900  0.65211600  1
  H  2816  1  0.02807900  0.12784000  0.60257000  1
  H  2823  1  0.14260500  0.06334200  0.66849500  1
  H  2824  1  0.11666300  0.09997700  0.61991600  1
  H  2827  1  0.11230400  0.14043600  0.62688800  1
  H  2828  1  0.10154100  0.15148500  0.60592900  1
  H  2829  1  0.08186400  0.09953100  0.69619800  1
  H  2830  1  0.07272800  0.11710100  0.67858800  1
  H  2837  1  0.86718000  0.40848600  0.15212200  1
  H  2838  1  0.89400000  0.37430700  0.10234600  1
  H  2845  1  0.77965700  0.43866300  0.16863300  1
  H  2846  1  0.80567800  0.40261600  0.11970300  1
  H  2849  1  0.80968300  0.36195700  0.12649900  1
  H  2850  1  0.82039500  0.35098700  0.10548300  1
  H  2851  1  0.84009500  0.40169900  0.19613400  1
  H  2852  1  0.84926000  0.38440300  0.17830900  1
  H  2859  1  0.61757500  0.84464300  0.90223790  1
  H  2860  1  0.57991300  0.81763300  0.85471300  1
  H  2867  1  0.65685600  0.93060500  0.90812790  1
  H  2868  1  0.61227400  0.90503700  0.86578200  1
  H  2871  1  0.57275100  0.90334500  0.87634400  1
  H  2872  1  0.55988100  0.89226800  0.85640900  1
  H  2873  1  0.61581400  0.87778000  0.94421290  1
  H  2874  1  0.59695300  0.86832500  0.92799890  1
  H  2881  1  0.30520700  0.65579000  0.40216300  1
  H  2882  1  0.34290700  0.68271900  0.35463100  1
  H  2889  1  0.26567600  0.56994400  0.40796000  1
  H  2890  1  0.31026700  0.59550100  0.36561500  1
  H  2893  1  0.34978900  0.59689300  0.37611800  1
  H  2894  1  0.36266000  0.60800500  0.35620400  1
  H  2895  1  0.30691500  0.62261200  0.44411600  1
  H  2896  1  0.32574800  0.63214200  0.42792900  1
  H  2903  1  0.86593200  0.59222200  0.15346800  1
  H  2904  1  0.89236300  0.63137100  0.10658500  1
  H  2911  1  0.77926300  0.55393800  0.16040400  1
  H  2912  1  0.80677800  0.59609200  0.11692500  1
  H  2915  1  0.80646400  0.63625600  0.12810300  1
  H  2916  1  0.81735300  0.64968200  0.10837800  1
  H  2917  1  0.83298300  0.59395400  0.19583300  1
  H  2918  1  0.84269700  0.61259200  0.17954700  1
  H  2925  1  0.05598000  0.90830800  0.65335700  1
  H  2926  1  0.02928600  0.86918900  0.60661800  1
  H  2933  1  0.14299600  0.94588600  0.65967100  1
  H  2934  1  0.11539200  0.90275900  0.61707000  1
  H  2937  1  0.11480900  0.86287200  0.62886200  1
  H  2938  1  0.10385600  0.84949700  0.60912800  1
  H  2939  1  0.08865100  0.90737600  0.69573100  1
  H  2940  1  0.07887900  0.88837500  0.67983100  1
  H  2947  1  0.30320900  0.34538600  0.40267400  1
  H  2948  1  0.34097800  0.31784300  0.35531200  1
  H  2955  1  0.26679200  0.43210300  0.41225700  1
  H  2956  1  0.30581100  0.40473300  0.36622300  1
  H  2959  1  0.34633600  0.40425700  0.37493300  1
  H  2960  1  0.35900200  0.39301200  0.35499100  1
  H  2961  1  0.30902100  0.37820300  0.44497400  1
  H  2962  1  0.32640700  0.36840000  0.42755500  1
  H  2969  1  0.61848200  0.15519800  0.90259090  1
  H  2970  1  0.58081800  0.18261400  0.85510800  1
  H  2977  1  0.65487100  0.06855100  0.91249190  1
  H  2978  1  0.61600300  0.09578100  0.86628500  1
  H  2981  1  0.57549200  0.09617100  0.87478400  1
  H  2982  1  0.56290400  0.10742400  0.85481100  1
  H  2983  1  0.61258600  0.12259100  0.94496490  1
  H  2984  1  0.59524700  0.13239800  0.92751890  1
  H  2991  1  0.86711700  0.90632200  0.66071600  1
  H  2992  1  0.89391500  0.86952800  0.70896100  1
  H  2999  1  0.77998200  0.94322000  0.65367900  1
  H  3000  1  0.80761700  0.90084900  0.69688200  1
  H  3003  1  0.80878900  0.86065500  0.68576600  1
  H  3004  1  0.81974200  0.84798100  0.70589900  1
  H  3005  1  0.83469500  0.90428300  0.61824600  1
  H  3006  1  0.84457200  0.88564100  0.63447000  1
  H  3013  1  0.05474600  0.59478700  0.16080400  1
  H  3014  1  0.02817600  0.63131500  0.20932100  1
  H  3021  1  0.14197600  0.55815000  0.15308800  1
  H  3022  1  0.11455900  0.60015800  0.19669500  1
  H  3025  1  0.11312400  0.64039000  0.18580600  1
  H  3026  1  0.10229300  0.65289600  0.20607900  1
  H  3027  1  0.08689300  0.59714300  0.11821000  1
  H  3028  1  0.07708100  0.61565400  0.13459300  1
  H  3035  1  0.30407400  0.15583600  0.41164300  1
  H  3036  1  0.33951500  0.18300600  0.46061500  1
  H  3043  1  0.26859700  0.06895300  0.40072300  1
  H  3044  1  0.30630200  0.09615700  0.44770400  1
  H  3047  1  0.34716200  0.09703600  0.43964600  1
  H  3048  1  0.35912100  0.10806000  0.46004700  1
  H  3049  1  0.31123400  0.12339800  0.36922200  1
  H  3050  1  0.32808600  0.13318900  0.38707800  1
  H  3057  1  0.61729200  0.34471900  0.91138390  1
  H  3058  1  0.58225500  0.31750500  0.96056990  1
  H  3065  1  0.65268300  0.43158600  0.90048990  1
  H  3066  1  0.61518000  0.40424800  0.94752490  1
  H  3069  1  0.57426800  0.40350600  0.93964990  1
  H  3070  1  0.56248300  0.39240900  0.96010090  1
  H  3071  1  0.61001200  0.37709700  0.86899300  1
  H  3072  1  0.59323900  0.36719000  0.88684500  1
  H  3079  1  0.63665800  0.94632700  0.61315800  1
  H  3086  1  0.56745200  0.02289700  0.61881200  1
  H  3087  1  0.57372200  0.05843600  0.63289700  1
  H  3088  1  0.64254300  0.05210500  0.62091000  1
  H  3089  1  0.57756800  0.94935000  0.64733800  1
  H  3092  1  0.65305700  0.00689900  0.62145700  1
  H  3093  1  0.65318500  0.01954500  0.59686700  1
  H  3094  1  0.65100800  0.97758200  0.59545900  1
  H  3095  1  0.62907200  0.99126400  0.58245900  1
  H  3105  1  0.28605000  0.55367300  0.11287900  1
  H  3112  1  0.35525900  0.47721000  0.11893900  1
  H  3113  1  0.34898900  0.44165600  0.13294700  1
  H  3114  1  0.28022600  0.44779900  0.12059500  1
  H  3115  1  0.34475400  0.55057900  0.14760400  1
  H  3118  1  0.26964300  0.49302600  0.12118400  1
  H  3119  1  0.26961400  0.48041000  0.09658000  1
  H  3120  1  0.27178200  0.52236500  0.09519400  1
  H  3121  1  0.29380000  0.50871200  0.08228900  1
  H  3131  1  0.15952000  0.07712900  0.35885000  1
  H  3138  1  0.23670300  0.14562700  0.36426300  1
  H  3139  1  0.27125100  0.13822500  0.37966900  1
  H  3140  1  0.26446900  0.06995300  0.36550000  1
  H  3141  1  0.16365900  0.13560800  0.39379400  1
  H  3144  1  0.21964000  0.06009200  0.36504900  1
  H  3145  1  0.23201100  0.06073900  0.34034800  1
  H  3146  1  0.18996200  0.06333900  0.33960800  1
  H  3147  1  0.20366400  0.08546300  0.32694000  1
  H  3157  1  0.76163100  0.42400300  0.85879700  1
  H  3164  1  0.68475800  0.35516400  0.86409500  1
  H  3165  1  0.65006900  0.36239200  0.87937000  1
  H  3166  1  0.65664300  0.43070100  0.86517400  1
  H  3167  1  0.75769800  0.36560400  0.89386400  1
  H  3170  1  0.70136600  0.44081600  0.86473800  1
  H  3171  1  0.68909200  0.43994900  0.84000200  1
  H  3172  1  0.73117300  0.43759100  0.83943600  1
  H  3173  1  0.71764300  0.41533700  0.82680000  1
  H  3183  1  0.63587900  0.55720500  0.20184000  1
  H  3190  1  0.56773100  0.47978200  0.19616400  1
  H  3191  1  0.57456500  0.44454300  0.18163300  1
  H  3192  1  0.64334700  0.45190200  0.19325900  1
  H  3193  1  0.57672800  0.55358700  0.16781100  1
  H  3196  1  0.65307200  0.49720500  0.19331300  1
  H  3197  1  0.65347100  0.48426800  0.21777300  1
  H  3198  1  0.65058500  0.52617900  0.21960000  1
  H  3199  1  0.62892000  0.51201300  0.23251100  1
  H  3209  1  0.28658100  0.94343900  0.70114600  1
  H  3216  1  0.35469100  0.02074500  0.69492700  1
  H  3217  1  0.34796900  0.05616000  0.68076100  1
  H  3218  1  0.27919100  0.04902200  0.69253900  1
  H  3219  1  0.34544200  0.94699800  0.66666667  1
  H  3222  1  0.26937200  0.00355800  0.69226900  1
  H  3223  1  0.26893000  0.01650900  0.71672200  1
  H  3224  1  0.27182200  0.97462700  0.71863800  1
  H  3225  1  0.29351900  0.98880200  0.73149500  1
  H  3235  1  0.15710400  0.42334800  0.45484500  1
  H  3242  1  0.23487000  0.35542000  0.44923400  1
  H  3243  1  0.26938100  0.36297700  0.43381800  1
  H  3244  1  0.26187000  0.43132200  0.44742100  1
  H  3245  1  0.16145900  0.36468400  0.42018000  1
  H  3248  1  0.21684300  0.44077300  0.44804900  1
  H  3249  1  0.22951300  0.44045800  0.47262700  1
  H  3250  1  0.18752700  0.43744200  0.47384700  1
  H  3251  1  0.20163100  0.41553700  0.48649100  1
  H  3261  1  0.76466200  0.07786200  0.95501890  1
  H  3268  1  0.68671000  0.14552800  0.94912990  1
  H  3269  1  0.65216200  0.13783400  0.93380190  1
  H  3270  1  0.65993300  0.06955100  0.94763990  1
  H  3271  1  0.76020100  0.13632200  0.92008890  1
  H  3274  1  0.70495600  0.06019000  0.94835190  1
  H  3275  1  0.69228000  0.06069600  0.97292490  1
  H  3276  1  0.73427400  0.06380500  0.97410590  1
  H  3277  1  0.72011800  0.08577000  0.98661690  1
  H  3287  1  0.76587800  0.92336200  0.95684690  1
  H  3294  1  0.68872100  0.85517700  0.94840290  1
  H  3295  1  0.65470400  0.86238600  0.93175790  1
  H  3296  1  0.66201000  0.93111000  0.94376290  1
  H  3297  1  0.76369000  0.86422700  0.92267990  1
  H  3300  1  0.70714400  0.94045400  0.94653290  1
  H  3301  1  0.69273100  0.94075400  0.97028890  1
  H  3302  1  0.73447400  0.93757900  0.97420790  1
  H  3303  1  0.71942000  0.91595100  0.98628390  1
  H  3313  1  0.15673600  0.57731300  0.45682900  1
  H  3320  1  0.23405000  0.64525300  0.44838200  1
  H  3321  1  0.26803600  0.63801400  0.43173200  1
  H  3322  1  0.26062700  0.56927800  0.44360400  1
  H  3323  1  0.15911100  0.63642300  0.42263200  1
  H  3326  1  0.21540500  0.56006700  0.44630500  1
  H  3327  1  0.22984800  0.55958700  0.47004300  1
  H  3328  1  0.18814200  0.56292400  0.47405900  1
  H  3329  1  0.20330000  0.58446100  0.48616100  1
  H  3339  1  0.76877900  0.57841300  0.85632800  1
  H  3346  1  0.69061700  0.64529600  0.86575000  1
  H  3347  1  0.65670300  0.63765600  0.88236400  1
  H  3348  1  0.66509200  0.56899700  0.87062300  1
  H  3349  1  0.76597000  0.63736600  0.89070900  1
  H  3352  1  0.71064800  0.56042900  0.86765000  1
  H  3353  1  0.69582100  0.55964100  0.84412200  1
  H  3354  1  0.73736400  0.56363000  0.83945600  1
  H  3355  1  0.72163900  0.58492500  0.82757400  1
  H  3365  1  0.15414800  0.92248500  0.35659500  1
  H  3372  1  0.23203500  0.85525800  0.36580400  1
  H  3373  1  0.26609500  0.86278200  0.38224300  1
  H  3374  1  0.25795200  0.93144300  0.37030100  1
  H  3375  1  0.15686800  0.86373400  0.39125800  1
  H  3378  1  0.21250200  0.94027900  0.36742600  1
  H  3379  1  0.22715600  0.94076100  0.34380000  1
  H  3380  1  0.18553300  0.93700700  0.33945600  1
  H  3381  1  0.20103500  0.91552900  0.32759600  1
  H  3391  1  0.13413100  0.44603100  0.10803500  1
  H  3398  1  0.06580600  0.52303600  0.11687000  1
  H  3399  1  0.07283000  0.55803800  0.13167600  1
  H  3400  1  0.14124100  0.55136600  0.11797800  1
  H  3401  1  0.07622000  0.44885200  0.14389000  1
  H  3404  1  0.15126800  0.50602800  0.11716000  1
  H  3405  1  0.15082700  0.51939100  0.09289600  1
  H  3406  1  0.14814800  0.47750200  0.09051600  1
  H  3407  1  0.12600600  0.49178400  0.07839000  1
  H  3417  1  0.78790900  0.05537900  0.60798400  1
  H  3424  1  0.85597000  0.97824400  0.61697700  1
  H  3425  1  0.84893800  0.94330500  0.63187500  1
  H  3426  1  0.78045200  0.95012600  0.61855300  1
  H  3427  1  0.84581300  0.05249400  0.64383200  1
  H  3430  1  0.77061300  0.99559000  0.61761500  1
  H  3431  1  0.77077800  0.98202800  0.59344100  1
  H  3432  1  0.77368800  0.02386000  0.59071000  1
  H  3433  1  0.79568800  0.00935900  0.57858900  1
  H  3443  1  0.13329100  0.05868600  0.70650800  1
  H  3450  1  0.06641200  0.98083200  0.69641400  1
  H  3451  1  0.07390200  0.94600800  0.68145100  1
  H  3452  1  0.14231600  0.95362700  0.69467700  1
  H  3453  1  0.07563800  0.05551400  0.67035800  1
  H  3456  1  0.15146000  0.99939600  0.69603000  1
  H  3457  1  0.15155400  0.98540000  0.71999300  1
  H  3458  1  0.14793500  0.02710800  0.72340500  1
  H  3459  1  0.12616400  0.01205800  0.73527300  1
  H  3469  1  0.78874900  0.44249900  0.20676200  1
  H  3476  1  0.85577200  0.52048700  0.19800300  1
  H  3477  1  0.84819700  0.55509000  0.18262000  1
  H  3478  1  0.77973200  0.54721200  0.19557200  1
  H  3479  1  0.84679900  0.44599300  0.17118700  1
  H  3482  1  0.77065500  0.50172200  0.19718800  1
  H  3483  1  0.77066300  0.51553400  0.22124100  1
  H  3484  1  0.77422900  0.47374100  0.22426900  1
  H  3485  1  0.79597200  0.48867600  0.23629900  1
  H  3495  1  0.40044300  0.88448500  0.66822000  1
  H  3502  1  0.48853800  0.89124400  0.63042000  1
  H  3503  1  0.52462500  0.88542800  0.64336300  1
  H  3504  1  0.50226300  0.90054600  0.70304400  1
  H  3505  1  0.41784800  0.90624000  0.60905700  1
  H  3508  1  0.45397400  0.92489100  0.69323100  1
  H  3509  1  0.46313200  0.90353300  0.70996600  1
  H  3510  1  0.42440100  0.89723600  0.69687100  1
  H  3511  1  0.44254600  0.87494900  0.69039800  1
  H  3521  1  0.52211100  0.61579800  0.16833900  1
  H  3528  1  0.43404500  0.60850800  0.13052900  1
  H  3529  1  0.39793100  0.61420900  0.14342500  1
  H  3530  1  0.42032600  0.59948900  0.20317200  1
  H  3531  1  0.50484500  0.59363000  0.10927400  1
  H  3534  1  0.46875000  0.57534800  0.19349800  1
  H  3535  1  0.45946100  0.59675000  0.21012300  1
  H  3536  1  0.49815800  0.60320900  0.19703000  1
  H  3537  1  0.47988700  0.62534000  0.19040900  1
  H  3547  1  0.09603300  0.31164400  0.41871000  1
  H  3554  1  0.10203600  0.22340600  0.38017300  1
  H  3555  1  0.09737800  0.18698900  0.39281000  1
  H  3556  1  0.11247800  0.20906800  0.45257300  1
  H  3557  1  0.11780000  0.29462400  0.35946400  1
  H  3560  1  0.13550200  0.25782700  0.44325800  1
  H  3561  1  0.11415900  0.24827400  0.45981400  1
  H  3562  1  0.10729800  0.28702100  0.44712500  1
  H  3563  1  0.08542300  0.26864800  0.44013100  1
  H  3573  1  0.82516000  0.18961300  0.91874090  1
  H  3580  1  0.81902500  0.27777400  0.88014900  1
  H  3581  1  0.82379500  0.31419800  0.89274100  1
  H  3582  1  0.80883900  0.29221100  0.95256790  1
  H  3583  1  0.80331100  0.20658800  0.85950800  1
  H  3586  1  0.78566400  0.24350100  0.94332090  1
  H  3587  1  0.80705000  0.25301000  0.95984890  1
  H  3588  1  0.81376400  0.21422500  0.94716190  1
  H  3589  1  0.83570700  0.23252400  0.94017890  1
  H  3599  1  0.52143000  0.11886400  0.64380600  1
  H  3606  1  0.43459600  0.11227800  0.68401300  1
  H  3607  1  0.39807300  0.11810900  0.67199600  1
  H  3608  1  0.41856400  0.10253600  0.61184000  1
  H  3609  1  0.50585100  0.09739300  0.70348600  1
  H  3612  1  0.46709200  0.07812200  0.62051700  1
  H  3613  1  0.45742200  0.09932700  0.60386000  1
  H  3614  1  0.49657600  0.10567700  0.61586400  1
  H  3615  1  0.47867900  0.12807400  0.62259400  1
  H  3625  1  0.40130700  0.38114200  0.14396300  1
  H  3632  1  0.48825400  0.38798700  0.18411900  1
  H  3633  1  0.52483500  0.38255100  0.17208500  1
  H  3634  1  0.50415500  0.39797600  0.11196000  1
  H  3635  1  0.41684200  0.40276100  0.20360300  1
  H  3638  1  0.45543400  0.42189100  0.12061600  1
  H  3639  1  0.46525500  0.40071600  0.10400200  1
  H  3640  1  0.42617200  0.39405800  0.11600400  1
  H  3641  1  0.44425400  0.37185400  0.12285500  1
  H  3651  1  0.82586600  0.68936000  0.89540000  1
  H  3658  1  0.82017100  0.77788000  0.93307590  1
  H  3659  1  0.82483200  0.81414500  0.92008290  1
  H  3660  1  0.80887900  0.79152900  0.86066500  1
  H  3661  1  0.80385900  0.70696000  0.95444490  1
  H  3664  1  0.78618700  0.74278800  0.87050000  1
  H  3665  1  0.80741400  0.75223000  0.85376500  1
  H  3666  1  0.81449400  0.71364300  0.86677200  1
  H  3667  1  0.83632500  0.73217100  0.87353400  1
  H  3677  1  0.09728300  0.81171000  0.39566000  1
  H  3684  1  0.10277200  0.72316800  0.43331600  1
  H  3685  1  0.09794900  0.68691500  0.42032600  1
  H  3686  1  0.11385400  0.70948500  0.36087900  1
  H  3687  1  0.11924500  0.79399900  0.45469100  1
  H  3690  1  0.13678500  0.75811000  0.37070000  1
  H  3691  1  0.11549200  0.74878500  0.35397900  1
  H  3692  1  0.10864800  0.78741100  0.36701000  1
  H  3693  1  0.08670900  0.76900400  0.37375700  1
  H  3703  1  0.89987000  0.38603400  0.16768800  1
  H  3710  1  0.98856600  0.39244700  0.13059500  1
  H  3711  1  0.02468800  0.38745500  0.14379000  1
  H  3712  1  0.00162900  0.40268000  0.20323400  1
  H  3713  1  0.91778600  0.40856900  0.10890000  1
  H  3716  1  0.95298000  0.42570900  0.19325300  1
  H  3717  1  0.96230700  0.40432500  0.20988800  1
  H  3718  1  0.92382300  0.39742400  0.19655900  1
  H  3719  1  0.94240700  0.37561100  0.18979500  1
  H  3729  1  0.02223300  0.11566000  0.66783800  1
  H  3736  1  0.93361700  0.10934400  0.63066100  1
  H  3737  1  0.89748000  0.11421500  0.64384500  1
  H  3738  1  0.92048400  0.09864400  0.70322700  1
  H  3739  1  0.00440600  0.09345300  0.60891900  1
  H  3742  1  0.96917600  0.07572500  0.69317600  1
  H  3743  1  0.95979800  0.09699800  0.70990600  1
  H  3744  1  0.99828200  0.10403800  0.69664000  1
  H  3745  1  0.97966800  0.12586000  0.68996600  1
  H  3755  1  0.59351300  0.81141500  0.91898390  1
  H  3762  1  0.59931800  0.72287800  0.88000200  1
  H  3763  1  0.59493300  0.68629700  0.89250100  1
  H  3764  1  0.60938400  0.70836800  0.95238090  1
  H  3765  1  0.61545200  0.79446900  0.85980400  1
  H  3768  1  0.63214200  0.75716400  0.94348990  1
  H  3769  1  0.61061900  0.74752700  0.95980090  1
  H  3770  1  0.60384900  0.78633800  0.94732490  1
  H  3771  1  0.58210400  0.76800800  0.93991390  1
  H  3781  1  0.32934700  0.68897200  0.41890000  1
  H  3788  1  0.32357200  0.77755100  0.37993900  1
  H  3789  1  0.32791100  0.81413900  0.39244800  1
  H  3790  1  0.31346900  0.79202700  0.45232400  1
  H  3791  1  0.30742000  0.70595500  0.35972600  1
  H  3794  1  0.29076500  0.74323200  0.44341300  1
  H  3795  1  0.31228600  0.75285700  0.45973400  1
  H  3796  1  0.31905400  0.71404900  0.44724600  1
  H  3797  1  0.34080100  0.73238000  0.43984000  1
  H  3807  1  0.02149800  0.61788000  0.14466500  1
  H  3814  1  0.93359000  0.61159400  0.18380600  1
  H  3815  1  0.89703300  0.61616000  0.17132700  1
  H  3816  1  0.91883000  0.60070600  0.11153300  1
  H  3817  1  0.00503100  0.59612300  0.20404400  1
  H  3820  1  0.96774800  0.57789700  0.12067400  1
  H  3821  1  0.95794500  0.59906400  0.10403600  1
  H  3822  1  0.99674600  0.60619900  0.11643500  1
  H  3823  1  0.97829700  0.62805200  0.12340000  1
  H  3833  1  0.90043300  0.88324900  0.64441200  1
  H  3840  1  0.98808900  0.88967800  0.68367700  1
  H  3841  1  0.02461200  0.88473900  0.67129400  1
  H  3842  1  0.00310300  0.90012600  0.61140100  1
  H  3843  1  0.91677500  0.90508100  0.70380200  1
  H  3846  1  0.95427900  0.92338100  0.62042500  1
  H  3847  1  0.96403700  0.90216300  0.60382200  1
  H  3848  1  0.92516500  0.89523800  0.61618600  1
  H  3849  1  0.94349900  0.87327600  0.62312200  1
  H  3859  1  0.32717100  0.18877400  0.39565100  1
  H  3866  1  0.32215000  0.27789500  0.43343400  1
  H  3867  1  0.32645800  0.31427000  0.42042100  1
  H  3868  1  0.31102000  0.29135500  0.36100800  1
  H  3869  1  0.30524300  0.20668100  0.45460700  1
  H  3872  1  0.28862100  0.24265400  0.37064800  1
  H  3873  1  0.31003200  0.25205700  0.35409500  1
  H  3874  1  0.31697800  0.21346000  0.36702700  1
  H  3875  1  0.33870100  0.23195000  0.37414700  1
  H  3885  1  0.59432000  0.31174000  0.89550500  1
  H  3892  1  0.59960700  0.22266600  0.93327590  1
  H  3893  1  0.59529800  0.18628200  0.92027890  1
  H  3894  1  0.61061700  0.20919300  0.86083100  1
  H  3895  1  0.61645100  0.29387900  0.95441090  1
  H  3898  1  0.63296300  0.25792000  0.87043600  1
  H  3899  1  0.61153700  0.24849900  0.85390700  1
  H  3900  1  0.60458600  0.28709400  0.86685600  1
  H  3901  1  0.58287800  0.26858900  0.87398200  1
  H  3911  1  0.54491900  0.83407200  0.73046300  1
  H  3918  1  0.60481000  0.87125700  0.79577900  1
  H  3919  1  0.60613600  0.86980200  0.83183300  1
  H  3920  1  0.54300600  0.83901700  0.83325400  1
  H  3921  1  0.58551800  0.89105500  0.72915700  1
  H  3924  1  0.52291300  0.85100400  0.78893100  1
  H  3925  1  0.52726900  0.82497200  0.80112300  1
  H  3926  1  0.52919900  0.82191800  0.76291200  1
  H  3927  1  0.55440300  0.81353600  0.77477200  1
  H  3937  1  0.37779800  0.66592200  0.23028600  1
  H  3944  1  0.31767400  0.62936400  0.29572400  1
  H  3945  1  0.31642800  0.63083300  0.33178600  1
  H  3946  1  0.37979000  0.66116200  0.33309300  1
  H  3947  1  0.33682700  0.60921100  0.22915000  1
  H  3950  1  0.39971200  0.64902200  0.28876200  1
  H  3951  1  0.39554100  0.67510700  0.30091000  1
  H  3952  1  0.39359400  0.67808500  0.26269100  1
  H  3953  1  0.36846800  0.68667600  0.27456400  1
  H  3963  1  0.04661900  0.16295300  0.47878300  1
  H  3970  1  0.08610400  0.10618000  0.54539200  1
  H  3971  1  0.08329700  0.10472200  0.58138600  1
  H  3972  1  0.04764100  0.16529900  0.58159600  1
  H  3973  1  0.10643200  0.12655600  0.47915900  1
  H  3976  1  0.05993200  0.18625600  0.53761800  1
  H  3977  1  0.03386700  0.18009400  0.54905500  1
  H  3978  1  0.03228700  0.17785000  0.51080000  1
  H  3979  1  0.02539100  0.15212200  0.52249600  1
  H  3989  1  0.87503600  0.33861900  0.97852690  1
  H  3996  1  0.83542300  0.39547500  0.04498200  1
  H  3997  1  0.83845100  0.39726000  0.08095400  1
  H  3998  1  0.87462800  0.33698000  0.08139200  1
  H  3999  1  0.81486000  0.37443900  0.97901390  1
  H  4002  1  0.86226900  0.31557800  0.03763300  1
  H  4003  1  0.88836100  0.32206800  0.04886300  1
  H  4004  1  0.88963300  0.32399100  0.01058000  1
  H  4005  1  0.89640400  0.34987600  0.02204600  1
  H  4015  1  0.54299300  0.66465700  0.08139800  1
  H  4022  1  0.60498000  0.62995500  0.01663100  1
  H  4023  1  0.60656000  0.63140700  0.98058490  1
  H  4024  1  0.54204100  0.65924800  0.97860890  1
  H  4025  1  0.58610900  0.60950400  0.08317400  1
  H  4028  1  0.52219300  0.64641700  0.02285200  1
  H  4029  1  0.52534300  0.67259000  0.01061000  1
  H  4030  1  0.52684400  0.67583800  0.04882800  1
  H  4031  1  0.55168900  0.68539200  0.03709900  1
  H  4041  1  0.37957100  0.83512600  0.58134500  1
  H  4048  1  0.31780600  0.87038500  0.51664600  1
  H  4049  1  0.31625600  0.86909800  0.48059500  1
  H  4050  1  0.38065700  0.84097200  0.47858100  1
  H  4051  1  0.33667200  0.89043000  0.58328100  1
  H  4054  1  0.40050300  0.85355500  0.52290700  1
  H  4055  1  0.39728300  0.82745600  0.51055000  1
  H  4056  1  0.39570700  0.82402500  0.54875100  1
  H  4057  1  0.37085200  0.81461200  0.53694700  1
  H  4067  1  0.04712200  0.33672600  0.33308900  1
  H  4074  1  0.08479700  0.39567800  0.26734500  1
  H  4075  1  0.08220800  0.39747800  0.23135500  1
  H  4076  1  0.04910100  0.33552700  0.23024400  1
  H  4077  1  0.10545600  0.37535500  0.33347500  1
  H  4080  1  0.06196100  0.31455700  0.27411900  1
  H  4081  1  0.03574000  0.31975600  0.26256500  1
  H  4082  1  0.03380900  0.32147900  0.30084000  1
  H  4083  1  0.02584600  0.34701900  0.28934400  1
  H  4093  1  0.87446600  0.16455300  0.83324600  1
  H  4100  1  0.83672700  0.10575600  0.76742800  1
  H  4101  1  0.83953100  0.10383900  0.73145600  1
  H  4102  1  0.87301600  0.16559800  0.73037400  1
  H  4103  1  0.81590000  0.12625300  0.83345000  1
  H  4106  1  0.86000500  0.18674200  0.77414500  1
  H  4107  1  0.88626700  0.18138400  0.76273100  1
  H  4108  1  0.88796500  0.17974100  0.80101700  1
  H  4109  1  0.89586400  0.15413100  0.78961500  1
  H  4119  1  0.37416800  0.16925200  0.58474600  1
  H  4126  1  0.31691300  0.12733100  0.52006300  1
  H  4127  1  0.31492900  0.12880900  0.48403000  1
  H  4128  1  0.37578500  0.16384400  0.48192900  1
  H  4129  1  0.33806000  0.10933000  0.58650000  1
  H  4132  1  0.39719800  0.15330300  0.52610400  1
  H  4133  1  0.39097300  0.17892400  0.51386200  1
  H  4134  1  0.38919600  0.18195800  0.55209800  1
  H  4135  1  0.36338800  0.18862600  0.54041100  1
  H  4145  1  0.54874700  0.33174000  0.08503400  1
  H  4152  1  0.60548500  0.37319600  0.01970100  1
  H  4153  1  0.60704900  0.37162500  0.98364690  1
  H  4154  1  0.54609800  0.33670100  0.98221790  1
  H  4155  1  0.58492200  0.39162800  0.08622900  1
  H  4158  1  0.52521100  0.34738800  0.02655400  1
  H  4159  1  0.53128200  0.32170800  0.01434900  1
  H  4160  1  0.53346100  0.31882700  0.05257600  1
  H  4161  1  0.55913800  0.31209000  0.04068100  1
  H  4171  1  0.87363100  0.83615400  0.83347800  1
  H  4178  1  0.83740100  0.89404400  0.76628000  1
  H  4179  1  0.84033200  0.89496900  0.73028800  1
  H  4180  1  0.87282600  0.83263200  0.73063700  1
  H  4181  1  0.81535900  0.87497900  0.83241100  1
  H  4184  1  0.85970600  0.81282700  0.77477400  1
  H  4185  1  0.88607300  0.81776700  0.76341700  1
  H  4186  1  0.88752600  0.82031300  0.80167600  1
  H  4187  1  0.89560800  0.84559000  0.78979200  1
  H  4197  1  0.04865800  0.66463200  0.33381800  1
  H  4204  1  0.08551100  0.60724000  0.26655600  1
  H  4205  1  0.08236700  0.60616700  0.23058500  1
  H  4206  1  0.04895200  0.66802500  0.23096200  1
  H  4207  1  0.10745900  0.62659700  0.33261000  1
  H  4210  1  0.06208400  0.68812300  0.27500800  1
  H  4211  1  0.03572800  0.68282300  0.26376500  1
  H  4212  1  0.03449200  0.68032300  0.30203100  1
  H  4213  1  0.02668900  0.65491500  0.29022200  1
  H  4223  1  0.37702100  0.33171300  0.23106500  1
  H  4230  1  0.31693800  0.37137500  0.29480500  1
  H  4231  1  0.31465800  0.37022700  0.33083600  1
  H  4232  1  0.37724300  0.33835500  0.33382800  1
  H  4233  1  0.33781100  0.38966200  0.22836100  1
  H  4236  1  0.39852700  0.34958000  0.28971900  1
  H  4237  1  0.39362100  0.32379700  0.30216300  1
  H  4238  1  0.39241000  0.32025000  0.26394700  1
  H  4239  1  0.36689200  0.31231700  0.27548200  1
  H  4249  1  0.54550800  0.16869900  0.73073800  1
  H  4256  1  0.60521400  0.12906700  0.79479400  1
  H  4257  1  0.60728000  0.13021900  0.83083700  1
  H  4258  1  0.54469100  0.16213400  0.83350100  1
  H  4259  1  0.58467100  0.11071800  0.72827200  1
  H  4262  1  0.52367300  0.15090500  0.78927900  1
  H  4263  1  0.52851600  0.17669000  0.80174300  1
  H  4264  1  0.52996600  0.18022300  0.76353200  1
  H  4265  1  0.55541200  0.18815100  0.77520100  1
  H  4275  1  0.87297500  0.66595000  0.98203090  1
  H  4282  1  0.83768300  0.60569500  0.04770600  1
  H  4283  1  0.84016800  0.60407000  0.08370600  1
  H  4284  1  0.87031100  0.66752700  0.08490600  1
  H  4285  1  0.81602900  0.62527900  0.98164290  1
  H  4288  1  0.85705400  0.68776800  0.04091000  1
  H  4289  1  0.88341200  0.68360700  0.05255800  1
  H  4290  1  0.88554400  0.68187000  0.01427900  1
  H  4291  1  0.89446900  0.65669700  0.02586500  1
  H  4301  1  0.04954700  0.83509300  0.48194000  1
  H  4308  1  0.08501400  0.89438700  0.54825200  1
  H  4309  1  0.08213100  0.89585400  0.58422400  1
  H  4310  1  0.05108800  0.83281300  0.58484000  1
  H  4311  1  0.10701300  0.87504500  0.48225700  1
  H  4314  1  0.06460300  0.81264500  0.54086200  1
  H  4315  1  0.03817100  0.81707300  0.55228700  1
  H  4316  1  0.03648800  0.81907000  0.51399900  1
  H  4317  1  0.02775600  0.84428500  0.52563200  1
  H  4327  1  0.76720900  0.88780800  0.69409000  1
  H  4334  1  0.68896100  0.95371200  0.70897200  1
  H  4335  1  0.65238900  0.95151000  0.69522800  1
  H  4336  1  0.66286100  0.88389400  0.68050800  1
  H  4337  1  0.76586600  0.95714600  0.68567700  1
  H  4340  1  0.70920700  0.87606800  0.67755000  1
  H  4341  1  0.69488400  0.86515300  0.69913700  1
  H  4342  1  0.73619600  0.86720500  0.70462500  1
  H  4343  1  0.72064900  0.88208100  0.72312400  1
  H  4353  1  0.15516800  0.61320200  0.19365300  1
  H  4360  1  0.23293100  0.54664700  0.20826300  1
  H  4361  1  0.26959600  0.54865500  0.19472800  1
  H  4362  1  0.25968400  0.61638700  0.18015500  1
  H  4363  1  0.15598800  0.54389300  0.18503400  1
  H  4366  1  0.21330600  0.62446600  0.17699300  1
  H  4367  1  0.22769600  0.63531200  0.19857200  1
  H  4368  1  0.18640000  0.63354400  0.20410100  1
  H  4369  1  0.20184000  0.61851900  0.22257200  1
  H  4379  1  0.10459500  0.94582200  0.44380200  1
  H  4386  1  0.17503300  0.02122100  0.44908500  1
  H  4387  1  0.17164200  0.05843300  0.43703500  1
  H  4388  1  0.10192200  0.05073400  0.43292600  1
  H  4389  1  0.17098900  0.94532000  0.42351800  1
  H  4392  1  0.09201300  0.00471400  0.43027100  1
  H  4393  1  0.08579200  0.01873100  0.45354300  1
  H  4394  1  0.08748100  0.97727800  0.45792800  1
  H  4395  1  0.10626300  0.99179400  0.47394800  1
  H  4405  1  0.81814200  0.55506000  0.94348190  1
  H  4412  1  0.74681500  0.48042500  0.94893390  1
  H  4413  1  0.74986300  0.44321200  0.93684890  1
  H  4414  1  0.81966200  0.45023300  0.93286690  1
  H  4415  1  0.75165400  0.55637900  0.92354390  1
  H  4418  1  0.83010300  0.49603600  0.93026590  1
  H  4419  1  0.83604900  0.48199800  0.95358990  1
  H  4420  1  0.83486000  0.52349800  0.95783790  1
  H  4421  1  0.81589000  0.50924500  0.97387390  1
  H  4431  1  0.76703600  0.60889000  0.11863900  1
  H  4438  1  0.68639100  0.54567000  0.10525300  1
  H  4439  1  0.65003900  0.54946500  0.11911800  1
  H  4440  1  0.66352900  0.61656600  0.13364200  1
  H  4441  1  0.76416800  0.54004200  0.12928500  1
  H  4444  1  0.71046300  0.62256500  0.13577100  1
  H  4445  1  0.69590800  0.63368300  0.11438600  1
  H  4446  1  0.73676100  0.62992900  0.10762700  1
  H  4447  1  0.72015600  0.61498400  0.08999900  1
  H  4457  1  0.15522100  0.88932900  0.61991400  1
  H  4464  1  0.23510300  0.95293600  0.60478300  1
  H  4465  1  0.27163400  0.94987300  0.61851500  1
  H  4466  1  0.25944300  0.88273000  0.63387300  1
  H  4467  1  0.15829300  0.95867000  0.62800900  1
  H  4470  1  0.21277400  0.87625600  0.63687400  1
  H  4471  1  0.22691200  0.86467000  0.61547000  1
  H  4472  1  0.18572800  0.86781400  0.60971100  1
  H  4473  1  0.20175800  0.88209200  0.59118300  1
  H  4483  1  0.10543600  0.55513300  0.37006500  1
  H  4490  1  0.17443100  0.47829000  0.36437500  1
  H  4491  1  0.17031800  0.44121100  0.37652300  1
  H  4492  1  0.10078200  0.45039100  0.38072400  1
  H  4493  1  0.17210200  0.55439900  0.38957200  1
  H  4496  1  0.09179600  0.49656500  0.38341100  1
  H  4497  1  0.08523400  0.48271700  0.36013800  1
  H  4498  1  0.08768400  0.52414100  0.35583100  1
  H  4499  1  0.10610300  0.50926900  0.33971000  1
  H  4509  1  0.81700900  0.94606600  0.87017800  1
  H  4516  1  0.74769000  0.02259200  0.86450500  1
  H  4517  1  0.75160000  0.05970500  0.87664700  1
  H  4518  1  0.82117500  0.05084100  0.88096700  1
  H  4519  1  0.75032900  0.94644000  0.88961900  1
  H  4522  1  0.83038100  0.00467900  0.88365900  1
  H  4523  1  0.83690100  0.01860500  0.86041300  1
  H  4524  1  0.83465000  0.97717700  0.85603900  1
  H  4525  1  0.81618100  0.99199500  0.83992200  1
  H  4535  1  0.15663400  0.11301300  0.62119100  1
  H  4542  1  0.23144500  0.04348400  0.60850300  1
  H  4543  1  0.26943100  0.04552000  0.61883200  1
  H  4544  1  0.26286700  0.11489600  0.62775400  1
  H  4545  1  0.15848200  0.04609900  0.63998800  1
  H  4548  1  0.21727200  0.12505600  0.63317900  1
  H  4549  1  0.22957300  0.13282600  0.60948800  1
  H  4550  1  0.18780100  0.13146500  0.60763900  1
  H  4551  1  0.20105000  0.11382200  0.58967900  1
  H  4561  1  0.76571100  0.38988000  0.12046400  1
  H  4568  1  0.69067700  0.45968200  0.10936900  1
  H  4569  1  0.65281600  0.45711400  0.11985000  1
  H  4570  1  0.65980400  0.38756400  0.12701200  1
  H  4571  1  0.76405800  0.45645500  0.14022800  1
  H  4574  1  0.70537600  0.37748600  0.13200000  1
  H  4575  1  0.69299800  0.37033600  0.10817700  1
  H  4576  1  0.73473000  0.37186800  0.10620000  1
  H  4577  1  0.72136200  0.38998500  0.08872200  1
  H  4587  1  0.15658900  0.38892000  0.19210600  1
  H  4594  1  0.23369000  0.45541900  0.20576600  1
  H  4595  1  0.27157800  0.45237700  0.19534500  1
  H  4596  1  0.26287000  0.38349700  0.18499700  1
  H  4597  1  0.16054900  0.45621700  0.17475400  1
  H  4600  1  0.21676300  0.37513700  0.17930000  1
  H  4601  1  0.22892500  0.36619900  0.20270700  1
  H  4602  1  0.18724800  0.36898700  0.20486500  1
  H  4603  1  0.20119700  0.38562400  0.22316700  1
  H  4613  1  0.76564100  0.11180400  0.69244400  1
  H  4620  1  0.68899000  0.04477500  0.70604800  1
  H  4621  1  0.65109800  0.04762900  0.69556200  1
  H  4622  1  0.65944800  0.11661200  0.68547100  1
  H  4623  1  0.76207400  0.04457800  0.67481500  1
  H  4626  1  0.70543100  0.12535000  0.67994000  1
  H  4627  1  0.69323200  0.13398700  0.70342600  1
  H  4628  1  0.73494400  0.13145000  0.70550100  1
  H  4629  1  0.72112000  0.11459200  0.72371300  1
  H  4639  1  0.60385600  0.44553300  0.94709290  1
  H  4646  1  0.67373000  0.52117800  0.95643690  1
  H  4647  1  0.67112800  0.55861400  0.94496290  1
  H  4648  1  0.60199100  0.55067400  0.93620090  1
  H  4649  1  0.67123100  0.44433600  0.93022490  1
  H  4652  1  0.59277500  0.50422300  0.93215190  1
  H  4653  1  0.58447900  0.51833400  0.95482690  1
  H  4654  1  0.58604100  0.47712900  0.95987490  1
  H  4655  1  0.60376300  0.49178900  0.97677590  1
  H  4665  1  0.31794500  0.05513800  0.44712200  1
  H  4672  1  0.24839200  0.97923400  0.45564400  1
  H  4673  1  0.25128100  0.94176800  0.44420500  1
  H  4674  1  0.32062400  0.94960000  0.43667300  1
  H  4675  1  0.25050000  0.05522400  0.43011900  1
  H  4678  1  0.32980800  0.99591500  0.43247000  1
  H  4679  1  0.33791300  0.98215500  0.45537800  1
  H  4680  1  0.33621100  0.02354500  0.45971800  1
  H  4681  1  0.31861800  0.00904000  0.47684900  1
  H  4691  1  0.60441600  0.05501800  0.86679300  1
  H  4698  1  0.67320900  0.97830600  0.85791300  1
  H  4699  1  0.66998500  0.94091400  0.86943500  1
  H  4700  1  0.60076500  0.94952400  0.87714300  1
  H  4701  1  0.67212000  0.05450700  0.88288600  1
  H  4704  1  0.59209000  0.99595200  0.88143700  1
  H  4705  1  0.58370600  0.98228400  0.85857500  1
  H  4706  1  0.58575900  0.02365600  0.85425000  1
  H  4707  1  0.60307300  0.00896200  0.83699700  1
  H  4717  1  0.31748400  0.44544000  0.36671700  1
  H  4724  1  0.24907800  0.52245300  0.35761300  1
  H  4725  1  0.25243700  0.55983600  0.36913900  1
  H  4726  1  0.32160100  0.55089400  0.37701300  1
  H  4727  1  0.24973300  0.44622200  0.38258500  1
  H  4730  1  0.33007800  0.50444800  0.38132400  1
  H  4731  1  0.33853800  0.51806800  0.35846000  1
  H  4732  1  0.33631600  0.47669200  0.35417000  1
  H  4733  1  0.31910200  0.49145300  0.33688100  1
  C  1  1  0.57965700  0.88581500  0.07512500  1
  C  2  1  0.55809600  0.89462200  0.07111500  1
  C  3  1  0.53865900  0.88676200  0.08092200  1
  C  4  1  0.54144600  0.87294200  0.09823100  1
  C  5  1  0.56277200  0.86507000  0.10398800  1
  C  6  1  0.58132300  0.86907300  0.09074000  1
  C  9  1  0.59877700  0.89726300  0.06639700  1
  C  10  1  0.59845300  0.90779800  0.04662600  1
  C  11  1  0.61366300  0.92551300  0.04223900  1
  C  12  1  0.63200000  0.92900400  0.05551500  1
  C  13  1  0.63444100  0.91658100  0.07367300  1
  C  14  1  0.61705200  0.90219000  0.07952500  1
  C  23  1  0.34288800  0.61405400  0.57512100  1
  C  24  1  0.36444000  0.60518400  0.57117100  1
  C  25  1  0.38387900  0.61304600  0.58098400  1
  C  26  1  0.38107600  0.62692800  0.59825000  1
  C  27  1  0.35975700  0.63489500  0.60390700  1
  C  28  1  0.34120700  0.63087600  0.59065900  1
  C  31  1  0.32376000  0.60267500  0.56631400  1
  C  32  1  0.32414900  0.59218000  0.54653000  1
  C  33  1  0.30887800  0.57454200  0.54209600  1
  C  34  1  0.29045300  0.57108400  0.55526900  1
  C  35  1  0.28794700  0.58354200  0.57340500  1
  C  36  1  0.30538000  0.59784600  0.57935200  1
  C  45  1  0.10094200  0.13149800  0.82417200  1
  C  46  1  0.10858300  0.15348900  0.82016200  1
  C  47  1  0.09990100  0.17246000  0.83018700  1
  C  48  1  0.08635300  0.16891700  0.84755700  1
  C  49  1  0.07958400  0.14720200  0.85321600  1
  C  50  1  0.08462800  0.12883500  0.84004800  1
  C  53  1  0.11309400  0.11308800  0.81495600  1
  C  54  1  0.12247000  0.11394300  0.79471000  1
  C  55  1  0.14035900  0.09927800  0.78938200  1
  C  56  1  0.14525100  0.08100300  0.80234400  1
  C  57  1  0.13414800  0.07809300  0.82116700  1
  C  58  1  0.11953200  0.09502400  0.82778200  1
  C  67  1  0.82040700  0.36972500  0.32404300  1
  C  68  1  0.81272100  0.34773800  0.32008900  1
  C  69  1  0.82141200  0.32877400  0.33011600  1
  C  70  1  0.83503600  0.33232500  0.34743600  1
  C  71  1  0.84187600  0.35404400  0.35302900  1
  C  72  1  0.83677600  0.37239600  0.33986800  1
  C  75  1  0.80824500  0.38813100  0.31484000  1
  C  76  1  0.79883700  0.38727400  0.29461000  1
  C  77  1  0.78099300  0.40198000  0.28928300  1
  C  78  1  0.77609400  0.42024700  0.30226100  1
  C  79  1  0.78723300  0.42315600  0.32107100  1
  C  80  1  0.80183500  0.40620000  0.32766900  1
  C  89  1  0.57881400  0.61538800  0.53600600  1
  C  90  1  0.55735900  0.60640100  0.54013700  1
  C  91  1  0.53800600  0.61323400  0.52958600  1
  C  92  1  0.54076300  0.62633600  0.51183000  1
  C  93  1  0.56197100  0.63456300  0.50617200  1
  C  94  1  0.58041100  0.63142700  0.51976300  1
  C  97  1  0.59802600  0.60459500  0.54528600  1
  C  98  1  0.59763500  0.59485300  0.56540100  1
  C  99  1  0.61290500  0.57738100  0.57047200  1
  C  100  1  0.63133500  0.57344400  0.55740200  1
  C  101  1  0.63381000  0.58512500  0.53884800  1
  C  102  1  0.61643400  0.59926100  0.53243600  1
  C  111  1  0.34382900  0.88468100  0.03584900  1
  C  112  1  0.36526800  0.89373300  0.03992500  1
  C  113  1  0.38463200  0.88680800  0.02943600  1
  C  114  1  0.38189300  0.87357200  0.01176300  1
  C  115  1  0.36070000  0.86524800  0.00620000  1
  C  116  1  0.34225500  0.86844700  0.01977000  1
  C  119  1  0.32458900  0.89554800  0.04502500  1
  C  120  1  0.32495400  0.90553100  0.06503700  1
  C  121  1  0.30958100  0.92297600  0.06989600  1
  C  122  1  0.29110600  0.92667300  0.05682800  1
  C  123  1  0.28867200  0.91470700  0.03841900  1
  C  124  1  0.30613900  0.90061200  0.03213300  1
  C  133  1  0.09956200  0.36892400  0.78687200  1
  C  134  1  0.10735400  0.34696600  0.79088400  1
  C  135  1  0.09944700  0.32810800  0.78021700  1
  C  136  1  0.08637300  0.33170000  0.76256700  1
  C  137  1  0.07925800  0.35337200  0.75711300  1
  C  138  1  0.08365400  0.37160000  0.77063700  1
  C  141  1  0.11137500  0.38737700  0.79636600  1
  C  142  1  0.12043900  0.38645900  0.81673300  1
  C  143  1  0.13820100  0.40112800  0.82235000  1
  C  144  1  0.14326500  0.41943400  0.80948700  1
  C  145  1  0.13247700  0.42238600  0.79052200  1
  C  146  1  0.11794700  0.40551400  0.78368900  1
  C  155  1  0.82196800  0.13235300  0.28691300  1
  C  156  1  0.81403000  0.15426300  0.29091000  1
  C  157  1  0.82181400  0.17316600  0.28023700  1
  C  158  1  0.83493900  0.16965600  0.26260700  1
  C  159  1  0.84220800  0.14802700  0.25716600  1
  C  160  1  0.83787200  0.12976700  0.27066400  1
  C  163  1  0.81029400  0.11384000  0.29644900  1
  C  164  1  0.80127200  0.11473200  0.31683100  1
  C  165  1  0.78363500  0.09995700  0.32251400  1
  C  166  1  0.77859000  0.08163100  0.30966000  1
  C  167  1  0.78934900  0.07872200  0.29067300  1
  C  168  1  0.80379000  0.09565200  0.28380200  1
  C  177  1  0.34192800  0.11568500  0.03801000  1
  C  178  1  0.36377500  0.10806600  0.04264300  1
  C  179  1  0.38296800  0.11656400  0.03285900  1
  C  180  1  0.37986000  0.13033300  0.01554800  1
  C  181  1  0.35834400  0.13744600  0.00959800  1
  C  182  1  0.33979700  0.13253700  0.02255900  1
  C  185  1  0.32325600  0.10255800  0.04535800  1
  C  186  1  0.32268300  0.09194300  0.06509700  1
  C  187  1  0.30828100  0.07323800  0.06848100  1
  C  188  1  0.29140000  0.06890400  0.05376900  1
  C  189  1  0.28952700  0.08128300  0.03553500  1
  C  190  1  0.30650100  0.09662100  0.03095100  1
  C  199  1  0.58096900  0.38567700  0.53797800  1
  C  200  1  0.55905000  0.39301500  0.54271600  1
  C  201  1  0.53992800  0.38433800  0.53293900  1
  C  202  1  0.54315500  0.37064700  0.51559100  1
  C  203  1  0.56473100  0.36376600  0.50961000  1
  C  204  1  0.58329800  0.36891700  0.52247200  1
  C  207  1  0.59951000  0.39893900  0.54541200  1
  C  208  1  0.60006200  0.40920200  0.56530600  1
  C  209  1  0.61433000  0.42795300  0.56891600  1
  C  210  1  0.63107900  0.43273200  0.55418800  1
  C  211  1  0.63297700  0.42071400  0.53575200  1
  C  212  1  0.61613000  0.40527800  0.53101400  1
  C  221  1  0.82120800  0.86935400  0.28657100  1
  C  222  1  0.81360900  0.84745000  0.29095900  1
  C  223  1  0.82169600  0.82838900  0.28067000  1
  C  224  1  0.83459600  0.83180500  0.26285800  1
  C  225  1  0.84115600  0.85346700  0.25679800  1
  C  226  1  0.83657300  0.87200200  0.26992600  1
  C  229  1  0.80998600  0.88776700  0.29662400  1
  C  230  1  0.80285300  0.88701400  0.31760900  1
  C  231  1  0.78564100  0.90170600  0.32443100  1
  C  232  1  0.77998900  0.92020700  0.31201000  1
  C  233  1  0.78855200  0.92292600  0.29200400  1
  C  234  1  0.80200700  0.90555900  0.28421700  1
  C  243  1  0.10138100  0.63169400  0.78674800  1
  C  244  1  0.10902500  0.65357900  0.79115100  1
  C  245  1  0.10095000  0.67266800  0.78089600  1
  C  246  1  0.08798200  0.66930400  0.76312000  1
  C  247  1  0.08134900  0.64766100  0.75705700  1
  C  248  1  0.08597700  0.62909600  0.77012600  1
  C  251  1  0.11261000  0.61324700  0.79673600  1
  C  252  1  0.11976800  0.61391500  0.81771500  1
  C  253  1  0.13694300  0.59917600  0.82452200  1
  C  254  1  0.14256300  0.58071800  0.81201300  1
  C  255  1  0.13399100  0.57808100  0.79200000  1
  C  256  1  0.12056600  0.59549600  0.78427100  1
  C  265  1  0.34351800  0.38288000  0.57460800  1
  C  266  1  0.36525700  0.39085100  0.57004200  1
  C  267  1  0.38442300  0.38328100  0.58048500  1
  C  268  1  0.38137300  0.37003400  0.59812400  1
  C  269  1  0.35997400  0.36241800  0.60384800  1
  C  270  1  0.34155600  0.36644900  0.59046600  1
  C  273  1  0.32462500  0.39544900  0.56683900  1
  C  274  1  0.32410300  0.40575700  0.54695500  1
  C  275  1  0.30943900  0.42419400  0.54317300  1
  C  276  1  0.29238300  0.42857600  0.55770900  1
  C  277  1  0.29052100  0.41646400  0.57607700  1
  C  278  1  0.30756500  0.40131600  0.58098700  1
  C  287  1  0.57914300  0.11726100  0.07455400  1
  C  288  1  0.55742600  0.10926700  0.06995800  1
  C  289  1  0.53824600  0.11688000  0.08035300  1
  C  290  1  0.54125600  0.13020300  0.09794900  1
  C  291  1  0.56263900  0.13788800  0.10363700  1
  C  292  1  0.58110500  0.13378000  0.09033000  1
  C  295  1  0.59803400  0.10462000  0.06688300  1
  C  296  1  0.59862700  0.09428300  0.04701600  1
  C  297  1  0.61326700  0.07580600  0.04333400  1
  C  298  1  0.63023300  0.07141300  0.05795900  1
  C  299  1  0.63202100  0.08354100  0.07632700  1
  C  300  1  0.61498400  0.09873600  0.08112900  1
  C  309  1  0.82280800  0.63238700  0.32552800  1
  C  310  1  0.81502000  0.65425500  0.32118300  1
  C  311  1  0.82223700  0.67318300  0.33215600  1
  C  312  1  0.83461900  0.66967400  0.35024400  1
  C  313  1  0.84156300  0.64804500  0.35605800  1
  C  314  1  0.83772500  0.62969300  0.34252000  1
  C  317  1  0.81195400  0.61394400  0.31520800  1
  C  318  1  0.80515300  0.61476900  0.29413000  1
  C  319  1  0.78811800  0.60005500  0.28701300  1
  C  320  1  0.78229400  0.58152400  0.29932200  1
  C  321  1  0.79043800  0.57881700  0.31947100  1
  C  322  1  0.80381700  0.59609800  0.32746100  1
  C  331  1  0.10025200  0.86862700  0.82593900  1
  C  332  1  0.10808300  0.84678300  0.82155200  1
  C  333  1  0.10086700  0.82780700  0.83245200  1
  C  334  1  0.08837400  0.83122600  0.85048800  1
  C  335  1  0.08137000  0.85282300  0.85634400  1
  C  336  1  0.08531400  0.87125100  0.84292600  1
  C  339  1  0.11102800  0.88710400  0.81560000  1
  C  340  1  0.11771700  0.88630200  0.79449500  1
  C  341  1  0.13465500  0.90106100  0.78730300  1
  C  342  1  0.14054900  0.91959400  0.79959100  1
  C  343  1  0.13246700  0.92230700  0.81976400  1
  C  344  1  0.11917800  0.90497700  0.82781300  1
  C  353  1  0.07957600  0.38958400  0.57543600  1
  C  354  1  0.05781200  0.39777800  0.57128100  1
  C  355  1  0.03859400  0.38985300  0.58142100  1
  C  356  1  0.04176400  0.37662300  0.59906700  1
  C  357  1  0.06329900  0.36949800  0.60493900  1
  C  358  1  0.08188200  0.37381500  0.59182300  1
  C  361  1  0.09825500  0.40040600  0.56539500  1
  C  362  1  0.09743000  0.40851800  0.54471200  1
  C  363  1  0.11262800  0.42542500  0.53824500  1
  C  364  1  0.13171600  0.42954200  0.55042000  1
  C  365  1  0.13459400  0.41976600  0.56994600  1
  C  366  1  0.11668100  0.40704000  0.57767500  1
  C  375  1  0.84256900  0.11168200  0.07544400  1
  C  376  1  0.86434800  0.10358400  0.07124800  1
  C  377  1  0.88352600  0.11152600  0.08143500  1
  C  378  1  0.88028900  0.12463200  0.09915100  1
  C  379  1  0.85873400  0.13167000  0.10507200  1
  C  380  1  0.84020200  0.12738500  0.09187600  1
  C  383  1  0.82392000  0.10081100  0.06540200  1
  C  384  1  0.82471900  0.09281900  0.04467800  1
  C  385  1  0.80950700  0.07593200  0.03820900  1
  C  386  1  0.79050800  0.07161100  0.05043400  1
  C  387  1  0.78770900  0.08124700  0.07002700  1
  C  388  1  0.80558700  0.09403400  0.07773300  1
  C  397  1  0.59953400  0.63056100  0.32569700  1
  C  398  1  0.60622100  0.65261800  0.32056200  1
  C  399  1  0.59704500  0.67176500  0.32998800  1
  C  400  1  0.58334700  0.66854200  0.34732500  1
  C  401  1  0.57704000  0.64693000  0.35364900  1
  C  402  1  0.58299600  0.62812700  0.34139600  1
  C  405  1  0.61287700  0.61211900  0.31801100  1
  C  406  1  0.62254700  0.61169200  0.29786500  1
  C  407  1  0.64135700  0.59762000  0.29376100  1
  C  408  1  0.64648300  0.58060400  0.30814400  1
  C  409  1  0.63476700  0.57831500  0.32670700  1
  C  410  1  0.61950400  0.59518500  0.33202000  1
  C  419  1  0.32324100  0.86985400  0.82563600  1
  C  420  1  0.31657000  0.84779100  0.82051200  1
  C  421  1  0.32575900  0.82866100  0.82994900  1
  C  422  1  0.33943500  0.83191000  0.84729700  1
  C  423  1  0.34572300  0.85353500  0.85364400  1
  C  424  1  0.33974700  0.87230300  0.84136000  1
  C  427  1  0.30990800  0.88828300  0.81791900  1
  C  428  1  0.30032300  0.88872300  0.79774200  1
  C  429  1  0.28157600  0.90284200  0.79353900  1
  C  430  1  0.27637200  0.91981700  0.80794300  1
  C  431  1  0.28794600  0.92205600  0.82658900  1
  C  432  1  0.30319100  0.90518000  0.83193000  1
  C  441  1  0.07891800  0.11351500  0.03584700  1
  C  442  1  0.05721600  0.10519200  0.04000900  1
  C  443  1  0.03814100  0.11217200  0.02910300  1
  C  444  1  0.04138500  0.12475300  0.01109600  1
  C  445  1  0.06286600  0.13218300  0.00542500  1
  C  446  1  0.08127300  0.12865700  0.01896100  1
  C  449  1  0.09760800  0.10317100  0.04630700  1
  C  450  1  0.09667100  0.09565500  0.06718100  1
  C  451  1  0.11190500  0.07898000  0.07412000  1
  C  452  1  0.13102300  0.07443600  0.06211500  1
  C  453  1  0.13388400  0.08349700  0.04231000  1
  C  454  1  0.11608200  0.09614400  0.03425100  1
  C  463  1  0.84320800  0.38859600  0.53564000  1
  C  464  1  0.86492900  0.39678500  0.53991000  1
  C  465  1  0.88397900  0.38982200  0.52896100  1
  C  466  1  0.88068500  0.37741700  0.51085500  1
  C  467  1  0.85918800  0.37009900  0.50508900  1
  C  468  1  0.84079800  0.37359500  0.51866100  1
  C  471  1  0.82454200  0.39892500  0.54614700  1
  C  472  1  0.82541900  0.40609000  0.56712200  1
  C  473  1  0.81021500  0.42270900  0.57422300  1
  C  474  1  0.79120900  0.42758400  0.56216700  1
  C  475  1  0.78842000  0.41887500  0.54221800  1
  C  476  1  0.80619000  0.40623800  0.53408400  1
  C  485  1  0.59852800  0.86905200  0.28530900  1
  C  486  1  0.60541300  0.84704100  0.29046600  1
  C  487  1  0.59705500  0.82793100  0.28041800  1
  C  488  1  0.58388600  0.83111200  0.26274800  1
  C  489  1  0.57722700  0.85266900  0.25656900  1
  C  490  1  0.58245200  0.87140700  0.26918200  1
  C  493  1  0.61141700  0.88761800  0.29336200  1
  C  494  1  0.62060100  0.88805300  0.31370300  1
  C  495  1  0.63911800  0.90232700  0.31825700  1
  C  496  1  0.64442600  0.91940800  0.30400300  1
  C  497  1  0.63319500  0.92161900  0.28518500  1
  C  498  1  0.61819400  0.90467300  0.27954200  1
  C  507  1  0.32419500  0.63134800  0.78522200  1
  C  508  1  0.31736000  0.65336900  0.79038800  1
  C  509  1  0.32575800  0.67245700  0.78033700  1
  C  510  1  0.33892200  0.66924600  0.76266700  1
  C  511  1  0.34554600  0.64767100  0.75646800  1
  C  512  1  0.34025800  0.62896600  0.76909300  1
  C  515  1  0.31124300  0.61281300  0.79324600  1
  C  516  1  0.30209500  0.61234600  0.81359700  1
  C  517  1  0.28357700  0.59808500  0.81817300  1
  C  518  1  0.27813900  0.58111100  0.80384800  1
  C  519  1  0.28929700  0.57894100  0.78498900  1
  C  520  1  0.30436800  0.59583800  0.77938200  1
  C  529  1  0.84135900  0.61120900  0.53685600  1
  C  530  1  0.86341800  0.60450100  0.54182100  1
  C  531  1  0.88240200  0.61347900  0.53202700  1
  C  532  1  0.87898400  0.62686600  0.51450800  1
  C  533  1  0.85728500  0.63310500  0.50834100  1
  C  534  1  0.83866400  0.62745500  0.52093700  1
  C  537  1  0.82305500  0.59808900  0.54491200  1
  C  538  1  0.82247400  0.58920900  0.56534000  1
  C  539  1  0.80801400  0.57091600  0.57004100  1
  C  540  1  0.79076800  0.56589200  0.55586300  1
  C  541  1  0.78891600  0.57650000  0.53663300  1
  C  542  1  0.80651300  0.59071300  0.53086700  1
  C  551  1  0.08035600  0.88877100  0.03705500  1
  C  552  1  0.05838300  0.89586500  0.04185300  1
  C  553  1  0.03933700  0.88705800  0.03204100  1
  C  554  1  0.04267600  0.87354500  0.01459000  1
  C  555  1  0.06431100  0.86692400  0.00854600  1
  C  556  1  0.08287600  0.87228100  0.02132600  1
  C  559  1  0.09881700  0.90178600  0.04497300  1
  C  560  1  0.09936400  0.91122000  0.06519200  1
  C  561  1  0.11395900  0.92952200  0.06951400  1
  C  562  1  0.13139000  0.93394300  0.05536300  1
  C  563  1  0.13328400  0.92268900  0.03645000  1
  C  564  1  0.11558700  0.90852200  0.03089100  1
  C  573  1  0.32178300  0.36956900  0.78517200  1
  C  574  1  0.31507900  0.34761200  0.79059700  1
  C  575  1  0.32358800  0.32834800  0.78085300  1
  C  576  1  0.33657000  0.33142000  0.76302800  1
  C  577  1  0.34270500  0.35296300  0.75633900  1
  C  578  1  0.33733200  0.37192000  0.76863700  1
  C  581  1  0.30952200  0.38813700  0.79392600  1
  C  582  1  0.30220700  0.38871600  0.81487600  1
  C  583  1  0.28438200  0.40326800  0.82072200  1
  C  584  1  0.27845600  0.42060700  0.80695000  1
  C  585  1  0.28758000  0.42252700  0.78709500  1
  C  586  1  0.30146100  0.40496800  0.78044600  1
  C  595  1  0.59993500  0.13097500  0.28511700  1
  C  596  1  0.60663500  0.15294400  0.29049700  1
  C  597  1  0.59813800  0.17218000  0.28070500  1
  C  598  1  0.58519900  0.16905400  0.26285800  1
  C  599  1  0.57907800  0.14749000  0.25618500  1
  C  600  1  0.58443700  0.12858500  0.26855100  1
  C  603  1  0.61217200  0.11243300  0.29394600  1
  C  604  1  0.61942700  0.11191500  0.31491200  1
  C  605  1  0.63722900  0.09739000  0.32087200  1
  C  606  1  0.64321100  0.08002900  0.30713500  1
  C  607  1  0.63418800  0.07806800  0.28724500  1
  C  608  1  0.62030200  0.09558500  0.28052200  1
  C  617  1  0.84288600  0.88679000  0.07533200  1
  C  618  1  0.86478600  0.89414200  0.07057500  1
  C  619  1  0.88381600  0.88618600  0.08100000  1
  C  620  1  0.88056600  0.87309800  0.09871200  1
  C  621  1  0.85901300  0.86606000  0.10452200  1
  C  622  1  0.84049100  0.87072600  0.09145800  1
  C  625  1  0.82428600  0.89941000  0.06711100  1
  C  626  1  0.82375200  0.90852000  0.04675900  1
  C  627  1  0.80900900  0.92663300  0.04210000  1
  C  628  1  0.79160000  0.93131100  0.05620600  1
  C  629  1  0.78978100  0.92046000  0.07530800  1
  C  630  1  0.80743100  0.90631600  0.08105600  1
  C  639  1  0.07904000  0.61420700  0.57545700  1
  C  640  1  0.05712200  0.60688800  0.57072500  1
  C  641  1  0.03813800  0.61480600  0.58124800  1
  C  642  1  0.04149700  0.62773400  0.59904400  1
  C  643  1  0.06307000  0.63472300  0.60486500  1
  C  644  1  0.08150500  0.63017600  0.59165100  1
  C  647  1  0.09763500  0.60170300  0.56704700  1
  C  648  1  0.09805300  0.59274700  0.54663200  1
  C  649  1  0.11282500  0.57472300  0.54177300  1
  C  650  1  0.13035300  0.57000800  0.55574400  1
  C  651  1  0.13228200  0.58072900  0.57489700  1
  C  652  1  0.11464700  0.59479900  0.58083500  1
  C  661  1  0.32246300  0.13158500  0.82743000  1
  C  662  1  0.31561000  0.15354100  0.82209200  1
  C  663  1  0.32332800  0.17268200  0.83251500  1
  C  664  1  0.33579900  0.16950000  0.85061700  1
  C  665  1  0.34224400  0.14795600  0.85705600  1
  C  666  1  0.33755400  0.12915800  0.84432100  1
  C  669  1  0.31061600  0.11299200  0.81827200  1
  C  670  1  0.30382100  0.11254300  0.79717400  1
  C  671  1  0.28627400  0.09791100  0.79084900  1
  C  672  1  0.28009300  0.08046800  0.80440700  1
  C  673  1  0.28866200  0.07849100  0.82446100  1
  C  674  1  0.30233900  0.09601300  0.83147800  1
  C  683  1  0.59890400  0.36892000  0.32722100  1
  C  684  1  0.60580400  0.34698800  0.32187700  1
  C  685  1  0.59821400  0.32783700  0.33236300  1
  C  686  1  0.58584400  0.33100700  0.35052700  1
  C  687  1  0.57935200  0.35254300  0.35698400  1
  C  688  1  0.58391000  0.37131500  0.34418500  1
  C  691  1  0.61069000  0.38753700  0.31804800  1
  C  692  1  0.61741900  0.38803300  0.29693100  1
  C  693  1  0.63489400  0.40271500  0.29053500  1
  C  694  1  0.64116700  0.42007400  0.30415500  1
  C  695  1  0.63275500  0.42194100  0.32426800  1
  C  696  1  0.61904900  0.40445000  0.33127800  1
  C  705  1  0.60727200  0.94409600  0.02974200  1
  C  706  1  0.58801200  0.95606100  0.03554600  1
  C  707  1  0.58455400  0.97856800  0.02975700  1
  C  708  1  0.60022700  0.98956100  0.01659900  1
  C  709  1  0.61872000  0.97667500  0.00930400  1
  C  710  1  0.62218900  0.95445800  0.01601000  1
  C  712  1  0.60167800  0.01376000  0.01485700  1
  C  713  1  0.58352700  0.02845400  0.01836600  1
  C  714  1  0.58715100  0.05014200  0.02591700  1
  C  715  1  0.60901500  0.05874800  0.02819600  1
  C  716  1  0.62654200  0.04612900  0.01928100  1
  C  717  1  0.62315800  0.02381700  0.01284100  1
  C  722  1  0.64294900  0.01022400  0.00685300  1
  C  723  1  0.63611200  0.98789600  0.99667900  1
  C  731  1  0.31530300  0.55593000  0.52963200  1
  C  732  1  0.33442900  0.54389200  0.53570300  1
  C  733  1  0.33791600  0.52137600  0.52996300  1
  C  734  1  0.32240900  0.51042000  0.51662100  1
  C  735  1  0.30398900  0.52331100  0.50918200  1
  C  736  1  0.30050200  0.54555600  0.51580600  1
  C  738  1  0.32102500  0.48623000  0.51480100  1
  C  739  1  0.33921100  0.47156600  0.51827700  1
  C  740  1  0.33559500  0.44986000  0.52580100  1
  C  741  1  0.31373100  0.44123400  0.52802500  1
  C  742  1  0.29622000  0.45380200  0.51902500  1
  C  743  1  0.29958200  0.47613600  0.51264500  1
  C  748  1  0.27980400  0.48972300  0.50661000  1
  C  749  1  0.28667700  0.51206700  0.49647700  1
  C  757  1  0.15788400  0.10621600  0.77588800  1
  C  758  1  0.16993200  0.12545800  0.78154800  1
  C  759  1  0.19226900  0.12893500  0.77523500  1
  C  760  1  0.20284600  0.11341300  0.76161900  1
  C  761  1  0.18965800  0.09521000  0.75422600  1
  C  762  1  0.16769700  0.09161000  0.76153600  1
  C  764  1  0.22700200  0.11166400  0.75957000  1
  C  765  1  0.24199700  0.12945100  0.76346400  1
  C  766  1  0.26321800  0.12515200  0.77182800  1
  C  767  1  0.27114100  0.10300700  0.77418900  1
  C  768  1  0.25881700  0.08608600  0.76404200  1
  C  769  1  0.23675100  0.09007200  0.75717900  1
  C  774  1  0.22289400  0.07065700  0.75072800  1
  C  775  1  0.20047400  0.07804100  0.74103600  1
  C  783  1  0.76332400  0.39500100  0.27595600  1
  C  784  1  0.75134300  0.37573000  0.28163800  1
  C  785  1  0.72907200  0.37208800  0.27523500  1
  C  786  1  0.71846600  0.38750800  0.26154600  1
  C  787  1  0.73156300  0.40579800  0.25418400  1
  C  788  1  0.75349100  0.40951700  0.26153500  1
  C  790  1  0.69430300  0.38915600  0.25941900  1
  C  791  1  0.67938700  0.37131700  0.26337600  1
  C  792  1  0.65807400  0.37551500  0.27157800  1
  C  793  1  0.65006600  0.39762400  0.27391000  1
  C  794  1  0.66235800  0.41458300  0.26379200  1
  C  795  1  0.68445900  0.41069800  0.25696500  1
  C  800  1  0.69822400  0.43015300  0.25046000  1
  C  801  1  0.72072400  0.42284500  0.24087900  1
  C  809  1  0.60645000  0.55914000  0.58336900  1
  C  810  1  0.58724800  0.54702800  0.57771200  1
  C  811  1  0.58403200  0.52450700  0.58355900  1
  C  812  1  0.59991800  0.51364600  0.59661000  1
  C  813  1  0.61824900  0.52673400  0.60390300  1
  C  814  1  0.62144300  0.54897900  0.59718200  1
  C  816  1  0.60180200  0.48945700  0.59813500  1
  C  817  1  0.58390300  0.47450700  0.59454200  1
  C  818  1  0.58788100  0.45299500  0.58670900  1
  C  819  1  0.60988500  0.44480500  0.58420100  1
  C  820  1  0.62724300  0.45759500  0.59314300  1
  C  821  1  0.62348200  0.47973700  0.59990200  1
  C  826  1  0.64305400  0.49356200  0.60598700  1
  C  827  1  0.63586300  0.51566000  0.61639900  1
  C  835  1  0.31595400  0.94140000  0.08262300  1
  C  836  1  0.33504200  0.95356200  0.07669100  1
  C  837  1  0.33816500  0.97616900  0.08230300  1
  C  838  1  0.32239900  0.98705200  0.09545500  1
  C  839  1  0.30413900  0.97398000  0.10291600  1
  C  840  1  0.30099600  0.95165200  0.09640500  1
  C  842  1  0.32058500  0.01124000  0.09699600  1
  C  843  1  0.33855100  0.02614000  0.09350900  1
  C  844  1  0.33464800  0.04775500  0.08587600  1
  C  845  1  0.31267100  0.05606900  0.08348200  1
  C  846  1  0.29526900  0.04324200  0.09231200  1
  C  847  1  0.29895400  0.02102300  0.09889100  1
  C  852  1  0.27936600  0.00721000  0.10495500  1
  C  853  1  0.28655300  0.98512400  0.11539600  1
  C  861  1  0.15557600  0.39416500  0.83602500  1
  C  862  1  0.16770400  0.37492400  0.83045100  1
  C  863  1  0.19010400  0.37161500  0.83667000  1
  C  864  1  0.20067800  0.38732600  0.85008700  1
  C  865  1  0.18738300  0.40546200  0.85749600  1
  C  866  1  0.16533700  0.40886500  0.85031700  1
  C  868  1  0.22484100  0.38932100  0.85187100  1
  C  869  1  0.23998800  0.37164100  0.84797500  1
  C  870  1  0.26117300  0.37604700  0.83960000  1
  C  871  1  0.26892000  0.39822800  0.83713000  1
  C  872  1  0.25636200  0.41515100  0.84704700  1
  C  873  1  0.23437800  0.41102300  0.85404100  1
  C  878  1  0.22037900  0.43035400  0.86049600  1
  C  879  1  0.19816900  0.42282300  0.87047700  1
  C  887  1  0.76609700  0.10692200  0.33601600  1
  C  888  1  0.75391800  0.12609600  0.33035200  1
  C  889  1  0.73153500  0.12942300  0.33659100  1
  C  890  1  0.72100100  0.11376600  0.35008300  1
  C  891  1  0.73431600  0.09566300  0.35754700  1
  C  892  1  0.75638000  0.09228700  0.35039500  1
  C  894  1  0.69683800  0.11168500  0.35186500  1
  C  895  1  0.68164600  0.12928700  0.34782100  1
  C  896  1  0.66042700  0.12479200  0.33957200  1
  C  897  1  0.65275100  0.10258300  0.33718500  1
  C  898  1  0.66539400  0.08574400  0.34713200  1
  C  899  1  0.68736500  0.08996400  0.35412400  1
  C  904  1  0.70139900  0.07072000  0.36072200  1
  C  905  1  0.72359000  0.07837700  0.37064900  1
  C  913  1  0.76852500  0.89412800  0.33819300  1
  C  914  1  0.75688800  0.87460500  0.33256400  1
  C  915  1  0.73429400  0.87108400  0.33801100  1
  C  916  1  0.72285000  0.88701600  0.35058200  1
  C  917  1  0.73563000  0.90532600  0.35836200  1
  C  918  1  0.75803000  0.90872100  0.35217200  1
  C  920  1  0.69861000  0.88912900  0.35088000  1
  C  921  1  0.68372200  0.87141200  0.34641700  1
  C  922  1  0.66287700  0.87562800  0.33727700  1
  C  923  1  0.65513800  0.89772100  0.33426100  1
  C  924  1  0.66747700  0.91494900  0.34391500  1
  C  925  1  0.68904000  0.91093200  0.35200900  1
  C  930  1  0.70260700  0.93035700  0.35893100  1
  C  931  1  0.72399600  0.92294900  0.37040800  1
  C  939  1  0.15414800  0.60660300  0.83825400  1
  C  940  1  0.16584500  0.62608300  0.83258000  1
  C  941  1  0.18850600  0.62942500  0.83790100  1
  C  942  1  0.19989400  0.61347900  0.85049300  1
  C  943  1  0.18704900  0.59523000  0.85830600  1
  C  944  1  0.16459400  0.59196600  0.85222200  1
  C  946  1  0.22412300  0.61130500  0.85079500  1
  C  947  1  0.23906600  0.62902100  0.84647400  1
  C  948  1  0.25990100  0.62478600  0.83731100  1
  C  949  1  0.26757200  0.60268200  0.83419000  1
  C  950  1  0.25519900  0.58544900  0.84380700  1
  C  951  1  0.23363800  0.58948300  0.85189000  1
  C  956  1  0.22000300  0.57007600  0.85874100  1
  C  957  1  0.19866200  0.57752800  0.87027600  1
  C  965  1  0.77114400  0.60763600  0.27307700  1
  C  966  1  0.75928300  0.62700800  0.27884800  1
  C  967  1  0.73651700  0.63010200  0.27375100  1
  C  968  1  0.72519300  0.61398300  0.26131400  1
  C  969  1  0.73819400  0.59596800  0.25325700  1
  C  970  1  0.76076400  0.59297500  0.25909200  1
  C  972  1  0.70100200  0.61147600  0.26135600  1
  C  973  1  0.68584500  0.62899900  0.26579600  1
  C  974  1  0.66506700  0.62451400  0.27495000  1
  C  975  1  0.65765600  0.60232200  0.27802700  1
  C  976  1  0.67035900  0.58521700  0.26856500  1
  C  977  1  0.69179600  0.58953100  0.26034400  1
  C  982  1  0.70565100  0.57032000  0.25334600  1
  C  983  1  0.72665800  0.57807800  0.24147900  1
  C  991  1  0.15178400  0.89340400  0.77355500  1
  C  992  1  0.16360400  0.87402900  0.77937300  1
  C  993  1  0.18628400  0.87073700  0.77410300  1
  C  994  1  0.19759100  0.88670700  0.76149800  1
  C  995  1  0.18465400  0.90479400  0.75347700  1
  C  996  1  0.16213800  0.90793300  0.75943300  1
  C  998  1  0.22180000  0.88910400  0.76136700  1
  C  999  1  0.23688500  0.87153200  0.76585200  1
  C  1000  1  0.25776000  0.87595100  0.77484100  1
  C  1001  1  0.26526500  0.89811900  0.77782800  1
  C  1002  1  0.25260400  0.91524000  0.76834600  1
  C  1003  1  0.23111100  0.91100000  0.76021800  1
  C  1008  1  0.21733100  0.93023800  0.75316400  1
  C  1009  1  0.19618300  0.92252000  0.74149200  1
  C  1017  1  0.10540600  0.44360800  0.52550800  1
  C  1018  1  0.08632000  0.45557300  0.53183900  1
  C  1019  1  0.08275900  0.47817600  0.52641600  1
  C  1020  1  0.09814400  0.48936600  0.51312200  1
  C  1021  1  0.11628000  0.47648600  0.50510700  1
  C  1022  1  0.11977600  0.45409700  0.51133500  1
  C  1024  1  0.09982800  0.51360000  0.51194200  1
  C  1025  1  0.08195600  0.52839300  0.51621500  1
  C  1026  1  0.08603100  0.54980900  0.52421800  1
  C  1027  1  0.10804000  0.55814300  0.52626400  1
  C  1028  1  0.12516400  0.54557300  0.51664000  1
  C  1029  1  0.12135800  0.52349200  0.50971000  1
  C  1034  1  0.14080800  0.50986000  0.50289900  1
  C  1035  1  0.13343300  0.48790200  0.49234700  1
  C  1043  1  0.81670900  0.05783400  0.02533200  1
  C  1044  1  0.83575400  0.04581700  0.03173100  1
  C  1045  1  0.83915400  0.02314300  0.02646300  1
  C  1046  1  0.82372800  0.01195600  0.01321200  1
  C  1047  1  0.80565200  0.02487000  0.00513800  1
  C  1048  1  0.80230100  0.04733100  0.01120500  1
  C  1050  1  0.82195100  0.98772600  0.01215600  1
  C  1051  1  0.83982100  0.97288900  0.01630800  1
  C  1052  1  0.83573600  0.95150500  0.02439000  1
  C  1053  1  0.81371100  0.94326100  0.02661500  1
  C  1054  1  0.79654200  0.95586700  0.01710000  1
  C  1055  1  0.80037300  0.97790700  0.01007500  1
  C  1060  1  0.78094300  0.99159000  0.00330800  1
  C  1061  1  0.78836800  0.01341500  0.99255200  1
  C  1069  1  0.10460500  0.06099800  0.08709500  1
  C  1070  1  0.08570500  0.04885700  0.08055500  1
  C  1071  1  0.08256900  0.02608400  0.08559200  1
  C  1072  1  0.09815300  0.01491400  0.09871000  1
  C  1073  1  0.11596500  0.02794200  0.10705600  1
  C  1074  1  0.11901800  0.05052200  0.10126100  1
  C  1076  1  0.10029400  0.99069800  0.09941800  1
  C  1077  1  0.08263600  0.97568600  0.09511600  1
  C  1078  1  0.08701100  0.95438200  0.08697500  1
  C  1079  1  0.10914400  0.94637700  0.08476800  1
  C  1080  1  0.12616800  0.95923200  0.09417500  1
  C  1081  1  0.12201200  0.98113700  0.10140500  1
  C  1086  1  0.14121600  0.99499600  0.10836900  1
  C  1087  1  0.13342800  0.01650500  0.11947100  1
  C  1095  1  0.81755400  0.44044200  0.58745900  1
  C  1096  1  0.83662100  0.45256100  0.58134500  1
  C  1097  1  0.83985900  0.47519400  0.58680700  1
  C  1098  1  0.82415900  0.48622100  0.59991100  1
  C  1099  1  0.80621000  0.47312400  0.60793300  1
  C  1100  1  0.80309700  0.45067300  0.60174700  1
  C  1102  1  0.82192300  0.51043300  0.60076700  1
  C  1103  1  0.83952100  0.52552500  0.59648200  1
  C  1104  1  0.83508400  0.54673000  0.58815400  1
  C  1105  1  0.81291300  0.55450300  0.58567100  1
  C  1106  1  0.79591700  0.54171800  0.59519500  1
  C  1107  1  0.80014100  0.51989700  0.60260300  1
  C  1112  1  0.78094900  0.50600300  0.60952600  1
  C  1113  1  0.78872900  0.48438900  0.62044900  1
  C  1121  1  0.40610300  0.89365600  0.03635200  1
  C  1122  1  0.42216500  0.90281600  0.02297600  1
  C  1123  1  0.44422400  0.90734100  0.02961400  1
  C  1124  1  0.45062100  0.90203400  0.05013300  1
  C  1125  1  0.43367100  0.89545900  0.06425600  1
  C  1126  1  0.41195000  0.89076500  0.05715900  1
  C  1128  1  0.47339300  0.90189000  0.05738600  1
  C  1129  1  0.49120700  0.89522100  0.04448500  1
  C  1130  1  0.51266000  0.89125300  0.05229100  1
  C  1131  1  0.51721300  0.89325100  0.07348600  1
  C  1132  1  0.49951100  0.89948700  0.08661900  1
  C  1133  1  0.47783200  0.90355200  0.07883200  1
  C  1138  1  0.45880400  0.90729500  0.09307500  1
  C  1139  1  0.43879000  0.89253600  0.08650900  1
  C  1147  1  0.51652300  0.60641800  0.53651400  1
  C  1148  1  0.50050000  0.59713800  0.52316900  1
  C  1149  1  0.47844400  0.59259000  0.52980700  1
  C  1150  1  0.47200200  0.59799300  0.55029100  1
  C  1151  1  0.48891500  0.60471600  0.56439400  1
  C  1152  1  0.51063900  0.60940700  0.55730100  1
  C  1154  1  0.44922100  0.59804900  0.55753400  1
  C  1155  1  0.43136900  0.60450800  0.54458700  1
  C  1156  1  0.40989300  0.60841400  0.55237100  1
  C  1157  1  0.40533800  0.60653600  0.57357900  1
  C  1158  1  0.42307200  0.60046100  0.58674200  1
  C  1159  1  0.44477700  0.59647100  0.57898400  1
  C  1164  1  0.46382000  0.59292000  0.59325300  1
  C  1165  1  0.48375500  0.60775800  0.58662600  1
  C  1173  1  0.10531300  0.30623300  0.78684100  1
  C  1174  1  0.11410800  0.29013700  0.77328500  1
  C  1175  1  0.11812100  0.26788000  0.77965600  1
  C  1176  1  0.11258800  0.26128700  0.80007100  1
  C  1177  1  0.10614100  0.27815000  0.81434900  1
  C  1178  1  0.10205900  0.30011200  0.80753200  1
  C  1180  1  0.11261300  0.23846300  0.80719000  1
  C  1181  1  0.10624000  0.22064600  0.79417300  1
  C  1182  1  0.10295900  0.19900100  0.80179800  1
  C  1183  1  0.10536400  0.19425000  0.82292100  1
  C  1184  1  0.11113000  0.21198200  0.83619100  1
  C  1185  1  0.11453400  0.23384200  0.82858500  1
  C  1190  1  0.11796400  0.25279800  0.84297800  1
  C  1191  1  0.10298400  0.27271500  0.83651200  1
  C  1199  1  0.81584700  0.19500800  0.28687800  1
  C  1200  1  0.80699500  0.21108000  0.27333000  1
  C  1201  1  0.80294400  0.23332900  0.27970600  1
  C  1202  1  0.80849300  0.23993400  0.30011400  1
  C  1203  1  0.81496700  0.22308200  0.31439200  1
  C  1204  1  0.81909400  0.20113000  0.30757000  1
  C  1206  1  0.80852300  0.26276600  0.30721200  1
  C  1207  1  0.81493200  0.28055200  0.29417300  1
  C  1208  1  0.81824900  0.30220400  0.30176400  1
  C  1209  1  0.81591000  0.30698300  0.32288700  1
  C  1210  1  0.81015000  0.28927300  0.33618700  1
  C  1211  1  0.80668100  0.26741200  0.32860700  1
  C  1216  1  0.80321700  0.24848100  0.34302000  1
  C  1217  1  0.81813200  0.22851800  0.33655400  1
  C  1225  1  0.51664100  0.10996700  0.07394200  1
  C  1226  1  0.50106400  0.10074200  0.08776100  1
  C  1227  1  0.47883400  0.09610400  0.08173200  1
  C  1228  1  0.47180700  0.10132200  0.06138000  1
  C  1229  1  0.48830200  0.10782800  0.04677200  1
  C  1230  1  0.51021800  0.11265300  0.05326800  1
  C  1232  1  0.44881500  0.10144700  0.05477900  1
  C  1233  1  0.43143600  0.10824100  0.06813100  1
  C  1234  1  0.40974900  0.11223300  0.06089200  1
  C  1235  1  0.40458800  0.11016600  0.03983400  1
  C  1236  1  0.42181800  0.10371700  0.02626400  1
  C  1237  1  0.44371000  0.09962800  0.03347700  1
  C  1242  1  0.46226000  0.09571800  0.01874600  1
  C  1243  1  0.48249400  0.11051500  0.02464000  1
  C  1251  1  0.40605500  0.39014000  0.57407700  1
  C  1252  1  0.42164100  0.39936700  0.58789000  1
  C  1253  1  0.44388200  0.40397100  0.58187100  1
  C  1254  1  0.45093000  0.39871200  0.56153200  1
  C  1255  1  0.43444400  0.39215100  0.54693500  1
  C  1256  1  0.41250500  0.38739400  0.55341600  1
  C  1258  1  0.47391900  0.39872700  0.55491100  1
  C  1259  1  0.49138400  0.39213300  0.56825900  1
  C  1260  1  0.51311100  0.38837400  0.56100400  1
  C  1261  1  0.51824100  0.39049300  0.53994200  1
  C  1262  1  0.50092500  0.39674900  0.52638600  1
  C  1263  1  0.47899500  0.40060000  0.53360800  1
  C  1268  1  0.46039900  0.40433300  0.51888200  1
  C  1269  1  0.44028400  0.38939500  0.52481700  1
  C  1277  1  0.81647200  0.69502700  0.32530300  1
  C  1278  1  0.80764500  0.71128300  0.33869200  1
  C  1279  1  0.80373700  0.73349900  0.33214800  1
  C  1280  1  0.80930000  0.73986300  0.31168600  1
  C  1281  1  0.81572700  0.72285800  0.29755200  1
  C  1282  1  0.81981000  0.70097200  0.30457100  1
  C  1284  1  0.80926300  0.76259700  0.30436500  1
  C  1285  1  0.81582500  0.78051400  0.31717800  1
  C  1286  1  0.81909400  0.80206600  0.30933000  1
  C  1287  1  0.81639500  0.80664600  0.28819600  1
  C  1288  1  0.81044400  0.78877900  0.27514100  1
  C  1289  1  0.80715600  0.76698900  0.28295000  1
  C  1294  1  0.80370500  0.74786400  0.26874400  1
  C  1295  1  0.81878800  0.72806600  0.27533200  1
  C  1303  1  0.10666000  0.80598700  0.82555600  1
  C  1304  1  0.11546500  0.78970200  0.83892900  1
  C  1305  1  0.11932700  0.76748600  0.83236600  1
  C  1306  1  0.11373500  0.76115200  0.81190300  1
  C  1307  1  0.10735500  0.77818700  0.79778300  1
  C  1308  1  0.10332200  0.80007600  0.80481700  1
  C  1310  1  0.11365500  0.73841700  0.80458100  1
  C  1311  1  0.10701500  0.72052600  0.81739300  1
  C  1312  1  0.10368300  0.69898100  0.80955600  1
  C  1313  1  0.10632500  0.69439400  0.78842100  1
  C  1314  1  0.11231400  0.71224100  0.77535700  1
  C  1315  1  0.11569800  0.73402100  0.78316100  1
  C  1320  1  0.11924000  0.75312800  0.76895800  1
  C  1321  1  0.10426900  0.77300600  0.77555800  1
  C  1329  1  0.90571600  0.39570900  0.53597500  1
  C  1330  1  0.92201300  0.40472400  0.52275300  1
  C  1331  1  0.94414100  0.40872000  0.52948700  1
  C  1332  1  0.95037400  0.40304400  0.54996300  1
  C  1333  1  0.93329900  0.39641100  0.56393100  1
  C  1334  1  0.91151500  0.39224300  0.55672500  1
  C  1336  1  0.97306300  0.40300800  0.55741300  1
  C  1337  1  0.99106700  0.39653700  0.54466200  1
  C  1338  1  0.01254100  0.39308600  0.55262300  1
  C  1339  1  0.01696100  0.39549300  0.57381500  1
  C  1340  1  0.99900600  0.40136400  0.58680700  1
  C  1341  1  0.97728400  0.40483100  0.57888300  1
  C  1346  1  0.95806100  0.40818000  0.59299700  1
  C  1347  1  0.93832800  0.39317600  0.58616700  1
  C  1355  1  0.01642800  0.10615500  0.03607300  1
  C  1356  1  0.00016200  0.09718700  0.02279200  1
  C  1357  1  0.97804100  0.09309600  0.02949500  1
  C  1358  1  0.97178300  0.09863400  0.04999600  1
  C  1359  1  0.98883300  0.10521500  0.06401000  1
  C  1360  1  0.01061600  0.10946300  0.05684300  1
  C  1362  1  0.94908900  0.09858800  0.05742800  1
  C  1363  1  0.93108800  0.10508400  0.04468400  1
  C  1364  1  0.90960600  0.10847900  0.05264700  1
  C  1365  1  0.90517400  0.10596600  0.07382700  1
  C  1366  1  0.92312100  0.10004300  0.08680800  1
  C  1367  1  0.94485100  0.09663700  0.07888500  1
  C  1372  1  0.96406500  0.09324200  0.09299900  1
  C  1373  1  0.98377900  0.10831700  0.08625900  1
  C  1381  1  0.60291800  0.80607800  0.28716800  1
  C  1382  1  0.61163700  0.78994400  0.27359000  1
  C  1383  1  0.61531700  0.76758200  0.27982200  1
  C  1384  1  0.60952000  0.76087400  0.30013800  1
  C  1385  1  0.60316500  0.77774600  0.31446600  1
  C  1386  1  0.59948200  0.79986400  0.30779800  1
  C  1388  1  0.60946600  0.73796800  0.30713700  1
  C  1389  1  0.60339200  0.72010100  0.29402800  1
  C  1390  1  0.60029400  0.69835300  0.30154400  1
  C  1391  1  0.60252200  0.69355800  0.32266700  1
  C  1392  1  0.60808000  0.71132000  0.33600000  1
  C  1393  1  0.61131300  0.73325500  0.32851300  1
  C  1398  1  0.61459300  0.75214400  0.34302300  1
  C  1399  1  0.59969900  0.77212200  0.33654500  1
  C  1407  1  0.31994600  0.69432400  0.78708700  1
  C  1408  1  0.31124600  0.71047300  0.77351200  1
  C  1409  1  0.30759200  0.73283700  0.77974900  1
  C  1410  1  0.31339700  0.73953800  0.80006500  1
  C  1411  1  0.31974200  0.72265600  0.81438800  1
  C  1412  1  0.32339500  0.70053400  0.80771800  1
  C  1414  1  0.31345900  0.76244100  0.80707500  1
  C  1415  1  0.31955300  0.78031300  0.79398000  1
  C  1416  1  0.32259100  0.80206900  0.80149900  1
  C  1417  1  0.32033800  0.80685800  0.82261900  1
  C  1418  1  0.31480300  0.78908000  0.83594500  1
  C  1419  1  0.31160700  0.76714000  0.82845300  1
  C  1424  1  0.30831300  0.74824700  0.84295300  1
  C  1425  1  0.32320600  0.72827000  0.83646900  1
  C  1433  1  0.01633300  0.60869700  0.57467300  1
  C  1434  1  0.00041900  0.59975900  0.58832900  1
  C  1435  1  0.97814700  0.59561300  0.58212000  1
  C  1436  1  0.97138000  0.60107600  0.56174400  1
  C  1437  1  0.98809800  0.60755500  0.54733800  1
  C  1438  1  0.01007500  0.61182200  0.55400700  1
  C  1440  1  0.94849600  0.60096200  0.55481400  1
  C  1441  1  0.93075000  0.60739700  0.56790600  1
  C  1442  1  0.90903800  0.61061400  0.56039300  1
  C  1443  1  0.90419300  0.60809600  0.53931000  1
  C  1444  1  0.92183800  0.60218300  0.52597900  1
  C  1445  1  0.94375800  0.59888600  0.53346100  1
  C  1450  1  0.96261300  0.59540700  0.51895700  1
  C  1451  1  0.98248600  0.61052700  0.52519300  1
  C  1459  1  0.90556700  0.89243600  0.07442500  1
  C  1460  1  0.92141000  0.90148500  0.08808500  1
  C  1461  1  0.94365500  0.90576000  0.08187500  1
  C  1462  1  0.95044900  0.90031100  0.06150600  1
  C  1463  1  0.93377000  0.89377500  0.04708500  1
  C  1464  1  0.91181900  0.88938900  0.05374900  1
  C  1466  1  0.97334600  0.90036100  0.05463000  1
  C  1467  1  0.99101300  0.89388600  0.06779400  1
  C  1468  1  0.01270500  0.89043100  0.06033000  1
  C  1469  1  0.01760400  0.89276300  0.03923900  1
  C  1470  1  0.00005100  0.89878200  0.02584900  1
  C  1471  1  0.97814800  0.90231400  0.03327800  1
  C  1476  1  0.95934600  0.90584900  0.01873100  1
  C  1477  1  0.93939900  0.89081700  0.02494200  1
  C  1485  1  0.31775100  0.19454300  0.82549800  1
  C  1486  1  0.30916200  0.21095900  0.83887100  1
  C  1487  1  0.30571400  0.23327600  0.83239500  1
  C  1488  1  0.31153200  0.23964700  0.81199800  1
  C  1489  1  0.31774900  0.22253300  0.79786900  1
  C  1490  1  0.32128200  0.20048900  0.80480300  1
  C  1492  1  0.31160800  0.26242900  0.80469100  1
  C  1493  1  0.31789800  0.28046700  0.81750300  1
  C  1494  1  0.32093300  0.30209100  0.80967000  1
  C  1495  1  0.31834200  0.30661700  0.78852400  1
  C  1496  1  0.31259700  0.28864300  0.77549000  1
  C  1497  1  0.30951700  0.26681000  0.78327800  1
  C  1502  1  0.30615900  0.24768400  0.76904100  1
  C  1503  1  0.32112600  0.22783000  0.77570800  1
  C  1511  1  0.60382400  0.30598900  0.32533500  1
  C  1512  1  0.61249900  0.28959300  0.33868300  1
  C  1513  1  0.61598600  0.26728800  0.33219500  1
  C  1514  1  0.61013100  0.26091000  0.31180900  1
  C  1515  1  0.60384300  0.27800900  0.29769500  1
  C  1516  1  0.60026400  0.30003900  0.30464500  1
  C  1518  1  0.61005700  0.23813000  0.30450500  1
  C  1519  1  0.60377300  0.22009600  0.31732500  1
  C  1520  1  0.60076800  0.19846500  0.30950500  1
  C  1521  1  0.60334200  0.19393000  0.28835900  1
  C  1522  1  0.60904200  0.21190800  0.27531200  1
  C  1523  1  0.61210200  0.23374900  0.28308800  1
  C  1528  1  0.61542900  0.25287500  0.26884700  1
  C  1529  1  0.60045200  0.27271900  0.27553400  1
  C  1537  1  0.56642500  0.86154900  0.12538600  1
  C  1538  1  0.57871100  0.87791600  0.13610700  1
  C  1539  1  0.58047600  0.87792300  0.15770600  1
  C  1540  1  0.57039800  0.86038100  0.16923000  1
  C  1541  1  0.55679700  0.84457400  0.15861100  1
  C  1542  1  0.55495400  0.84528900  0.13694900  1
  C  1544  1  0.57159400  0.85910100  0.19132500  1
  C  1545  1  0.59076400  0.86606100  0.20228400  1
  C  1546  1  0.59172800  0.86484100  0.22371800  1
  C  1547  1  0.57386400  0.85576300  0.23511900  1
  C  1548  1  0.55546000  0.84685800  0.22431200  1
  C  1549  1  0.55422100  0.84842500  0.20262000  1
  C  1554  1  0.53535200  0.83808400  0.19115900  1
  C  1555  1  0.54366400  0.82789300  0.17060300  1
  C  1563  1  0.35604100  0.63863500  0.62527300  1
  C  1564  1  0.34366700  0.62236900  0.63604900  1
  C  1565  1  0.34193600  0.62242900  0.65765100  1
  C  1566  1  0.35212400  0.63994400  0.66912500  1
  C  1567  1  0.36582400  0.65562600  0.65846000  1
  C  1568  1  0.36765300  0.65482500  0.63679900  1
  C  1570  1  0.35097000  0.64127600  0.69121700  1
  C  1571  1  0.33177700  0.63444000  0.70220900  1
  C  1572  1  0.33086200  0.63566900  0.72364500  1
  C  1573  1  0.34880200  0.64466200  0.73499800  1
  C  1574  1  0.36725900  0.65342100  0.72417200  1
  C  1575  1  0.36843800  0.65184200  0.70247700  1
  C  1580  1  0.38736300  0.66203000  0.69097700  1
  C  1581  1  0.37909700  0.67223400  0.67041000  1
  C  1589  1  0.07570400  0.14345700  0.87454700  1
  C  1590  1  0.09260300  0.13244300  0.88574600  1
  C  1591  1  0.09206700  0.13078600  0.90735600  1
  C  1592  1  0.07348000  0.13961900  0.91837200  1
  C  1593  1  0.05704100  0.15197600  0.90726000  1
  C  1594  1  0.05831200  0.15379500  0.88562000  1
  C  1596  1  0.07153400  0.13836100  0.94043200  1
  C  1597  1  0.07957100  0.11980100  0.95168300  1
  C  1598  1  0.07755300  0.11872100  0.97307100  1
  C  1599  1  0.06658200  0.13579500  0.98409500  1
  C  1600  1  0.05673800  0.15347900  0.97295400  1
  C  1601  1  0.05912300  0.15487500  0.95133700  1
  C  1606  1  0.04784100  0.17293800  0.93951700  1
  C  1607  1  0.03901600  0.16387300  0.91871000  1
  C  1615  1  0.84570500  0.35777200  0.37436800  1
  C  1616  1  0.82876700  0.36870100  0.38557700  1
  C  1617  1  0.82942000  0.37049100  0.40717300  1
  C  1618  1  0.84817300  0.36193000  0.41813400  1
  C  1619  1  0.86465000  0.34963200  0.40701000  1
  C  1620  1  0.86328400  0.34768200  0.38538300  1
  C  1622  1  0.85027400  0.36339800  0.44017100  1
  C  1623  1  0.84217200  0.38199700  0.45133000  1
  C  1624  1  0.84430900  0.38327100  0.47269900  1
  C  1625  1  0.85551100  0.36639200  0.48377400  1
  C  1626  1  0.86541400  0.34868100  0.47271300  1
  C  1627  1  0.86291300  0.34709300  0.45111800  1
  C  1632  1  0.87426300  0.32902500  0.43936000  1
  C  1633  1  0.88285800  0.33798900  0.41843300  1
  C  1641  1  0.56569800  0.63816400  0.48479700  1
  C  1642  1  0.57878100  0.62230000  0.47421700  1
  C  1643  1  0.58067600  0.62228000  0.45262100  1
  C  1644  1  0.56988500  0.63931200  0.44097500  1
  C  1645  1  0.55550400  0.65454800  0.45145100  1
  C  1646  1  0.55358500  0.65386100  0.47310400  1
  C  1648  1  0.57119700  0.64059300  0.41888800  1
  C  1649  1  0.59078100  0.63451600  0.40809700  1
  C  1650  1  0.59188500  0.63575900  0.38667300  1
  C  1651  1  0.57370700  0.64398000  0.37511700  1
  C  1652  1  0.55479900  0.65204500  0.38575500  1
  C  1653  1  0.55344300  0.65045300  0.40744100  1
  C  1658  1  0.53399900  0.65990900  0.41875100  1
  C  1659  1  0.54165200  0.67054500  0.43932800  1
  C  1667  1  0.35689400  0.86161600  0.98483500  1
  C  1668  1  0.34392200  0.87761100  0.97429400  1
  C  1669  1  0.34208000  0.87776000  0.95269600  1
  C  1670  1  0.35281100  0.86073700  0.94099200  1
  C  1671  1  0.36710700  0.84538800  0.95142600  1
  C  1672  1  0.36899600  0.84596400  0.97308400  1
  C  1674  1  0.35153600  0.85958300  0.91889800  1
  C  1675  1  0.33200400  0.86583100  0.90810700  1
  C  1676  1  0.33092000  0.86469000  0.88667600  1
  C  1677  1  0.34905300  0.85637600  0.87512200  1
  C  1678  1  0.36792500  0.84820400  0.88574100  1
  C  1679  1  0.36926300  0.84970200  0.90743400  1
  C  1684  1  0.38865500  0.84012000  0.91873100  1
  C  1685  1  0.38093100  0.82941000  0.93925300  1
  C  1693  1  0.07536500  0.35731000  0.73580800  1
  C  1694  1  0.09191300  0.36906700  0.72482900  1
  C  1695  1  0.09150600  0.37088600  0.70322600  1
  C  1696  1  0.07338000  0.36145900  0.69199900  1
  C  1697  1  0.05735500  0.34836600  0.70287700  1
  C  1698  1  0.05849500  0.34642200  0.72451100  1
  C  1700  1  0.07154600  0.36289100  0.66994300  1
  C  1701  1  0.07887300  0.38190900  0.65895400  1
  C  1702  1  0.07696000  0.38318100  0.63757100  1
  C  1703  1  0.06680300  0.36582000  0.62628800  1
  C  1704  1  0.05761200  0.34761500  0.63716600  1
  C  1705  1  0.05990000  0.34604200  0.65878500  1
  C  1710  1  0.04932500  0.32738800  0.67035400  1
  C  1711  1  0.03996300  0.33583600  0.69119200  1
  C  1719  1  0.84604900  0.14417600  0.23584300  1
  C  1720  1  0.82948000  0.13250100  0.22483000  1
  C  1721  1  0.82997600  0.13066300  0.20323100  1
  C  1722  1  0.84821800  0.13996200  0.19206700  1
  C  1723  1  0.86426200  0.15298800  0.20299300  1
  C  1724  1  0.86305400  0.15494300  0.22462400  1
  C  1726  1  0.85017500  0.13846400  0.17002200  1
  C  1727  1  0.84282000  0.11945300  0.15904000  1
  C  1728  1  0.84484700  0.11811200  0.13766900  1
  C  1729  1  0.85520400  0.13536700  0.12640700  1
  C  1730  1  0.86440600  0.15356800  0.13728200  1
  C  1731  1  0.86199300  0.15521100  0.15888600  1
  C  1736  1  0.87259300  0.17384000  0.17046900  1
  C  1737  1  0.88178900  0.16539200  0.19136700  1
  C  1745  1  0.35476000  0.14028800  0.98811500  1
  C  1746  1  0.34386400  0.12286200  0.97752800  1
  C  1747  1  0.34209200  0.12251900  0.95593700  1
  C  1748  1  0.35076000  0.14070100  0.94429300  1
  C  1749  1  0.36320200  0.15754800  0.95476100  1
  C  1750  1  0.36504400  0.15721900  0.97643200  1
  C  1752  1  0.34923500  0.14179900  0.92222000  1
  C  1753  1  0.33044600  0.13351500  0.91148100  1
  C  1754  1  0.32906600  0.13473200  0.89006400  1
  C  1755  1  0.34608000  0.14506200  0.87847200  1
  C  1756  1  0.36400200  0.15516400  0.88908400  1
  C  1757  1  0.36565600  0.15367400  0.91075100  1
  C  1762  1  0.38388200  0.16533300  0.92202100  1
  C  1763  1  0.37508200  0.17502000  0.94261500  1
  C  1771  1  0.56827000  0.36066700  0.48813900  1
  C  1772  1  0.57906300  0.37803600  0.47737500  1
  C  1773  1  0.58066500  0.37824200  0.45577200  1
  C  1774  1  0.57188500  0.36000300  0.44427900  1
  C  1775  1  0.55951700  0.34322900  0.45492000  1
  C  1776  1  0.55785400  0.34369600  0.47660000  1
  C  1778  1  0.57317200  0.35880300  0.42219800  1
  C  1779  1  0.59184400  0.36704200  0.41126000  1
  C  1780  1  0.59297400  0.36576800  0.38983300  1
  C  1781  1  0.57582000  0.35540700  0.37844500  1
  C  1782  1  0.55799400  0.34537100  0.38924000  1
  C  1783  1  0.55660000  0.34691900  0.41092100  1
  C  1788  1  0.53848200  0.33532900  0.42239500  1
  C  1789  1  0.54749100  0.32571900  0.44294400  1
  C  1797  1  0.84531300  0.85683100  0.23545300  1
  C  1798  1  0.82900100  0.86846900  0.22405900  1
  C  1799  1  0.82982800  0.86995400  0.20244800  1
  C  1800  1  0.84812400  0.86024200  0.19164600  1
  C  1801  1  0.86391300  0.84727200  0.20294800  1
  C  1802  1  0.86238200  0.84571100  0.22458400  1
  C  1804  1  0.85030200  0.86120300  0.16960500  1
  C  1805  1  0.84327300  0.88004700  0.15820200  1
  C  1806  1  0.84537500  0.88078200  0.13681700  1
  C  1807  1  0.85537000  0.86299800  0.12594000  1
  C  1808  1  0.86435900  0.84499400  0.13725200  1
  C  1809  1  0.86194200  0.84399800  0.15888800  1
  C  1814  1  0.87236800  0.82558900  0.17091900  1
  C  1815  1  0.88146700  0.83447700  0.19169700  1
  C  1823  1  0.07729900  0.64438200  0.73569000  1
  C  1824  1  0.09374000  0.63296800  0.72427300  1
  C  1825  1  0.09287000  0.63148000  0.70266500  1
  C  1826  1  0.07440200  0.64092600  0.69191000  1
  C  1827  1  0.05847400  0.65369100  0.70325100  1
  C  1828  1  0.06002800  0.65525800  0.72488500  1
  C  1830  1  0.07213400  0.63989400  0.66987700  1
  C  1831  1  0.07936000  0.62111900  0.65848000  1
  C  1832  1  0.07714700  0.62029400  0.63710800  1
  C  1833  1  0.06678400  0.63787700  0.62625100  1
  C  1834  1  0.05763700  0.65580300  0.63756100  1
  C  1835  1  0.06018000  0.65689800  0.65918000  1
  C  1840  1  0.04957500  0.67519500  0.67122200  1
  C  1841  1  0.04069500  0.66622300  0.69205000  1
  C  1849  1  0.35613400  0.35957000  0.62529800  1
  C  1850  1  0.34420800  0.37652800  0.63560800  1
  C  1851  1  0.34219900  0.37703400  0.65718300  1
  C  1852  1  0.35170300  0.35947200  0.66909400  1
  C  1853  1  0.36513100  0.34316400  0.65891100  1
  C  1854  1  0.36716700  0.34332900  0.63725500  1
  C  1856  1  0.35000800  0.35853900  0.69116600  1
  C  1857  1  0.33068600  0.36595800  0.70165200  1
  C  1858  1  0.32914300  0.36491000  0.72306500  1
  C  1859  1  0.34655100  0.35559100  0.73490400  1
  C  1860  1  0.36509500  0.34629500  0.72456500  1
  C  1861  1  0.36690700  0.34764900  0.70289800  1
  C  1866  1  0.38587300  0.33687600  0.69190000  1
  C  1867  1  0.37783800  0.32650100  0.67132900  1
  C  1875  1  0.56646500  0.14088000  0.12507900  1
  C  1876  1  0.57830000  0.12390300  0.13546700  1
  C  1877  1  0.58016400  0.12340300  0.15705200  1
  C  1878  1  0.57061700  0.14098800  0.16890500  1
  C  1879  1  0.55726600  0.15729900  0.15864500  1
  C  1880  1  0.55535000  0.15711200  0.13698000  1
  C  1882  1  0.57217000  0.14191900  0.19098300  1
  C  1883  1  0.59141000  0.13446000  0.20157100  1
  C  1884  1  0.59282700  0.13550800  0.22299200  1
  C  1885  1  0.57536900  0.14488900  0.23472900  1
  C  1886  1  0.55688300  0.15418100  0.22430000  1
  C  1887  1  0.55520500  0.15282500  0.20262400  1
  C  1892  1  0.53631400  0.16360300  0.19152300  1
  C  1893  1  0.54448300  0.17396900  0.17099200  1
  C  1901  1  0.84545000  0.64439600  0.37740700  1
  C  1902  1  0.82931500  0.63208300  0.38838400  1
  C  1903  1  0.82979900  0.63027600  0.40998400  1
  C  1904  1  0.84756100  0.64038500  0.42119900  1
  C  1905  1  0.86308700  0.65406600  0.41033600  1
  C  1906  1  0.86192100  0.65589400  0.38870000  1
  C  1908  1  0.84942900  0.63905400  0.44324200  1
  C  1909  1  0.84295400  0.61972200  0.45420200  1
  C  1910  1  0.84481000  0.61858000  0.47558900  1
  C  1911  1  0.85398900  0.63646000  0.48691200  1
  C  1912  1  0.86244500  0.65502700  0.47604800  1
  C  1913  1  0.86028200  0.65641700  0.45440700  1
  C  1918  1  0.87016500  0.67544000  0.44282700  1
  C  1919  1  0.87993200  0.66730600  0.42203700  1
  C  1927  1  0.07741300  0.85628700  0.87770400  1
  C  1928  1  0.09359800  0.86831900  0.88886700  1
  C  1929  1  0.09293400  0.86995500  0.91047400  1
  C  1930  1  0.07492800  0.86000100  0.92148000  1
  C  1931  1  0.05933200  0.84659700  0.91040800  1
  C  1932  1  0.06066500  0.84493200  0.88876900  1
  C  1934  1  0.07283800  0.86121700  0.94351300  1
  C  1935  1  0.07943400  0.88040500  0.95462500  1
  C  1936  1  0.07735800  0.88145100  0.97599700  1
  C  1937  1  0.06777100  0.86365400  0.98714100  1
  C  1938  1  0.05921200  0.84524800  0.97611700  1
  C  1939  1  0.06161500  0.84394700  0.95449200  1
  C  1944  1  0.05161800  0.82512300  0.94272200  1
  C  1945  1  0.04218800  0.83350800  0.92188500  1
  C  1953  1  0.77002500  0.92239200  0.08755500  1
  C  1954  1  0.75830700  0.94268300  0.08940800  1
  C  1955  1  0.73551700  0.94341200  0.09524000  1
  C  1956  1  0.72386600  0.92327400  0.10022200  1
  C  1957  1  0.73678900  0.90321900  0.10103700  1
  C  1958  1  0.75931300  0.90289700  0.09463400  1
  C  1960  1  0.69963200  0.92099500  0.09941900  1
  C  1961  1  0.68428200  0.93894200  0.10160800  1
  C  1962  1  0.66232100  0.93758800  0.09402600  1
  C  1963  1  0.65450600  0.91763100  0.08515500  1
  C  1964  1  0.66835400  0.89861200  0.08581200  1
  C  1965  1  0.69047300  0.90001200  0.09318500  1
  C  1970  1  0.70442700  0.87944600  0.09249600  1
  C  1971  1  0.72548700  0.88179600  0.10598200  1
  C  1979  1  0.15210200  0.57867000  0.58703600  1
  C  1980  1  0.16367200  0.55828200  0.58879100  1
  C  1981  1  0.18647300  0.55735900  0.59456500  1
  C  1982  1  0.19828600  0.57739300  0.59957800  1
  C  1983  1  0.18550800  0.59754100  0.60047400  1
  C  1984  1  0.16294400  0.59805300  0.59419200  1
  C  1986  1  0.22254100  0.57948200  0.59879500  1
  C  1987  1  0.23775600  0.56142300  0.60100400  1
  C  1988  1  0.25978100  0.56265800  0.59355100  1
  C  1989  1  0.26779700  0.58258900  0.58477800  1
  C  1990  1  0.25405500  0.60168900  0.58539500  1
  C  1991  1  0.23187900  0.60041500  0.59264800  1
  C  1996  1  0.21806400  0.62107400  0.59194100  1
  C  1997  1  0.19699300  0.61886500  0.60543500  1
  C  2005  1  0.13728100  0.94209500  0.83132700  1
  C  2006  1  0.15799400  0.95316700  0.82979400  1
  C  2007  1  0.16066100  0.97583500  0.83554200  1
  C  2008  1  0.14232600  0.98784500  0.84433100  1
  C  2009  1  0.12237000  0.97554700  0.84842800  1
  C  2010  1  0.11996500  0.95322400  0.84182700  1
  C  2012  1  0.14081300  0.01212700  0.84461800  1
  C  2013  1  0.15945500  0.02676100  0.84447100  1
  C  2014  1  0.15748800  0.04905900  0.83788200  1
  C  2015  1  0.13648600  0.05787900  0.83238500  1
  C  2016  1  0.11738400  0.04461600  0.83574300  1
  C  2017  1  0.11932700  0.02221100  0.84222000  1
  C  2022  1  0.09847800  0.00892600  0.84452800  1
  C  2023  1  0.10266400  0.98742300  0.85703300  1
  C  2031  1  0.78545400  0.55914900  0.33112000  1
  C  2032  1  0.76459900  0.54834400  0.32972300  1
  C  2033  1  0.76163600  0.52576400  0.33561800  1
  C  2034  1  0.77986600  0.51352700  0.34432000  1
  C  2035  1  0.80001200  0.52557800  0.34828000  1
  C  2036  1  0.80267800  0.54784200  0.34158500  1
  C  2038  1  0.78113500  0.48921500  0.34456100  1
  C  2039  1  0.76234400  0.47476600  0.34429600  1
  C  2040  1  0.76410300  0.45245300  0.33769100  1
  C  2041  1  0.78502600  0.44341300  0.33225500  1
  C  2042  1  0.80424500  0.45650200  0.33563200  1
  C  2043  1  0.80252100  0.47891000  0.34215000  1
  C  2048  1  0.82352000  0.49194300  0.34450900  1
  C  2049  1  0.81956500  0.51352300  0.35695100  1
  C  2057  1  0.76908000  0.57451200  0.52442600  1
  C  2058  1  0.75681100  0.55448900  0.52325200  1
  C  2059  1  0.73407000  0.55404400  0.51742400  1
  C  2060  1  0.72276000  0.57433900  0.51192500  1
  C  2061  1  0.73625000  0.59397700  0.51038500  1
  C  2062  1  0.75880800  0.59394500  0.51666900  1
  C  2064  1  0.69863300  0.57766900  0.51293900  1
  C  2065  1  0.68242300  0.56057800  0.51069200  1
  C  2066  1  0.66058400  0.56291300  0.51837200  1
  C  2067  1  0.65374200  0.58319500  0.52730600  1
  C  2068  1  0.66838400  0.60156400  0.52653700  1
  C  2069  1  0.69036600  0.59909500  0.51904000  1
  C  2074  1  0.70506300  0.61911400  0.51909700  1
  C  2075  1  0.72553600  0.61563100  0.50507500  1
  C  2083  1  0.15320700  0.92401800  0.02433000  1
  C  2084  1  0.16545900  0.94398100  0.02241900  1
  C  2085  1  0.18832200  0.94402100  0.01677600  1
  C  2086  1  0.19945800  0.92355100  0.01189400  1
  C  2087  1  0.18602400  0.90386000  0.01110300  1
  C  2088  1  0.16345200  0.90420700  0.01734700  1
  C  2090  1  0.22361700  0.92061700  0.01274500  1
  C  2091  1  0.23942500  0.93810100  0.01033400  1
  C  2092  1  0.26135700  0.93622100  0.01789600  1
  C  2093  1  0.26863700  0.91615800  0.02696700  1
  C  2094  1  0.25430800  0.89752200  0.02653400  1
  C  2095  1  0.23222500  0.89945500  0.01916400  1
  C  2100  1  0.21772800  0.87929800  0.02000600  1
  C  2101  1  0.19681600  0.88209100  0.00638800  1
  C  2109  1  0.13831500  0.55824100  0.78032800  1
  C  2110  1  0.15884700  0.54678300  0.78159100  1
  C  2111  1  0.16107000  0.52409400  0.77574000  1
  C  2112  1  0.14240600  0.51241600  0.76718900  1
  C  2113  1  0.12264200  0.52511900  0.76327600  1
  C  2114  1  0.12069300  0.54745900  0.76996700  1
  C  2116  1  0.14040700  0.48816000  0.76696000  1
  C  2117  1  0.15875000  0.47312200  0.76712600  1
  C  2118  1  0.15635200  0.45088600  0.77376400  1
  C  2119  1  0.13518800  0.44253100  0.77929500  1
  C  2120  1  0.11634900  0.45618600  0.77596000  1
  C  2121  1  0.11873100  0.47853700  0.76944900  1
  C  2126  1  0.09813100  0.49224800  0.76721800  1
  C  2127  1  0.10266900  0.51368100  0.75473500  1
  C  2135  1  0.78412300  0.94276500  0.28036900  1
  C  2136  1  0.76354800  0.95414600  0.28166600  1
  C  2137  1  0.76123300  0.97684000  0.27587300  1
  C  2138  1  0.77984000  0.98861200  0.26733500  1
  C  2139  1  0.79969200  0.97602900  0.26345400  1
  C  2140  1  0.80171900  0.95367400  0.27008100  1
  C  2142  1  0.78174800  0.01288100  0.26716200  1
  C  2143  1  0.76332900  0.02782900  0.26732600  1
  C  2144  1  0.76561100  0.05008200  0.27394600  1
  C  2145  1  0.78672800  0.05854800  0.27947600  1
  C  2146  1  0.80563400  0.04496400  0.27621700  1
  C  2147  1  0.80337400  0.02260100  0.26970400  1
  C  2152  1  0.82404200  0.00899700  0.26746700  1
  C  2153  1  0.81962000  0.98757000  0.25494400  1
  C  2161  1  0.15392500  0.07981800  0.03077900  1
  C  2162  1  0.16569800  0.05946600  0.03184000  1
  C  2163  1  0.18818000  0.05752100  0.02535700  1
  C  2164  1  0.19917600  0.07604100  0.01590700  1
  C  2165  1  0.18653200  0.09607500  0.01324000  1
  C  2166  1  0.16443700  0.09779800  0.02067400  1
  C  2168  1  0.22327800  0.07747400  0.01376500  1
  C  2169  1  0.23758800  0.05872600  0.01163900  1
  C  2170  1  0.26025700  0.05993200  0.01718200  1
  C  2171  1  0.26959400  0.08034100  0.02371900  1
  C  2172  1  0.25647700  0.09986500  0.02209400  1
  C  2173  1  0.23368500  0.09866700  0.01669400  1
  C  2178  1  0.22031900  0.11964100  0.01644000  1
  C  2179  1  0.19787500  0.11632000  0.00509300  1
  C  2187  1  0.76845800  0.42283300  0.53064300  1
  C  2188  1  0.75680100  0.44323600  0.53188200  1
  C  2189  1  0.73437300  0.44542300  0.52528400  1
  C  2190  1  0.72326800  0.42704200  0.51569000  1
  C  2191  1  0.73592100  0.40706600  0.51266100  1
  C  2192  1  0.75798500  0.40512600  0.52011600  1
  C  2194  1  0.69912800  0.42556900  0.51369600  1
  C  2195  1  0.68467600  0.44427900  0.51212900  1
  C  2196  1  0.66203900  0.44276900  0.51774000  1
  C  2197  1  0.65282800  0.42213400  0.52383900  1
  C  2198  1  0.66607200  0.40276200  0.52167700  1
  C  2199  1  0.68882300  0.40425000  0.51619300  1
  C  2204  1  0.70224400  0.38332900  0.51540300  1
  C  2205  1  0.72461200  0.38702900  0.50406100  1
  C  2213  1  0.15486200  0.42247900  0.58140100  1
  C  2214  1  0.16732800  0.44242800  0.58068300  1
  C  2215  1  0.18997400  0.44333400  0.58689100  1
  C  2216  1  0.20039900  0.42418800  0.59584100  1
  C  2217  1  0.18709400  0.40458400  0.59824900  1
  C  2218  1  0.16487700  0.40387000  0.59100800  1
  C  2220  1  0.22444500  0.42188800  0.59784700  1
  C  2221  1  0.23935100  0.44007400  0.60044300  1
  C  2222  1  0.26196800  0.43825300  0.59486300  1
  C  2223  1  0.27062300  0.41771200  0.58786900  1
  C  2224  1  0.25689800  0.39860300  0.58902600  1
  C  2225  1  0.23415600  0.40043200  0.59445500  1
  C  2230  1  0.22008300  0.37994700  0.59424400  1
  C  2231  1  0.19783200  0.38372200  0.60580600  1
  C  2239  1  0.76754700  0.07830600  0.08158400  1
  C  2240  1  0.75520800  0.05828700  0.08081000  1
  C  2241  1  0.73261600  0.05718200  0.08712900  1
  C  2242  1  0.72210900  0.07620300  0.09621500  1
  C  2243  1  0.73527800  0.09589900  0.09864300  1
  C  2244  1  0.75745600  0.09679900  0.09131700  1
  C  2246  1  0.69804900  0.07837600  0.09824500  1
  C  2247  1  0.68324600  0.06008600  0.10071600  1
  C  2248  1  0.66062900  0.06180200  0.09511400  1
  C  2249  1  0.65186900  0.08232400  0.08819500  1
  C  2250  1  0.66549100  0.10150300  0.08942300  1
  C  2251  1  0.68822500  0.09979200  0.09491500  1
  C  2256  1  0.70216100  0.12037100  0.09484900  1
  C  2257  1  0.72444900  0.11664100  0.10636100  1
  C  2265  1  0.63713900  0.44148300  0.33638200  1
  C  2266  1  0.65792500  0.45249400  0.33575900  1
  C  2267  1  0.66047400  0.47510500  0.34154700  1
  C  2268  1  0.64171800  0.48750900  0.34925500  1
  C  2269  1  0.62144300  0.47528300  0.35231300  1
  C  2270  1  0.61930500  0.45285600  0.34584600  1
  C  2272  1  0.64009300  0.51185300  0.34949600  1
  C  2273  1  0.65849000  0.52668100  0.35093500  1
  C  2274  1  0.65691500  0.54915900  0.34472500  1
  C  2275  1  0.63633900  0.55813200  0.33817800  1
  C  2276  1  0.61716900  0.54458500  0.33992300  1
  C  2277  1  0.61879900  0.52197500  0.34593500  1
  C  2282  1  0.59789500  0.50859200  0.34679900  1
  C  2283  1  0.60121700  0.48724600  0.35972900  1
  C  2291  1  0.28456500  0.05880100  0.83647200  1
  C  2292  1  0.26393400  0.04746400  0.83577500  1
  C  2293  1  0.26185300  0.02465600  0.84130800  1
  C  2294  1  0.28071900  0.01269200  0.84915200  1
  C  2295  1  0.30081100  0.02513900  0.85225600  1
  C  2296  1  0.30258600  0.04763400  0.84589500  1
  C  2298  1  0.28234400  0.98837800  0.84949400  1
  C  2299  1  0.26379400  0.97365400  0.85048100  1
  C  2300  1  0.26550200  0.95117000  0.84432800  1
  C  2301  1  0.28621100  0.94219200  0.83812800  1
  C  2302  1  0.30538500  0.95568500  0.84022600  1
  C  2303  1  0.30369700  0.97829200  0.84623800  1
  C  2308  1  0.32454900  0.99177200  0.84712900  1
  C  2309  1  0.32110300  0.01334200  0.85974000  1
  C  2317  1  0.63795000  0.05835100  0.27516100  1
  C  2318  1  0.65851000  0.04684500  0.27555100  1
  C  2319  1  0.66033200  0.02401200  0.27000900  1
  C  2320  1  0.64122200  0.01219600  0.26251300  1
  C  2321  1  0.62122400  0.02485100  0.25955300  1
  C  2322  1  0.61970400  0.04734700  0.26596800  1
  C  2324  1  0.63937300  0.98789000  0.26225100  1
  C  2325  1  0.65777000  0.97294000  0.26124500  1
  C  2326  1  0.65585900  0.95048700  0.26743800  1
  C  2327  1  0.63508100  0.94175400  0.27369100  1
  C  2328  1  0.61604600  0.95546900  0.27166400  1
  C  2329  1  0.61793700  0.97804500  0.26561600  1
  C  2334  1  0.59720700  0.99175300  0.26483700  1
  C  2335  1  0.60075800  0.01328600  0.25221200  1
  C  2343  1  0.28389600  0.44222400  0.77496400  1
  C  2344  1  0.26340100  0.45384800  0.77531800  1
  C  2345  1  0.26169000  0.47667500  0.76974400  1
  C  2346  1  0.28086600  0.48840400  0.76228500  1
  C  2347  1  0.30083600  0.47567400  0.75942400  1
  C  2348  1  0.30222700  0.45317100  0.76584600  1
  C  2350  1  0.28284900  0.51270500  0.76204200  1
  C  2351  1  0.26452000  0.52774000  0.76101900  1
  C  2352  1  0.26651800  0.55018900  0.76719900  1
  C  2353  1  0.28732300  0.55883600  0.77346700  1
  C  2354  1  0.30629400  0.54501700  0.77152900  1
  C  2355  1  0.30432000  0.52245000  0.76547400  1
  C  2360  1  0.32499100  0.50865700  0.76471600  1
  C  2361  1  0.32136900  0.48713200  0.75210200  1
  C  2369  1  0.57965700  0.88581500  0.67608100  1
  C  2370  1  0.55809600  0.89462200  0.67207100  1
  C  2371  1  0.53865900  0.88676200  0.68187800  1
  C  2372  1  0.54144600  0.87294200  0.69918700  1
  C  2373  1  0.56277200  0.86507000  0.70494400  1
  C  2374  1  0.58132300  0.86907300  0.69169600  1
  C  2377  1  0.59877700  0.89726300  0.66735300  1
  C  2378  1  0.59845300  0.90779800  0.64758200  1
  C  2379  1  0.61366300  0.92551300  0.64319500  1
  C  2380  1  0.63200000  0.92900400  0.65647100  1
  C  2381  1  0.63444100  0.91658100  0.67462900  1
  C  2382  1  0.61705200  0.90219000  0.68048100  1
  C  2391  1  0.34288800  0.61405400  0.17607700  1
  C  2392  1  0.36444000  0.60518400  0.17212700  1
  C  2393  1  0.38387900  0.61304600  0.18194000  1
  C  2394  1  0.38107600  0.62692800  0.19920600  1
  C  2395  1  0.35975700  0.63489500  0.20486300  1
  C  2396  1  0.34120700  0.63087600  0.19161500  1
  C  2399  1  0.32376000  0.60267500  0.16727000  1
  C  2400  1  0.32414900  0.59218000  0.14748600  1
  C  2401  1  0.30887800  0.57454200  0.14305200  1
  C  2402  1  0.29045300  0.57108400  0.15622500  1
  C  2403  1  0.28794700  0.58354200  0.17436100  1
  C  2404  1  0.30538000  0.59784600  0.18030800  1
  C  2413  1  0.10094200  0.13149800  0.42512800  1
  C  2414  1  0.10858300  0.15348900  0.42111800  1
  C  2415  1  0.09990100  0.17246000  0.43114300  1
  C  2416  1  0.08635300  0.16891700  0.44851300  1
  C  2417  1  0.07958400  0.14720200  0.45417200  1
  C  2418  1  0.08462800  0.12883500  0.44100400  1
  C  2421  1  0.11309400  0.11308800  0.41591200  1
  C  2422  1  0.12247000  0.11394300  0.39566600  1
  C  2423  1  0.14035900  0.09927800  0.39033800  1
  C  2424  1  0.14525100  0.08100300  0.40330000  1
  C  2425  1  0.13414800  0.07809300  0.42212300  1
  C  2426  1  0.11953200  0.09502400  0.42873800  1
  C  2435  1  0.82040700  0.36972500  0.92499890  1
  C  2436  1  0.81272100  0.34773800  0.92104490  1
  C  2437  1  0.82141200  0.32877400  0.93107190  1
  C  2438  1  0.83503600  0.33232500  0.94839190  1
  C  2439  1  0.84187600  0.35404400  0.95398490  1
  C  2440  1  0.83677600  0.37239600  0.94082390  1
  C  2443  1  0.80824500  0.38813100  0.91579590  1
  C  2444  1  0.79883700  0.38727400  0.89556600  1
  C  2445  1  0.78099300  0.40198000  0.89023900  1
  C  2446  1  0.77609400  0.42024700  0.90321690  1
  C  2447  1  0.78723300  0.42315600  0.92202690  1
  C  2448  1  0.80183500  0.40620000  0.92862490  1
  C  2457  1  0.57881400  0.61538800  0.13696200  1
  C  2458  1  0.55735900  0.60640100  0.14109300  1
  C  2459  1  0.53800600  0.61323400  0.13054200  1
  C  2460  1  0.54076300  0.62633600  0.11278600  1
  C  2461  1  0.56197100  0.63456300  0.10712800  1
  C  2462  1  0.58041100  0.63142700  0.12071900  1
  C  2465  1  0.59802600  0.60459500  0.14624200  1
  C  2466  1  0.59763500  0.59485300  0.16635700  1
  C  2467  1  0.61290500  0.57738100  0.17142800  1
  C  2468  1  0.63133500  0.57344400  0.15835800  1
  C  2469  1  0.63381000  0.58512500  0.13980400  1
  C  2470  1  0.61643400  0.59926100  0.13339200  1
  C  2479  1  0.34382900  0.88468100  0.63680500  1
  C  2480  1  0.36526800  0.89373300  0.64088100  1
  C  2481  1  0.38463200  0.88680800  0.63039200  1
  C  2482  1  0.38189300  0.87357200  0.61271900  1
  C  2483  1  0.36070000  0.86524800  0.60715600  1
  C  2484  1  0.34225500  0.86844700  0.62072600  1
  C  2487  1  0.32458900  0.89554800  0.64598100  1
  C  2488  1  0.32495400  0.90553100  0.66599300  1
  C  2489  1  0.30958100  0.92297600  0.67085200  1
  C  2490  1  0.29110600  0.92667300  0.65778400  1
  C  2491  1  0.28867200  0.91470700  0.63937500  1
  C  2492  1  0.30613900  0.90061200  0.63308900  1
  C  2501  1  0.09956200  0.36892400  0.38782800  1
  C  2502  1  0.10735400  0.34696600  0.39184000  1
  C  2503  1  0.09944700  0.32810800  0.38117300  1
  C  2504  1  0.08637300  0.33170000  0.36352300  1
  C  2505  1  0.07925800  0.35337200  0.35806900  1
  C  2506  1  0.08365400  0.37160000  0.37159300  1
  C  2509  1  0.11137500  0.38737700  0.39732200  1
  C  2510  1  0.12043900  0.38645900  0.41768900  1
  C  2511  1  0.13820100  0.40112800  0.42330600  1
  C  2512  1  0.14326500  0.41943400  0.41044300  1
  C  2513  1  0.13247700  0.42238600  0.39147800  1
  C  2514  1  0.11794700  0.40551400  0.38464500  1
  C  2523  1  0.82196800  0.13235300  0.88786900  1
  C  2524  1  0.81403000  0.15426300  0.89186600  1
  C  2525  1  0.82181400  0.17316600  0.88119300  1
  C  2526  1  0.83493900  0.16965600  0.86356300  1
  C  2527  1  0.84220800  0.14802700  0.85812200  1
  C  2528  1  0.83787200  0.12976700  0.87162000  1
  C  2531  1  0.81029400  0.11384000  0.89740500  1
  C  2532  1  0.80127200  0.11473200  0.91778690  1
  C  2533  1  0.78363500  0.09995700  0.92346990  1
  C  2534  1  0.77859000  0.08163100  0.91061590  1
  C  2535  1  0.78934900  0.07872200  0.89162900  1
  C  2536  1  0.80379000  0.09565200  0.88475800  1
  C  2545  1  0.34192800  0.11568500  0.63896600  1
  C  2546  1  0.36377500  0.10806600  0.64359900  1
  C  2547  1  0.38296800  0.11656400  0.63381500  1
  C  2548  1  0.37986000  0.13033300  0.61650400  1
  C  2549  1  0.35834400  0.13744600  0.61055400  1
  C  2550  1  0.33979700  0.13253700  0.62351500  1
  C  2553  1  0.32325600  0.10255800  0.64631400  1
  C  2554  1  0.32268300  0.09194300  0.66605300  1
  C  2555  1  0.30828100  0.07323800  0.66943700  1
  C  2556  1  0.29140000  0.06890400  0.65472500  1
  C  2557  1  0.28952700  0.08128300  0.63649100  1
  C  2558  1  0.30650100  0.09662100  0.63190700  1
  C  2567  1  0.58096900  0.38567700  0.13893400  1
  C  2568  1  0.55905000  0.39301500  0.14367200  1
  C  2569  1  0.53992800  0.38433800  0.13389500  1
  C  2570  1  0.54315500  0.37064700  0.11654700  1
  C  2571  1  0.56473100  0.36376600  0.11056600  1
  C  2572  1  0.58329800  0.36891700  0.12342800  1
  C  2575  1  0.59951000  0.39893900  0.14636800  1
  C  2576  1  0.60006200  0.40920200  0.16626200  1
  C  2577  1  0.61433000  0.42795300  0.16987200  1
  C  2578  1  0.63107900  0.43273200  0.15514400  1
  C  2579  1  0.63297700  0.42071400  0.13670800  1
  C  2580  1  0.61613000  0.40527800  0.13197000  1
  C  2589  1  0.82120800  0.86935400  0.88752700  1
  C  2590  1  0.81360900  0.84745000  0.89191500  1
  C  2591  1  0.82169600  0.82838900  0.88162600  1
  C  2592  1  0.83459600  0.83180500  0.86381400  1
  C  2593  1  0.84115600  0.85346700  0.85775400  1
  C  2594  1  0.83657300  0.87200200  0.87088200  1
  C  2597  1  0.80998600  0.88776700  0.89758000  1
  C  2598  1  0.80285300  0.88701400  0.91856490  1
  C  2599  1  0.78564100  0.90170600  0.92538690  1
  C  2600  1  0.77998900  0.92020700  0.91296590  1
  C  2601  1  0.78855200  0.92292600  0.89296000  1
  C  2602  1  0.80200700  0.90555900  0.88517300  1
  C  2611  1  0.10138100  0.63169400  0.38770400  1
  C  2612  1  0.10902500  0.65357900  0.39210700  1
  C  2613  1  0.10095000  0.67266800  0.38185200  1
  C  2614  1  0.08798200  0.66930400  0.36407600  1
  C  2615  1  0.08134900  0.64766100  0.35801300  1
  C  2616  1  0.08597700  0.62909600  0.37108200  1
  C  2619  1  0.11261000  0.61324700  0.39769200  1
  C  2620  1  0.11976800  0.61391500  0.41867100  1
  C  2621  1  0.13694300  0.59917600  0.42547800  1
  C  2622  1  0.14256300  0.58071800  0.41296900  1
  C  2623  1  0.13399100  0.57808100  0.39295600  1
  C  2624  1  0.12056600  0.59549600  0.38522700  1
  C  2633  1  0.34351800  0.38288000  0.17556400  1
  C  2634  1  0.36525700  0.39085100  0.17099800  1
  C  2635  1  0.38442300  0.38328100  0.18144100  1
  C  2636  1  0.38137300  0.37003400  0.19908000  1
  C  2637  1  0.35997400  0.36241800  0.20480400  1
  C  2638  1  0.34155600  0.36644900  0.19142200  1
  C  2641  1  0.32462500  0.39544900  0.16779500  1
  C  2642  1  0.32410300  0.40575700  0.14791100  1
  C  2643  1  0.30943900  0.42419400  0.14412900  1
  C  2644  1  0.29238300  0.42857600  0.15866500  1
  C  2645  1  0.29052100  0.41646400  0.17703300  1
  C  2646  1  0.30756500  0.40131600  0.18194300  1
  C  2655  1  0.57914300  0.11726100  0.67551000  1
  C  2656  1  0.55742600  0.10926700  0.67091400  1
  C  2657  1  0.53824600  0.11688000  0.68130900  1
  C  2658  1  0.54125600  0.13020300  0.69890500  1
  C  2659  1  0.56263900  0.13788800  0.70459300  1
  C  2660  1  0.58110500  0.13378000  0.69128600  1
  C  2663  1  0.59803400  0.10462000  0.66783900  1
  C  2664  1  0.59862700  0.09428300  0.64797200  1
  C  2665  1  0.61326700  0.07580600  0.64429000  1
  C  2666  1  0.63023300  0.07141300  0.65891500  1
  C  2667  1  0.63202100  0.08354100  0.67728300  1
  C  2668  1  0.61498400  0.09873600  0.68208500  1
  C  2677  1  0.82280800  0.63238700  0.92648390  1
  C  2678  1  0.81502000  0.65425500  0.92213890  1
  C  2679  1  0.82223700  0.67318300  0.93311190  1
  C  2680  1  0.83461900  0.66967400  0.95119990  1
  C  2681  1  0.84156300  0.64804500  0.95701390  1
  C  2682  1  0.83772500  0.62969300  0.94347590  1
  C  2685  1  0.81195400  0.61394400  0.91616390  1
  C  2686  1  0.80515300  0.61476900  0.89508600  1
  C  2687  1  0.78811800  0.60005500  0.88796900  1
  C  2688  1  0.78229400  0.58152400  0.90027790  1
  C  2689  1  0.79043800  0.57881700  0.92042690  1
  C  2690  1  0.80381700  0.59609800  0.92841690  1
  C  2699  1  0.10025200  0.86862700  0.42689500  1
  C  2700  1  0.10808300  0.84678300  0.42250800  1
  C  2701  1  0.10086700  0.82780700  0.43340800  1
  C  2702  1  0.08837400  0.83122600  0.45144400  1
  C  2703  1  0.08137000  0.85282300  0.45730000  1
  C  2704  1  0.08531400  0.87125100  0.44388200  1
  C  2707  1  0.11102800  0.88710400  0.41655600  1
  C  2708  1  0.11771700  0.88630200  0.39545100  1
  C  2709  1  0.13465500  0.90106100  0.38825900  1
  C  2710  1  0.14054900  0.91959400  0.40054700  1
  C  2711  1  0.13246700  0.92230700  0.42072000  1
  C  2712  1  0.11917800  0.90497700  0.42876900  1
  C  2721  1  0.07957600  0.38958400  0.17639200  1
  C  2722  1  0.05781200  0.39777800  0.17223700  1
  C  2723  1  0.03859400  0.38985300  0.18237700  1
  C  2724  1  0.04176400  0.37662300  0.20002300  1
  C  2725  1  0.06329900  0.36949800  0.20589500  1
  C  2726  1  0.08188200  0.37381500  0.19277900  1
  C  2729  1  0.09825500  0.40040600  0.16635100  1
  C  2730  1  0.09743000  0.40851800  0.14566800  1
  C  2731  1  0.11262800  0.42542500  0.13920100  1
  C  2732  1  0.13171600  0.42954200  0.15137600  1
  C  2733  1  0.13459400  0.41976600  0.17090200  1
  C  2734  1  0.11668100  0.40704000  0.17863100  1
  C  2743  1  0.84256900  0.11168200  0.67640000  1
  C  2744  1  0.86434800  0.10358400  0.67220400  1
  C  2745  1  0.88352600  0.11152600  0.68239100  1
  C  2746  1  0.88028900  0.12463200  0.70010700  1
  C  2747  1  0.85873400  0.13167000  0.70602800  1
  C  2748  1  0.84020200  0.12738500  0.69283200  1
  C  2751  1  0.82392000  0.10081100  0.66635800  1
  C  2752  1  0.82471900  0.09281900  0.64563400  1
  C  2753  1  0.80950700  0.07593200  0.63916500  1
  C  2754  1  0.79050800  0.07161100  0.65139000  1
  C  2755  1  0.78770900  0.08124700  0.67098300  1
  C  2756  1  0.80558700  0.09403400  0.67868900  1
  C  2765  1  0.59953400  0.63056100  0.92665290  1
  C  2766  1  0.60622100  0.65261800  0.92151790  1
  C  2767  1  0.59704500  0.67176500  0.93094390  1
  C  2768  1  0.58334700  0.66854200  0.94828090  1
  C  2769  1  0.57704000  0.64693000  0.95460490  1
  C  2770  1  0.58299600  0.62812700  0.94235190  1
  C  2773  1  0.61287700  0.61211900  0.91896690  1
  C  2774  1  0.62254700  0.61169200  0.89882100  1
  C  2775  1  0.64135700  0.59762000  0.89471700  1
  C  2776  1  0.64648300  0.58060400  0.90909990  1
  C  2777  1  0.63476700  0.57831500  0.92766290  1
  C  2778  1  0.61950400  0.59518500  0.93297590  1
  C  2787  1  0.32324100  0.86985400  0.42659200  1
  C  2788  1  0.31657000  0.84779100  0.42146800  1
  C  2789  1  0.32575900  0.82866100  0.43090500  1
  C  2790  1  0.33943500  0.83191000  0.44825300  1
  C  2791  1  0.34572300  0.85353500  0.45460000  1
  C  2792  1  0.33974700  0.87230300  0.44231600  1
  C  2795  1  0.30990800  0.88828300  0.41887500  1
  C  2796  1  0.30032300  0.88872300  0.39869800  1
  C  2797  1  0.28157600  0.90284200  0.39449500  1
  C  2798  1  0.27637200  0.91981700  0.40889900  1
  C  2799  1  0.28794600  0.92205600  0.42754500  1
  C  2800  1  0.30319100  0.90518000  0.43288600  1
  C  2809  1  0.07891800  0.11351500  0.63680300  1
  C  2810  1  0.05721600  0.10519200  0.64096500  1
  C  2811  1  0.03814100  0.11217200  0.63005900  1
  C  2812  1  0.04138500  0.12475300  0.61205200  1
  C  2813  1  0.06286600  0.13218300  0.60638100  1
  C  2814  1  0.08127300  0.12865700  0.61991700  1
  C  2817  1  0.09760800  0.10317100  0.64726300  1
  C  2818  1  0.09667100  0.09565500  0.66813700  1
  C  2819  1  0.11190500  0.07898000  0.67507600  1
  C  2820  1  0.13102300  0.07443600  0.66307100  1
  C  2821  1  0.13388400  0.08349700  0.64326600  1
  C  2822  1  0.11608200  0.09614400  0.63520700  1
  C  2831  1  0.84320800  0.38859600  0.13659600  1
  C  2832  1  0.86492900  0.39678500  0.14086600  1
  C  2833  1  0.88397900  0.38982200  0.12991700  1
  C  2834  1  0.88068500  0.37741700  0.11181100  1
  C  2835  1  0.85918800  0.37009900  0.10604500  1
  C  2836  1  0.84079800  0.37359500  0.11961700  1
  C  2839  1  0.82454200  0.39892500  0.14710300  1
  C  2840  1  0.82541900  0.40609000  0.16807800  1
  C  2841  1  0.81021500  0.42270900  0.17517900  1
  C  2842  1  0.79120900  0.42758400  0.16312300  1
  C  2843  1  0.78842000  0.41887500  0.14317400  1
  C  2844  1  0.80619000  0.40623800  0.13504000  1
  C  2853  1  0.59852800  0.86905200  0.88626500  1
  C  2854  1  0.60541300  0.84704100  0.89142200  1
  C  2855  1  0.59705500  0.82793100  0.88137400  1
  C  2856  1  0.58388600  0.83111200  0.86370400  1
  C  2857  1  0.57722700  0.85266900  0.85752500  1
  C  2858  1  0.58245200  0.87140700  0.87013800  1
  C  2861  1  0.61141700  0.88761800  0.89431800  1
  C  2862  1  0.62060100  0.88805300  0.91465890  1
  C  2863  1  0.63911800  0.90232700  0.91921290  1
  C  2864  1  0.64442600  0.91940800  0.90495890  1
  C  2865  1  0.63319500  0.92161900  0.88614100  1
  C  2866  1  0.61819400  0.90467300  0.88049800  1
  C  2875  1  0.32419500  0.63134800  0.38617800  1
  C  2876  1  0.31736000  0.65336900  0.39134400  1
  C  2877  1  0.32575800  0.67245700  0.38129300  1
  C  2878  1  0.33892200  0.66924600  0.36362300  1
  C  2879  1  0.34554600  0.64767100  0.35742400  1
  C  2880  1  0.34025800  0.62896600  0.37004900  1
  C  2883  1  0.31124300  0.61281300  0.39420200  1
  C  2884  1  0.30209500  0.61234600  0.41455300  1
  C  2885  1  0.28357700  0.59808500  0.41912900  1
  C  2886  1  0.27813900  0.58111100  0.40480400  1
  C  2887  1  0.28929700  0.57894100  0.38594500  1
  C  2888  1  0.30436800  0.59583800  0.38033800  1
  C  2897  1  0.84135900  0.61120900  0.13781200  1
  C  2898  1  0.86341800  0.60450100  0.14277700  1
  C  2899  1  0.88240200  0.61347900  0.13298300  1
  C  2900  1  0.87898400  0.62686600  0.11546400  1
  C  2901  1  0.85728500  0.63310500  0.10929700  1
  C  2902  1  0.83866400  0.62745500  0.12189300  1
  C  2905  1  0.82305500  0.59808900  0.14586800  1
  C  2906  1  0.82247400  0.58920900  0.16629600  1
  C  2907  1  0.80801400  0.57091600  0.17099700  1
  C  2908  1  0.79076800  0.56589200  0.15681900  1
  C  2909  1  0.78891600  0.57650000  0.13758900  1
  C  2910  1  0.80651300  0.59071300  0.13182300  1
  C  2919  1  0.08035600  0.88877100  0.63801100  1
  C  2920  1  0.05838300  0.89586500  0.64280900  1
  C  2921  1  0.03933700  0.88705800  0.63299700  1
  C  2922  1  0.04267600  0.87354500  0.61554600  1
  C  2923  1  0.06431100  0.86692400  0.60950200  1
  C  2924  1  0.08287600  0.87228100  0.62228200  1
  C  2927  1  0.09881700  0.90178600  0.64592900  1
  C  2928  1  0.09936400  0.91122000  0.66614800  1
  C  2929  1  0.11395900  0.92952200  0.67047000  1
  C  2930  1  0.13139000  0.93394300  0.65631900  1
  C  2931  1  0.13328400  0.92268900  0.63740600  1
  C  2932  1  0.11558700  0.90852200  0.63184700  1
  C  2941  1  0.32178300  0.36956900  0.38612800  1
  C  2942  1  0.31507900  0.34761200  0.39155300  1
  C  2943  1  0.32358800  0.32834800  0.38180900  1
  C  2944  1  0.33657000  0.33142000  0.36398400  1
  C  2945  1  0.34270500  0.35296300  0.35729500  1
  C  2946  1  0.33733200  0.37192000  0.36959300  1
  C  2949  1  0.30952200  0.38813700  0.39488200  1
  C  2950  1  0.30220700  0.38871600  0.41583200  1
  C  2951  1  0.28438200  0.40326800  0.42167800  1
  C  2952  1  0.27845600  0.42060700  0.40790600  1
  C  2953  1  0.28758000  0.42252700  0.38805100  1
  C  2954  1  0.30146100  0.40496800  0.38140200  1
  C  2963  1  0.59993500  0.13097500  0.88607300  1
  C  2964  1  0.60663500  0.15294400  0.89145300  1
  C  2965  1  0.59813800  0.17218000  0.88166100  1
  C  2966  1  0.58519900  0.16905400  0.86381400  1
  C  2967  1  0.57907800  0.14749000  0.85714100  1
  C  2968  1  0.58443700  0.12858500  0.86950700  1
  C  2971  1  0.61217200  0.11243300  0.89490200  1
  C  2972  1  0.61942700  0.11191500  0.91586790  1
  C  2973  1  0.63722900  0.09739000  0.92182790  1
  C  2974  1  0.64321100  0.08002900  0.90809090  1
  C  2975  1  0.63418800  0.07806800  0.88820100  1
  C  2976  1  0.62030200  0.09558500  0.88147800  1
  C  2985  1  0.84288600  0.88679000  0.67628800  1
  C  2986  1  0.86478600  0.89414200  0.67153100  1
  C  2987  1  0.88381600  0.88618600  0.68195600  1
  C  2988  1  0.88056600  0.87309800  0.69966800  1
  C  2989  1  0.85901300  0.86606000  0.70547800  1
  C  2990  1  0.84049100  0.87072600  0.69241400  1
  C  2993  1  0.82428600  0.89941000  0.66806700  1
  C  2994  1  0.82375200  0.90852000  0.64771500  1
  C  2995  1  0.80900900  0.92663300  0.64305600  1
  C  2996  1  0.79160000  0.93131100  0.65716200  1
  C  2997  1  0.78978100  0.92046000  0.67626400  1
  C  2998  1  0.80743100  0.90631600  0.68201200  1
  C  3007  1  0.07904000  0.61420700  0.17641300  1
  C  3008  1  0.05712200  0.60688800  0.17168100  1
  C  3009  1  0.03813800  0.61480600  0.18220400  1
  C  3010  1  0.04149700  0.62773400  0.20000000  1
  C  3011  1  0.06307000  0.63472300  0.20582100  1
  C  3012  1  0.08150500  0.63017600  0.19260700  1
  C  3015  1  0.09763500  0.60170300  0.16800300  1
  C  3016  1  0.09805300  0.59274700  0.14758800  1
  C  3017  1  0.11282500  0.57472300  0.14272900  1
  C  3018  1  0.13035300  0.57000800  0.15670000  1
  C  3019  1  0.13228200  0.58072900  0.17585300  1
  C  3020  1  0.11464700  0.59479900  0.18179100  1
  C  3029  1  0.32246300  0.13158500  0.42838600  1
  C  3030  1  0.31561000  0.15354100  0.42304800  1
  C  3031  1  0.32332800  0.17268200  0.43347100  1
  C  3032  1  0.33579900  0.16950000  0.45157300  1
  C  3033  1  0.34224400  0.14795600  0.45801200  1
  C  3034  1  0.33755400  0.12915800  0.44527700  1
  C  3037  1  0.31061600  0.11299200  0.41922800  1
  C  3038  1  0.30382100  0.11254300  0.39813000  1
  C  3039  1  0.28627400  0.09791100  0.39180500  1
  C  3040  1  0.28009300  0.08046800  0.40536300  1
  C  3041  1  0.28866200  0.07849100  0.42541700  1
  C  3042  1  0.30233900  0.09601300  0.43243400  1
  C  3051  1  0.59890400  0.36892000  0.92817690  1
  C  3052  1  0.60580400  0.34698800  0.92283290  1
  C  3053  1  0.59821400  0.32783700  0.93331890  1
  C  3054  1  0.58584400  0.33100700  0.95148290  1
  C  3055  1  0.57935200  0.35254300  0.95793990  1
  C  3056  1  0.58391000  0.37131500  0.94514090  1
  C  3059  1  0.61069000  0.38753700  0.91900390  1
  C  3060  1  0.61741900  0.38803300  0.89788700  1
  C  3061  1  0.63489400  0.40271500  0.89149100  1
  C  3062  1  0.64116700  0.42007400  0.90511090  1
  C  3063  1  0.63275500  0.42194100  0.92522390  1
  C  3064  1  0.61904900  0.40445000  0.93223390  1
  C  3073  1  0.60727200  0.94409600  0.63069800  1
  C  3074  1  0.58801200  0.95606100  0.63650200  1
  C  3075  1  0.58455400  0.97856800  0.63071300  1
  C  3076  1  0.60022700  0.98956100  0.61755500  1
  C  3077  1  0.61872000  0.97667500  0.61026000  1
  C  3078  1  0.62218900  0.95445800  0.61696600  1
  C  3080  1  0.60167800  0.01376000  0.61581300  1
  C  3081  1  0.58352700  0.02845400  0.61932200  1
  C  3082  1  0.58715100  0.05014200  0.62687300  1
  C  3083  1  0.60901500  0.05874800  0.62915200  1
  C  3084  1  0.62654200  0.04612900  0.62023700  1
  C  3085  1  0.62315800  0.02381700  0.61379700  1
  C  3090  1  0.64294900  0.01022400  0.60780900  1
  C  3091  1  0.63611200  0.98789600  0.59763500  1
  C  3099  1  0.31530300  0.55593000  0.13058800  1
  C  3100  1  0.33442900  0.54389200  0.13665900  1
  C  3101  1  0.33791600  0.52137600  0.13091900  1
  C  3102  1  0.32240900  0.51042000  0.11757700  1
  C  3103  1  0.30398900  0.52331100  0.11013800  1
  C  3104  1  0.30050200  0.54555600  0.11676200  1
  C  3106  1  0.32102500  0.48623000  0.11575700  1
  C  3107  1  0.33921100  0.47156600  0.11923300  1
  C  3108  1  0.33559500  0.44986000  0.12675700  1
  C  3109  1  0.31373100  0.44123400  0.12898100  1
  C  3110  1  0.29622000  0.45380200  0.11998100  1
  C  3111  1  0.29958200  0.47613600  0.11360100  1
  C  3116  1  0.27980400  0.48972300  0.10756600  1
  C  3117  1  0.28667700  0.51206700  0.09743300  1
  C  3125  1  0.15788400  0.10621600  0.37684400  1
  C  3126  1  0.16993200  0.12545800  0.38250400  1
  C  3127  1  0.19226900  0.12893500  0.37619100  1
  C  3128  1  0.20284600  0.11341300  0.36257500  1
  C  3129  1  0.18965800  0.09521000  0.35518200  1
  C  3130  1  0.16769700  0.09161000  0.36249200  1
  C  3132  1  0.22700200  0.11166400  0.36052600  1
  C  3133  1  0.24199700  0.12945100  0.36442000  1
  C  3134  1  0.26321800  0.12515200  0.37278400  1
  C  3135  1  0.27114100  0.10300700  0.37514500  1
  C  3136  1  0.25881700  0.08608600  0.36499800  1
  C  3137  1  0.23675100  0.09007200  0.35813500  1
  C  3142  1  0.22289400  0.07065700  0.35168400  1
  C  3143  1  0.20047400  0.07804100  0.34199200  1
  C  3151  1  0.76332400  0.39500100  0.87691200  1
  C  3152  1  0.75134300  0.37573000  0.88259400  1
  C  3153  1  0.72907200  0.37208800  0.87619100  1
  C  3154  1  0.71846600  0.38750800  0.86250200  1
  C  3155  1  0.73156300  0.40579800  0.85514000  1
  C  3156  1  0.75349100  0.40951700  0.86249100  1
  C  3158  1  0.69430300  0.38915600  0.86037500  1
  C  3159  1  0.67938700  0.37131700  0.86433200  1
  C  3160  1  0.65807400  0.37551500  0.87253400  1
  C  3161  1  0.65006600  0.39762400  0.87486600  1
  C  3162  1  0.66235800  0.41458300  0.86474800  1
  C  3163  1  0.68445900  0.41069800  0.85792100  1
  C  3168  1  0.69822400  0.43015300  0.85141600  1
  C  3169  1  0.72072400  0.42284500  0.84183500  1
  C  3177  1  0.60645000  0.55914000  0.18432500  1
  C  3178  1  0.58724800  0.54702800  0.17866800  1
  C  3179  1  0.58403200  0.52450700  0.18451500  1
  C  3180  1  0.59991800  0.51364600  0.19756600  1
  C  3181  1  0.61824900  0.52673400  0.20485900  1
  C  3182  1  0.62144300  0.54897900  0.19813800  1
  C  3184  1  0.60180200  0.48945700  0.19909100  1
  C  3185  1  0.58390300  0.47450700  0.19549800  1
  C  3186  1  0.58788100  0.45299500  0.18766500  1
  C  3187  1  0.60988500  0.44480500  0.18515700  1
  C  3188  1  0.62724300  0.45759500  0.19409900  1
  C  3189  1  0.62348200  0.47973700  0.20085800  1
  C  3194  1  0.64305400  0.49356200  0.20694300  1
  C  3195  1  0.63586300  0.51566000  0.21735500  1
  C  3203  1  0.31595400  0.94140000  0.68357900  1
  C  3204  1  0.33504200  0.95356200  0.67764700  1
  C  3205  1  0.33816500  0.97616900  0.68325900  1
  C  3206  1  0.32239900  0.98705200  0.69641100  1
  C  3207  1  0.30413900  0.97398000  0.70387200  1
  C  3208  1  0.30099600  0.95165200  0.69736100  1
  C  3210  1  0.32058500  0.01124000  0.69795200  1
  C  3211  1  0.33855100  0.02614000  0.69446500  1
  C  3212  1  0.33464800  0.04775500  0.68683200  1
  C  3213  1  0.31267100  0.05606900  0.68443800  1
  C  3214  1  0.29526900  0.04324200  0.69326800  1
  C  3215  1  0.29895400  0.02102300  0.69984700  1
  C  3220  1  0.27936600  0.00721000  0.70591100  1
  C  3221  1  0.28655300  0.98512400  0.71635200  1
  C  3229  1  0.15557600  0.39416500  0.43698100  1
  C  3230  1  0.16770400  0.37492400  0.43140700  1
  C  3231  1  0.19010400  0.37161500  0.43762600  1
  C  3232  1  0.20067800  0.38732600  0.45104300  1
  C  3233  1  0.18738300  0.40546200  0.45845200  1
  C  3234  1  0.16533700  0.40886500  0.45127300  1
  C  3236  1  0.22484100  0.38932100  0.45282700  1
  C  3237  1  0.23998800  0.37164100  0.44893100  1
  C  3238  1  0.26117300  0.37604700  0.44055600  1
  C  3239  1  0.26892000  0.39822800  0.43808600  1
  C  3240  1  0.25636200  0.41515100  0.44800300  1
  C  3241  1  0.23437800  0.41102300  0.45499700  1
  C  3246  1  0.22037900  0.43035400  0.46145200  1
  C  3247  1  0.19816900  0.42282300  0.47143300  1
  C  3255  1  0.76609700  0.10692200  0.93697190  1
  C  3256  1  0.75391800  0.12609600  0.93130790  1
  C  3257  1  0.73153500  0.12942300  0.93754690  1
  C  3258  1  0.72100100  0.11376600  0.95103890  1
  C  3259  1  0.73431600  0.09566300  0.95850290  1
  C  3260  1  0.75638000  0.09228700  0.95135090  1
  C  3262  1  0.69683800  0.11168500  0.95282090  1
  C  3263  1  0.68164600  0.12928700  0.94877690  1
  C  3264  1  0.66042700  0.12479200  0.94052790  1
  C  3265  1  0.65275100  0.10258300  0.93814090  1
  C  3266  1  0.66539400  0.08574400  0.94808790  1
  C  3267  1  0.68736500  0.08996400  0.95507990  1
  C  3272  1  0.70139900  0.07072000  0.96167790  1
  C  3273  1  0.72359000  0.07837700  0.97160490  1
  C  3281  1  0.76852500  0.89412800  0.93914890  1
  C  3282  1  0.75688800  0.87460500  0.93351990  1
  C  3283  1  0.73429400  0.87108400  0.93896690  1
  C  3284  1  0.72285000  0.88701600  0.95153790  1
  C  3285  1  0.73563000  0.90532600  0.95931790  1
  C  3286  1  0.75803000  0.90872100  0.95312790  1
  C  3288  1  0.69861000  0.88912900  0.95183590  1
  C  3289  1  0.68372200  0.87141200  0.94737290  1
  C  3290  1  0.66287700  0.87562800  0.93823290  1
  C  3291  1  0.65513800  0.89772100  0.93521690  1
  C  3292  1  0.66747700  0.91494900  0.94487090  1
  C  3293  1  0.68904000  0.91093200  0.95296490  1
  C  3298  1  0.70260700  0.93035700  0.95988690  1
  C  3299  1  0.72399600  0.92294900  0.97136390  1
  C  3307  1  0.15414800  0.60660300  0.43921000  1
  C  3308  1  0.16584500  0.62608300  0.43353600  1
  C  3309  1  0.18850600  0.62942500  0.43885700  1
  C  3310  1  0.19989400  0.61347900  0.45144900  1
  C  3311  1  0.18704900  0.59523000  0.45926200  1
  C  3312  1  0.16459400  0.59196600  0.45317800  1
  C  3314  1  0.22412300  0.61130500  0.45175100  1
  C  3315  1  0.23906600  0.62902100  0.44743000  1
  C  3316  1  0.25990100  0.62478600  0.43826700  1
  C  3317  1  0.26757200  0.60268200  0.43514600  1
  C  3318  1  0.25519900  0.58544900  0.44476300  1
  C  3319  1  0.23363800  0.58948300  0.45284600  1
  C  3324  1  0.22000300  0.57007600  0.45969700  1
  C  3325  1  0.19866200  0.57752800  0.47123200  1
  C  3333  1  0.77114400  0.60763600  0.87403300  1
  C  3334  1  0.75928300  0.62700800  0.87980400  1
  C  3335  1  0.73651700  0.63010200  0.87470700  1
  C  3336  1  0.72519300  0.61398300  0.86227000  1
  C  3337  1  0.73819400  0.59596800  0.85421300  1
  C  3338  1  0.76076400  0.59297500  0.86004800  1
  C  3340  1  0.70100200  0.61147600  0.86231200  1
  C  3341  1  0.68584500  0.62899900  0.86675200  1
  C  3342  1  0.66506700  0.62451400  0.87590600  1
  C  3343  1  0.65765600  0.60232200  0.87898300  1
  C  3344  1  0.67035900  0.58521700  0.86952100  1
  C  3345  1  0.69179600  0.58953100  0.86130000  1
  C  3350  1  0.70565100  0.57032000  0.85430200  1
  C  3351  1  0.72665800  0.57807800  0.84243500  1
  C  3359  1  0.15178400  0.89340400  0.37451100  1
  C  3360  1  0.16360400  0.87402900  0.38032900  1
  C  3361  1  0.18628400  0.87073700  0.37505900  1
  C  3362  1  0.19759100  0.88670700  0.36245400  1
  C  3363  1  0.18465400  0.90479400  0.35443300  1
  C  3364  1  0.16213800  0.90793300  0.36038900  1
  C  3366  1  0.22180000  0.88910400  0.36232300  1
  C  3367  1  0.23688500  0.87153200  0.36680800  1
  C  3368  1  0.25776000  0.87595100  0.37579700  1
  C  3369  1  0.26526500  0.89811900  0.37878400  1
  C  3370  1  0.25260400  0.91524000  0.36930200  1
  C  3371  1  0.23111100  0.91100000  0.36117400  1
  C  3376  1  0.21733100  0.93023800  0.35412000  1
  C  3377  1  0.19618300  0.92252000  0.34244800  1
  C  3385  1  0.10540600  0.44360800  0.12646400  1
  C  3386  1  0.08632000  0.45557300  0.13279500  1
  C  3387  1  0.08275900  0.47817600  0.12737200  1
  C  3388  1  0.09814400  0.48936600  0.11407800  1
  C  3389  1  0.11628000  0.47648600  0.10606300  1
  C  3390  1  0.11977600  0.45409700  0.11229100  1
  C  3392  1  0.09982800  0.51360000  0.11289800  1
  C  3393  1  0.08195600  0.52839300  0.11717100  1
  C  3394  1  0.08603100  0.54980900  0.12517400  1
  C  3395  1  0.10804000  0.55814300  0.12722000  1
  C  3396  1  0.12516400  0.54557300  0.11759600  1
  C  3397  1  0.12135800  0.52349200  0.11066600  1
  C  3402  1  0.14080800  0.50986000  0.10385500  1
  C  3403  1  0.13343300  0.48790200  0.09330300  1
  C  3411  1  0.81670900  0.05783400  0.62628800  1
  C  3412  1  0.83575400  0.04581700  0.63268700  1
  C  3413  1  0.83915400  0.02314300  0.62741900  1
  C  3414  1  0.82372800  0.01195600  0.61416800  1
  C  3415  1  0.80565200  0.02487000  0.60609400  1
  C  3416  1  0.80230100  0.04733100  0.61216100  1
  C  3418  1  0.82195100  0.98772600  0.61311200  1
  C  3419  1  0.83982100  0.97288900  0.61726400  1
  C  3420  1  0.83573600  0.95150500  0.62534600  1
  C  3421  1  0.81371100  0.94326100  0.62757100  1
  C  3422  1  0.79654200  0.95586700  0.61805600  1
  C  3423  1  0.80037300  0.97790700  0.61103100  1
  C  3428  1  0.78094300  0.99159000  0.60426400  1
  C  3429  1  0.78836800  0.01341500  0.59350800  1
  C  3437  1  0.10460500  0.06099800  0.68805100  1
  C  3438  1  0.08570500  0.04885700  0.68151100  1
  C  3439  1  0.08256900  0.02608400  0.68654800  1
  C  3440  1  0.09815300  0.01491400  0.69966600  1
  C  3441  1  0.11596500  0.02794200  0.70801200  1
  C  3442  1  0.11901800  0.05052200  0.70221700  1
  C  3444  1  0.10029400  0.99069800  0.70037400  1
  C  3445  1  0.08263600  0.97568600  0.69607200  1
  C  3446  1  0.08701100  0.95438200  0.68793100  1
  C  3447  1  0.10914400  0.94637700  0.68572400  1
  C  3448  1  0.12616800  0.95923200  0.69513100  1
  C  3449  1  0.12201200  0.98113700  0.70236100  1
  C  3454  1  0.14121600  0.99499600  0.70932500  1
  C  3455  1  0.13342800  0.01650500  0.72042700  1
  C  3463  1  0.81755400  0.44044200  0.18841500  1
  C  3464  1  0.83662100  0.45256100  0.18230100  1
  C  3465  1  0.83985900  0.47519400  0.18776300  1
  C  3466  1  0.82415900  0.48622100  0.20086700  1
  C  3467  1  0.80621000  0.47312400  0.20888900  1
  C  3468  1  0.80309700  0.45067300  0.20270300  1
  C  3470  1  0.82192300  0.51043300  0.20172300  1
  C  3471  1  0.83952100  0.52552500  0.19743800  1
  C  3472  1  0.83508400  0.54673000  0.18911000  1
  C  3473  1  0.81291300  0.55450300  0.18662700  1
  C  3474  1  0.79591700  0.54171800  0.19615100  1
  C  3475  1  0.80014100  0.51989700  0.20355900  1
  C  3480  1  0.78094900  0.50600300  0.21048200  1
  C  3481  1  0.78872900  0.48438900  0.22140500  1
  C  3489  1  0.40610300  0.89365600  0.63730800  1
  C  3490  1  0.42216500  0.90281600  0.62393200  1
  C  3491  1  0.44422400  0.90734100  0.63057000  1
  C  3492  1  0.45062100  0.90203400  0.65108900  1
  C  3493  1  0.43367100  0.89545900  0.66521200  1
  C  3494  1  0.41195000  0.89076500  0.65811500  1
  C  3496  1  0.47339300  0.90189000  0.65834200  1
  C  3497  1  0.49120700  0.89522100  0.64544100  1
  C  3498  1  0.51266000  0.89125300  0.65324700  1
  C  3499  1  0.51721300  0.89325100  0.67444200  1
  C  3500  1  0.49951100  0.89948700  0.68757500  1
  C  3501  1  0.47783200  0.90355200  0.67978800  1
  C  3506  1  0.45880400  0.90729500  0.69403100  1
  C  3507  1  0.43879000  0.89253600  0.68746500  1
  C  3515  1  0.51652300  0.60641800  0.13747000  1
  C  3516  1  0.50050000  0.59713800  0.12412500  1
  C  3517  1  0.47844400  0.59259000  0.13076300  1
  C  3518  1  0.47200200  0.59799300  0.15124700  1
  C  3519  1  0.48891500  0.60471600  0.16535000  1
  C  3520  1  0.51063900  0.60940700  0.15825700  1
  C  3522  1  0.44922100  0.59804900  0.15849000  1
  C  3523  1  0.43136900  0.60450800  0.14554300  1
  C  3524  1  0.40989300  0.60841400  0.15332700  1
  C  3525  1  0.40533800  0.60653600  0.17453500  1
  C  3526  1  0.42307200  0.60046100  0.18769800  1
  C  3527  1  0.44477700  0.59647100  0.17994000  1
  C  3532  1  0.46382000  0.59292000  0.19420900  1
  C  3533  1  0.48375500  0.60775800  0.18758200  1
  C  3541  1  0.10531300  0.30623300  0.38779700  1
  C  3542  1  0.11410800  0.29013700  0.37424100  1
  C  3543  1  0.11812100  0.26788000  0.38061200  1
  C  3544  1  0.11258800  0.26128700  0.40102700  1
  C  3545  1  0.10614100  0.27815000  0.41530500  1
  C  3546  1  0.10205900  0.30011200  0.40848800  1
  C  3548  1  0.11261300  0.23846300  0.40814600  1
  C  3549  1  0.10624000  0.22064600  0.39512900  1
  C  3550  1  0.10295900  0.19900100  0.40275400  1
  C  3551  1  0.10536400  0.19425000  0.42387700  1
  C  3552  1  0.11113000  0.21198200  0.43714700  1
  C  3553  1  0.11453400  0.23384200  0.42954100  1
  C  3558  1  0.11796400  0.25279800  0.44393400  1
  C  3559  1  0.10298400  0.27271500  0.43746800  1
  C  3567  1  0.81584700  0.19500800  0.88783400  1
  C  3568  1  0.80699500  0.21108000  0.87428600  1
  C  3569  1  0.80294400  0.23332900  0.88066200  1
  C  3570  1  0.80849300  0.23993400  0.90106990  1
  C  3571  1  0.81496700  0.22308200  0.91534790  1
  C  3572  1  0.81909400  0.20113000  0.90852590  1
  C  3574  1  0.80852300  0.26276600  0.90816790  1
  C  3575  1  0.81493200  0.28055200  0.89512900  1
  C  3576  1  0.81824900  0.30220400  0.90271990  1
  C  3577  1  0.81591000  0.30698300  0.92384290  1
  C  3578  1  0.81015000  0.28927300  0.93714290  1
  C  3579  1  0.80668100  0.26741200  0.92956290  1
  C  3584  1  0.80321700  0.24848100  0.94397590  1
  C  3585  1  0.81813200  0.22851800  0.93750990  1
  C  3593  1  0.51664100  0.10996700  0.67489800  1
  C  3594  1  0.50106400  0.10074200  0.68871700  1
  C  3595  1  0.47883400  0.09610400  0.68268800  1
  C  3596  1  0.47180700  0.10132200  0.66233600  1
  C  3597  1  0.48830200  0.10782800  0.64772800  1
  C  3598  1  0.51021800  0.11265300  0.65422400  1
  C  3600  1  0.44881500  0.10144700  0.65573500  1
  C  3601  1  0.43143600  0.10824100  0.66908700  1
  C  3602  1  0.40974900  0.11223300  0.66184800  1
  C  3603  1  0.40458800  0.11016600  0.64079000  1
  C  3604  1  0.42181800  0.10371700  0.62722000  1
  C  3605  1  0.44371000  0.09962800  0.63443300  1
  C  3610  1  0.46226000  0.09571800  0.61970200  1
  C  3611  1  0.48249400  0.11051500  0.62559600  1
  C  3619  1  0.40605500  0.39014000  0.17503300  1
  C  3620  1  0.42164100  0.39936700  0.18884600  1
  C  3621  1  0.44388200  0.40397100  0.18282700  1
  C  3622  1  0.45093000  0.39871200  0.16248800  1
  C  3623  1  0.43444400  0.39215100  0.14789100  1
  C  3624  1  0.41250500  0.38739400  0.15437200  1
  C  3626  1  0.47391900  0.39872700  0.15586700  1
  C  3627  1  0.49138400  0.39213300  0.16921500  1
  C  3628  1  0.51311100  0.38837400  0.16196000  1
  C  3629  1  0.51824100  0.39049300  0.14089800  1
  C  3630  1  0.50092500  0.39674900  0.12734200  1
  C  3631  1  0.47899500  0.40060000  0.13456400  1
  C  3636  1  0.46039900  0.40433300  0.11983800  1
  C  3637  1  0.44028400  0.38939500  0.12577300  1
  C  3645  1  0.81647200  0.69502700  0.92625890  1
  C  3646  1  0.80764500  0.71128300  0.93964790  1
  C  3647  1  0.80373700  0.73349900  0.93310390  1
  C  3648  1  0.80930000  0.73986300  0.91264190  1
  C  3649  1  0.81572700  0.72285800  0.89850800  1
  C  3650  1  0.81981000  0.70097200  0.90552690  1
  C  3652  1  0.80926300  0.76259700  0.90532090  1
  C  3653  1  0.81582500  0.78051400  0.91813390  1
  C  3654  1  0.81909400  0.80206600  0.91028590  1
  C  3655  1  0.81639500  0.80664600  0.88915200  1
  C  3656  1  0.81044400  0.78877900  0.87609700  1
  C  3657  1  0.80715600  0.76698900  0.88390600  1
  C  3662  1  0.80370500  0.74786400  0.86970000  1
  C  3663  1  0.81878800  0.72806600  0.87628800  1
  C  3671  1  0.10666000  0.80598700  0.42651200  1
  C  3672  1  0.11546500  0.78970200  0.43988500  1
  C  3673  1  0.11932700  0.76748600  0.43332200  1
  C  3674  1  0.11373500  0.76115200  0.41285900  1
  C  3675  1  0.10735500  0.77818700  0.39873900  1
  C  3676  1  0.10332200  0.80007600  0.40577300  1
  C  3678  1  0.11365500  0.73841700  0.40553700  1
  C  3679  1  0.10701500  0.72052600  0.41834900  1
  C  3680  1  0.10368300  0.69898100  0.41051200  1
  C  3681  1  0.10632500  0.69439400  0.38937700  1
  C  3682  1  0.11231400  0.71224100  0.37631300  1
  C  3683  1  0.11569800  0.73402100  0.38411700  1
  C  3688  1  0.11924000  0.75312800  0.36991400  1
  C  3689  1  0.10426900  0.77300600  0.37651400  1
  C  3697  1  0.90571600  0.39570900  0.13693100  1
  C  3698  1  0.92201300  0.40472400  0.12370900  1
  C  3699  1  0.94414100  0.40872000  0.13044300  1
  C  3700  1  0.95037400  0.40304400  0.15091900  1
  C  3701  1  0.93329900  0.39641100  0.16488700  1
  C  3702  1  0.91151500  0.39224300  0.15768100  1
  C  3704  1  0.97306300  0.40300800  0.15836900  1
  C  3705  1  0.99106700  0.39653700  0.14561800  1
  C  3706  1  0.01254100  0.39308600  0.15357900  1
  C  3707  1  0.01696100  0.39549300  0.17477100  1
  C  3708  1  0.99900600  0.40136400  0.18776300  1
  C  3709  1  0.97728400  0.40483100  0.17983900  1
  C  3714  1  0.95806100  0.40818000  0.19395300  1
  C  3715  1  0.93832800  0.39317600  0.18712300  1
  C  3723  1  0.01642800  0.10615500  0.63702900  1
  C  3724  1  0.00016200  0.09718700  0.62374800  1
  C  3725  1  0.97804100  0.09309600  0.63045100  1
  C  3726  1  0.97178300  0.09863400  0.65095200  1
  C  3727  1  0.98883300  0.10521500  0.66496600  1
  C  3728  1  0.01061600  0.10946300  0.65779900  1
  C  3730  1  0.94908900  0.09858800  0.65838400  1
  C  3731  1  0.93108800  0.10508400  0.64564000  1
  C  3732  1  0.90960600  0.10847900  0.65360300  1
  C  3733  1  0.90517400  0.10596600  0.67478300  1
  C  3734  1  0.92312100  0.10004300  0.68776400  1
  C  3735  1  0.94485100  0.09663700  0.67984100  1
  C  3740  1  0.96406500  0.09324200  0.69395500  1
  C  3741  1  0.98377900  0.10831700  0.68721500  1
  C  3749  1  0.60291800  0.80607800  0.88812400  1
  C  3750  1  0.61163700  0.78994400  0.87454600  1
  C  3751  1  0.61531700  0.76758200  0.88077800  1
  C  3752  1  0.60952000  0.76087400  0.90109390  1
  C  3753  1  0.60316500  0.77774600  0.91542190  1
  C  3754  1  0.59948200  0.79986400  0.90875390  1
  C  3756  1  0.60946600  0.73796800  0.90809290  1
  C  3757  1  0.60339200  0.72010100  0.89498400  1
  C  3758  1  0.60029400  0.69835300  0.90249990  1
  C  3759  1  0.60252200  0.69355800  0.92362290  1
  C  3760  1  0.60808000  0.71132000  0.93695590  1
  C  3761  1  0.61131300  0.73325500  0.92946890  1
  C  3766  1  0.61459300  0.75214400  0.94397890  1
  C  3767  1  0.59969900  0.77212200  0.93750090  1
  C  3775  1  0.31994600  0.69432400  0.38804300  1
  C  3776  1  0.31124600  0.71047300  0.37446800  1
  C  3777  1  0.30759200  0.73283700  0.38070500  1
  C  3778  1  0.31339700  0.73953800  0.40102100  1
  C  3779  1  0.31974200  0.72265600  0.41534400  1
  C  3780  1  0.32339500  0.70053400  0.40867400  1
  C  3782  1  0.31345900  0.76244100  0.40803100  1
  C  3783  1  0.31955300  0.78031300  0.39493600  1
  C  3784  1  0.32259100  0.80206900  0.40245500  1
  C  3785  1  0.32033800  0.80685800  0.42357500  1
  C  3786  1  0.31480300  0.78908000  0.43690100  1
  C  3787  1  0.31160700  0.76714000  0.42940900  1
  C  3792  1  0.30831300  0.74824700  0.44390900  1
  C  3793  1  0.32320600  0.72827000  0.43742500  1
  C  3801  1  0.01633300  0.60869700  0.17562900  1
  C  3802  1  0.00041900  0.59975900  0.18928500  1
  C  3803  1  0.97814700  0.59561300  0.18307600  1
  C  3804  1  0.97138000  0.60107600  0.16270000  1
  C  3805  1  0.98809800  0.60755500  0.14829400  1
  C  3806  1  0.01007500  0.61182200  0.15496300  1
  C  3808  1  0.94849600  0.60096200  0.15577000  1
  C  3809  1  0.93075000  0.60739700  0.16886200  1
  C  3810  1  0.90903800  0.61061400  0.16134900  1
  C  3811  1  0.90419300  0.60809600  0.14026600  1
  C  3812  1  0.92183800  0.60218300  0.12693500  1
  C  3813  1  0.94375800  0.59888600  0.13441700  1
  C  3818  1  0.96261300  0.59540700  0.11991300  1
  C  3819  1  0.98248600  0.61052700  0.12614900  1
  C  3827  1  0.90556700  0.89243600  0.67538100  1
  C  3828  1  0.92141000  0.90148500  0.68904100  1
  C  3829  1  0.94365500  0.90576000  0.68283100  1
  C  3830  1  0.95044900  0.90031100  0.66246200  1
  C  3831  1  0.93377000  0.89377500  0.64804100  1
  C  3832  1  0.91181900  0.88938900  0.65470500  1
  C  3834  1  0.97334600  0.90036100  0.65558600  1
  C  3835  1  0.99101300  0.89388600  0.66875000  1
  C  3836  1  0.01270500  0.89043100  0.66128600  1
  C  3837  1  0.01760400  0.89276300  0.64019500  1
  C  3838  1  0.00005100  0.89878200  0.62680500  1
  C  3839  1  0.97814800  0.90231400  0.63423400  1
  C  3844  1  0.95934600  0.90584900  0.61968700  1
  C  3845  1  0.93939900  0.89081700  0.62589800  1
  C  3853  1  0.31775100  0.19454300  0.42645400  1
  C  3854  1  0.30916200  0.21095900  0.43982700  1
  C  3855  1  0.30571400  0.23327600  0.43335100  1
  C  3856  1  0.31153200  0.23964700  0.41295400  1
  C  3857  1  0.31774900  0.22253300  0.39882500  1
  C  3858  1  0.32128200  0.20048900  0.40575900  1
  C  3860  1  0.31160800  0.26242900  0.40564700  1
  C  3861  1  0.31789800  0.28046700  0.41845900  1
  C  3862  1  0.32093300  0.30209100  0.41062600  1
  C  3863  1  0.31834200  0.30661700  0.38948000  1
  C  3864  1  0.31259700  0.28864300  0.37644600  1
  C  3865  1  0.30951700  0.26681000  0.38423400  1
  C  3870  1  0.30615900  0.24768400  0.36999700  1
  C  3871  1  0.32112600  0.22783000  0.37666400  1
  C  3879  1  0.60382400  0.30598900  0.92629090  1
  C  3880  1  0.61249900  0.28959300  0.93963890  1
  C  3881  1  0.61598600  0.26728800  0.93315090  1
  C  3882  1  0.61013100  0.26091000  0.91276490  1
  C  3883  1  0.60384300  0.27800900  0.89865100  1
  C  3884  1  0.60026400  0.30003900  0.90560090  1
  C  3886  1  0.61005700  0.23813000  0.90546090  1
  C  3887  1  0.60377300  0.22009600  0.91828090  1
  C  3888  1  0.60076800  0.19846500  0.91046090  1
  C  3889  1  0.60334200  0.19393000  0.88931500  1
  C  3890  1  0.60904200  0.21190800  0.87626800  1
  C  3891  1  0.61210200  0.23374900  0.88404400  1
  C  3896  1  0.61542900  0.25287500  0.86980300  1
  C  3897  1  0.60045200  0.27271900  0.87649000  1
  C  3905  1  0.56642500  0.86154900  0.72634200  1
  C  3906  1  0.57871100  0.87791600  0.73706300  1
  C  3907  1  0.58047600  0.87792300  0.75866200  1
  C  3908  1  0.57039800  0.86038100  0.77018600  1
  C  3909  1  0.55679700  0.84457400  0.75956700  1
  C  3910  1  0.55495400  0.84528900  0.73790500  1
  C  3912  1  0.57159400  0.85910100  0.79228100  1
  C  3913  1  0.59076400  0.86606100  0.80324000  1
  C  3914  1  0.59172800  0.86484100  0.82467400  1
  C  3915  1  0.57386400  0.85576300  0.83607500  1
  C  3916  1  0.55546000  0.84685800  0.82526800  1
  C  3917  1  0.55422100  0.84842500  0.80357600  1
  C  3922  1  0.53535200  0.83808400  0.79211500  1
  C  3923  1  0.54366400  0.82789300  0.77155900  1
  C  3931  1  0.35604100  0.63863500  0.22622900  1
  C  3932  1  0.34366700  0.62236900  0.23700500  1
  C  3933  1  0.34193600  0.62242900  0.25860700  1
  C  3934  1  0.35212400  0.63994400  0.27008100  1
  C  3935  1  0.36582400  0.65562600  0.25941600  1
  C  3936  1  0.36765300  0.65482500  0.23775500  1
  C  3938  1  0.35097000  0.64127600  0.29217300  1
  C  3939  1  0.33177700  0.63444000  0.30316500  1
  C  3940  1  0.33086200  0.63566900  0.32460100  1
  C  3941  1  0.34880200  0.64466200  0.33595400  1
  C  3942  1  0.36725900  0.65342100  0.32512800  1
  C  3943  1  0.36843800  0.65184200  0.30343300  1
  C  3948  1  0.38736300  0.66203000  0.29193300  1
  C  3949  1  0.37909700  0.67223400  0.27136600  1
  C  3957  1  0.07570400  0.14345700  0.47550300  1
  C  3958  1  0.09260300  0.13244300  0.48670200  1
  C  3959  1  0.09206700  0.13078600  0.50831200  1
  C  3960  1  0.07348000  0.13961900  0.51932800  1
  C  3961  1  0.05704100  0.15197600  0.50821600  1
  C  3962  1  0.05831200  0.15379500  0.48657600  1
  C  3964  1  0.07153400  0.13836100  0.54138800  1
  C  3965  1  0.07957100  0.11980100  0.55263900  1
  C  3966  1  0.07755300  0.11872100  0.57402700  1
  C  3967  1  0.06658200  0.13579500  0.58505100  1
  C  3968  1  0.05673800  0.15347900  0.57391000  1
  C  3969  1  0.05912300  0.15487500  0.55229300  1
  C  3974  1  0.04784100  0.17293800  0.54047300  1
  C  3975  1  0.03901600  0.16387300  0.51966600  1
  C  3983  1  0.84570500  0.35777200  0.97532390  1
  C  3984  1  0.82876700  0.36870100  0.98653290  1
  C  3985  1  0.82942000  0.37049100  0.00812900  1
  C  3986  1  0.84817300  0.36193000  0.01909000  1
  C  3987  1  0.86465000  0.34963200  0.00796600  1
  C  3988  1  0.86328400  0.34768200  0.98633890  1
  C  3990  1  0.85027400  0.36339800  0.04112700  1
  C  3991  1  0.84217200  0.38199700  0.05228600  1
  C  3992  1  0.84430900  0.38327100  0.07365500  1
  C  3993  1  0.85551100  0.36639200  0.08473000  1
  C  3994  1  0.86541400  0.34868100  0.07366900  1
  C  3995  1  0.86291300  0.34709300  0.05207400  1
  C  4000  1  0.87426300  0.32902500  0.04031600  1
  C  4001  1  0.88285800  0.33798900  0.01938900  1
  C  4009  1  0.56569800  0.63816400  0.08575300  1
  C  4010  1  0.57878100  0.62230000  0.07517300  1
  C  4011  1  0.58067600  0.62228000  0.05357700  1
  C  4012  1  0.56988500  0.63931200  0.04193100  1
  C  4013  1  0.55550400  0.65454800  0.05240700  1
  C  4014  1  0.55358500  0.65386100  0.07406000  1
  C  4016  1  0.57119700  0.64059300  0.01984400  1
  C  4017  1  0.59078100  0.63451600  0.00905300  1
  C  4018  1  0.59188500  0.63575900  0.98762890  1
  C  4019  1  0.57370700  0.64398000  0.97607290  1
  C  4020  1  0.55479900  0.65204500  0.98671090  1
  C  4021  1  0.55344300  0.65045300  0.00839700  1
  C  4026  1  0.53399900  0.65990900  0.01970700  1
  C  4027  1  0.54165200  0.67054500  0.04028400  1
  C  4035  1  0.35689400  0.86161600  0.58579100  1
  C  4036  1  0.34392200  0.87761100  0.57525000  1
  C  4037  1  0.34208000  0.87776000  0.55365200  1
  C  4038  1  0.35281100  0.86073700  0.54194800  1
  C  4039  1  0.36710700  0.84538800  0.55238200  1
  C  4040  1  0.36899600  0.84596400  0.57404000  1
  C  4042  1  0.35153600  0.85958300  0.51985400  1
  C  4043  1  0.33200400  0.86583100  0.50906300  1
  C  4044  1  0.33092000  0.86469000  0.48763200  1
  C  4045  1  0.34905300  0.85637600  0.47607800  1
  C  4046  1  0.36792500  0.84820400  0.48669700  1
  C  4047  1  0.36926300  0.84970200  0.50839000  1
  C  4052  1  0.38865500  0.84012000  0.51968700  1
  C  4053  1  0.38093100  0.82941000  0.54020900  1
  C  4061  1  0.07536500  0.35731000  0.33676400  1
  C  4062  1  0.09191300  0.36906700  0.32578500  1
  C  4063  1  0.09150600  0.37088600  0.30418200  1
  C  4064  1  0.07338000  0.36145900  0.29295500  1
  C  4065  1  0.05735500  0.34836600  0.30383300  1
  C  4066  1  0.05849500  0.34642200  0.32546700  1
  C  4068  1  0.07154600  0.36289100  0.27089900  1
  C  4069  1  0.07887300  0.38190900  0.25991000  1
  C  4070  1  0.07696000  0.38318100  0.23852700  1
  C  4071  1  0.06680300  0.36582000  0.22724400  1
  C  4072  1  0.05761200  0.34761500  0.23812200  1
  C  4073  1  0.05990000  0.34604200  0.25974100  1
  C  4078  1  0.04932500  0.32738800  0.27131000  1
  C  4079  1  0.03996300  0.33583600  0.29214800  1
  C  4087  1  0.84604900  0.14417600  0.83679900  1
  C  4088  1  0.82948000  0.13250100  0.82578600  1
  C  4089  1  0.82997600  0.13066300  0.80418700  1
  C  4090  1  0.84821800  0.13996200  0.79302300  1
  C  4091  1  0.86426200  0.15298800  0.80394900  1
  C  4092  1  0.86305400  0.15494300  0.82558000  1
  C  4094  1  0.85017500  0.13846400  0.77097800  1
  C  4095  1  0.84282000  0.11945300  0.75999600  1
  C  4096  1  0.84484700  0.11811200  0.73862500  1
  C  4097  1  0.85520400  0.13536700  0.72736300  1
  C  4098  1  0.86440600  0.15356800  0.73823800  1
  C  4099  1  0.86199300  0.15521100  0.75984200  1
  C  4104  1  0.87259300  0.17384000  0.77142500  1
  C  4105  1  0.88178900  0.16539200  0.79232300  1
  C  4113  1  0.35476000  0.14028800  0.58907100  1
  C  4114  1  0.34386400  0.12286200  0.57848400  1
  C  4115  1  0.34209200  0.12251900  0.55689300  1
  C  4116  1  0.35076000  0.14070100  0.54524900  1
  C  4117  1  0.36320200  0.15754800  0.55571700  1
  C  4118  1  0.36504400  0.15721900  0.57738800  1
  C  4120  1  0.34923500  0.14179900  0.52317600  1
  C  4121  1  0.33044600  0.13351500  0.51243700  1
  C  4122  1  0.32906600  0.13473200  0.49102000  1
  C  4123  1  0.34608000  0.14506200  0.47942800  1
  C  4124  1  0.36400200  0.15516400  0.49004000  1
  C  4125  1  0.36565600  0.15367400  0.51170700  1
  C  4130  1  0.38388200  0.16533300  0.52297700  1
  C  4131  1  0.37508200  0.17502000  0.54357100  1
  C  4139  1  0.56827000  0.36066700  0.08909500  1
  C  4140  1  0.57906300  0.37803600  0.07833100  1
  C  4141  1  0.58066500  0.37824200  0.05672800  1
  C  4142  1  0.57188500  0.36000300  0.04523500  1
  C  4143  1  0.55951700  0.34322900  0.05587600  1
  C  4144  1  0.55785400  0.34369600  0.07755600  1
  C  4146  1  0.57317200  0.35880300  0.02315400  1
  C  4147  1  0.59184400  0.36704200  0.01221600  1
  C  4148  1  0.59297400  0.36576800  0.99078886  1
  C  4149  1  0.57582000  0.35540700  0.97940090  1
  C  4150  1  0.55799400  0.34537100  0.99019586  1
  C  4151  1  0.55660000  0.34691900  0.01187700  1
  C  4156  1  0.53848200  0.33532900  0.02335100  1
  C  4157  1  0.54749100  0.32571900  0.04390000  1
  C  4165  1  0.84531300  0.85683100  0.83640900  1
  C  4166  1  0.82900100  0.86846900  0.82501500  1
  C  4167  1  0.82982800  0.86995400  0.80340400  1
  C  4168  1  0.84812400  0.86024200  0.79260200  1
  C  4169  1  0.86391300  0.84727200  0.80390400  1
  C  4170  1  0.86238200  0.84571100  0.82554000  1
  C  4172  1  0.85030200  0.86120300  0.77056100  1
  C  4173  1  0.84327300  0.88004700  0.75915800  1
  C  4174  1  0.84537500  0.88078200  0.73777300  1
  C  4175  1  0.85537000  0.86299800  0.72689600  1
  C  4176  1  0.86435900  0.84499400  0.73820800  1
  C  4177  1  0.86194200  0.84399800  0.75984400  1
  C  4182  1  0.87236800  0.82558900  0.77187500  1
  C  4183  1  0.88146700  0.83447700  0.79265300  1
  C  4191  1  0.07729900  0.64438200  0.33664600  1
  C  4192  1  0.09374000  0.63296800  0.32522900  1
  C  4193  1  0.09287000  0.63148000  0.30362100  1
  C  4194  1  0.07440200  0.64092600  0.29286600  1
  C  4195  1  0.05847400  0.65369100  0.30420700  1
  C  4196  1  0.06002800  0.65525800  0.32584100  1
  C  4198  1  0.07213400  0.63989400  0.27083300  1
  C  4199  1  0.07936000  0.62111900  0.25943600  1
  C  4200  1  0.07714700  0.62029400  0.23806400  1
  C  4201  1  0.06678400  0.63787700  0.22720700  1
  C  4202  1  0.05763700  0.65580300  0.23851700  1
  C  4203  1  0.06018000  0.65689800  0.26013600  1
  C  4208  1  0.04957500  0.67519500  0.27217800  1
  C  4209  1  0.04069500  0.66622300  0.29300600  1
  C  4217  1  0.35613400  0.35957000  0.22625400  1
  C  4218  1  0.34420800  0.37652800  0.23656400  1
  C  4219  1  0.34219900  0.37703400  0.25813900  1
  C  4220  1  0.35170300  0.35947200  0.27005000  1
  C  4221  1  0.36513100  0.34316400  0.25986700  1
  C  4222  1  0.36716700  0.34332900  0.23821100  1
  C  4224  1  0.35000800  0.35853900  0.29212200  1
  C  4225  1  0.33068600  0.36595800  0.30260800  1
  C  4226  1  0.32914300  0.36491000  0.32402100  1
  C  4227  1  0.34655100  0.35559100  0.33586000  1
  C  4228  1  0.36509500  0.34629500  0.32552100  1
  C  4229  1  0.36690700  0.34764900  0.30385400  1
  C  4234  1  0.38587300  0.33687600  0.29285600  1
  C  4235  1  0.37783800  0.32650100  0.27228500  1
  C  4243  1  0.56646500  0.14088000  0.72603500  1
  C  4244  1  0.57830000  0.12390300  0.73642300  1
  C  4245  1  0.58016400  0.12340300  0.75800800  1
  C  4246  1  0.57061700  0.14098800  0.76986100  1
  C  4247  1  0.55726600  0.15729900  0.75960100  1
  C  4248  1  0.55535000  0.15711200  0.73793600  1
  C  4250  1  0.57217000  0.14191900  0.79193900  1
  C  4251  1  0.59141000  0.13446000  0.80252700  1
  C  4252  1  0.59282700  0.13550800  0.82394800  1
  C  4253  1  0.57536900  0.14488900  0.83568500  1
  C  4254  1  0.55688300  0.15418100  0.82525600  1
  C  4255  1  0.55520500  0.15282500  0.80358000  1
  C  4260  1  0.53631400  0.16360300  0.79247900  1
  C  4261  1  0.54448300  0.17396900  0.77194800  1
  C  4269  1  0.84545000  0.64439600  0.97836290  1
  C  4270  1  0.82931500  0.63208300  0.98933990  1
  C  4271  1  0.82979900  0.63027600  0.01094000  1
  C  4272  1  0.84756100  0.64038500  0.02215500  1
  C  4273  1  0.86308700  0.65406600  0.01129200  1
  C  4274  1  0.86192100  0.65589400  0.98965590  1
  C  4276  1  0.84942900  0.63905400  0.04419800  1
  C  4277  1  0.84295400  0.61972200  0.05515800  1
  C  4278  1  0.84481000  0.61858000  0.07654500  1
  C  4279  1  0.85398900  0.63646000  0.08786800  1
  C  4280  1  0.86244500  0.65502700  0.07700400  1
  C  4281  1  0.86028200  0.65641700  0.05536300  1
  C  4286  1  0.87016500  0.67544000  0.04378300  1
  C  4287  1  0.87993200  0.66730600  0.02299300  1
  C  4295  1  0.07741300  0.85628700  0.47866000  1
  C  4296  1  0.09359800  0.86831900  0.48982300  1
  C  4297  1  0.09293400  0.86995500  0.51143000  1
  C  4298  1  0.07492800  0.86000100  0.52243600  1
  C  4299  1  0.05933200  0.84659700  0.51136400  1
  C  4300  1  0.06066500  0.84493200  0.48972500  1
  C  4302  1  0.07283800  0.86121700  0.54446900  1
  C  4303  1  0.07943400  0.88040500  0.55558100  1
  C  4304  1  0.07735800  0.88145100  0.57695300  1
  C  4305  1  0.06777100  0.86365400  0.58809700  1
  C  4306  1  0.05921200  0.84524800  0.57707300  1
  C  4307  1  0.06161500  0.84394700  0.55544800  1
  C  4312  1  0.05161800  0.82512300  0.54367800  1
  C  4313  1  0.04218800  0.83350800  0.52284100  1
  C  4321  1  0.77002500  0.92239200  0.68851100  1
  C  4322  1  0.75830700  0.94268300  0.69036400  1
  C  4323  1  0.73551700  0.94341200  0.69619600  1
  C  4324  1  0.72386600  0.92327400  0.70117800  1
  C  4325  1  0.73678900  0.90321900  0.70199300  1
  C  4326  1  0.75931300  0.90289700  0.69559000  1
  C  4328  1  0.69963200  0.92099500  0.70037500  1
  C  4329  1  0.68428200  0.93894200  0.70256400  1
  C  4330  1  0.66232100  0.93758800  0.69498200  1
  C  4331  1  0.65450600  0.91763100  0.68611100  1
  C  4332  1  0.66835400  0.89861200  0.68676800  1
  C  4333  1  0.69047300  0.90001200  0.69414100  1
  C  4338  1  0.70442700  0.87944600  0.69345200  1
  C  4339  1  0.72548700  0.88179600  0.70693800  1
  C  4347  1  0.15210200  0.57867000  0.18799200  1
  C  4348  1  0.16367200  0.55828200  0.18974700  1
  C  4349  1  0.18647300  0.55735900  0.19552100  1
  C  4350  1  0.19828600  0.57739300  0.20053400  1
  C  4351  1  0.18550800  0.59754100  0.20143000  1
  C  4352  1  0.16294400  0.59805300  0.19514800  1
  C  4354  1  0.22254100  0.57948200  0.19975100  1
  C  4355  1  0.23775600  0.56142300  0.20196000  1
  C  4356  1  0.25978100  0.56265800  0.19450700  1
  C  4357  1  0.26779700  0.58258900  0.18573400  1
  C  4358  1  0.25405500  0.60168900  0.18635100  1
  C  4359  1  0.23187900  0.60041500  0.19360400  1
  C  4364  1  0.21806400  0.62107400  0.19289700  1
  C  4365  1  0.19699300  0.61886500  0.20639100  1
  C  4373  1  0.13728100  0.94209500  0.43228300  1
  C  4374  1  0.15799400  0.95316700  0.43075000  1
  C  4375  1  0.16066100  0.97583500  0.43649800  1
  C  4376  1  0.14232600  0.98784500  0.44528700  1
  C  4377  1  0.12237000  0.97554700  0.44938400  1
  C  4378  1  0.11996500  0.95322400  0.44278300  1
  C  4380  1  0.14081300  0.01212700  0.44557400  1
  C  4381  1  0.15945500  0.02676100  0.44542700  1
  C  4382  1  0.15748800  0.04905900  0.43883800  1
  C  4383  1  0.13648600  0.05787900  0.43334100  1
  C  4384  1  0.11738400  0.04461600  0.43669900  1
  C  4385  1  0.11932700  0.02221100  0.44317600  1
  C  4390  1  0.09847800  0.00892600  0.44548400  1
  C  4391  1  0.10266400  0.98742300  0.45798900  1
  C  4399  1  0.78545400  0.55914900  0.93207590  1
  C  4400  1  0.76459900  0.54834400  0.93067890  1
  C  4401  1  0.76163600  0.52576400  0.93657390  1
  C  4402  1  0.77986600  0.51352700  0.94527590  1
  C  4403  1  0.80001200  0.52557800  0.94923590  1
  C  4404  1  0.80267800  0.54784200  0.94254090  1
  C  4406  1  0.78113500  0.48921500  0.94551690  1
  C  4407  1  0.76234400  0.47476600  0.94525190  1
  C  4408  1  0.76410300  0.45245300  0.93864690  1
  C  4409  1  0.78502600  0.44341300  0.93321090  1
  C  4410  1  0.80424500  0.45650200  0.93658790  1
  C  4411  1  0.80252100  0.47891000  0.94310590  1
  C  4416  1  0.82352000  0.49194300  0.94546490  1
  C  4417  1  0.81956500  0.51352300  0.95790690  1
  C  4425  1  0.76908000  0.57451200  0.12538200  1
  C  4426  1  0.75681100  0.55448900  0.12420800  1
  C  4427  1  0.73407000  0.55404400  0.11838000  1
  C  4428  1  0.72276000  0.57433900  0.11288100  1
  C  4429  1  0.73625000  0.59397700  0.11134100  1
  C  4430  1  0.75880800  0.59394500  0.11762500  1
  C  4432  1  0.69863300  0.57766900  0.11389500  1
  C  4433  1  0.68242300  0.56057800  0.11164800  1
  C  4434  1  0.66058400  0.56291300  0.11932800  1
  C  4435  1  0.65374200  0.58319500  0.12826200  1
  C  4436  1  0.66838400  0.60156400  0.12749300  1
  C  4437  1  0.69036600  0.59909500  0.11999600  1
  C  4442  1  0.70506300  0.61911400  0.12005300  1
  C  4443  1  0.72553600  0.61563100  0.10603100  1
  C  4451  1  0.15320700  0.92401800  0.62528600  1
  C  4452  1  0.16545900  0.94398100  0.62337500  1
  C  4453  1  0.18832200  0.94402100  0.61773200  1
  C  4454  1  0.19945800  0.92355100  0.61285000  1
  C  4455  1  0.18602400  0.90386000  0.61205900  1
  C  4456  1  0.16345200  0.90420700  0.61830300  1
  C  4458  1  0.22361700  0.92061700  0.61370100  1
  C  4459  1  0.23942500  0.93810100  0.61129000  1
  C  4460  1  0.26135700  0.93622100  0.61885200  1
  C  4461  1  0.26863700  0.91615800  0.62792300  1
  C  4462  1  0.25430800  0.89752200  0.62749000  1
  C  4463  1  0.23222500  0.89945500  0.62012000  1
  C  4468  1  0.21772800  0.87929800  0.62096200  1
  C  4469  1  0.19681600  0.88209100  0.60734400  1
  C  4477  1  0.13831500  0.55824100  0.38128400  1
  C  4478  1  0.15884700  0.54678300  0.38254700  1
  C  4479  1  0.16107000  0.52409400  0.37669600  1
  C  4480  1  0.14240600  0.51241600  0.36814500  1
  C  4481  1  0.12264200  0.52511900  0.36423200  1
  C  4482  1  0.12069300  0.54745900  0.37092300  1
  C  4484  1  0.14040700  0.48816000  0.36791600  1
  C  4485  1  0.15875000  0.47312200  0.36808200  1
  C  4486  1  0.15635200  0.45088600  0.37472000  1
  C  4487  1  0.13518800  0.44253100  0.38025100  1
  C  4488  1  0.11634900  0.45618600  0.37691600  1
  C  4489  1  0.11873100  0.47853700  0.37040500  1
  C  4494  1  0.09813100  0.49224800  0.36817400  1
  C  4495  1  0.10266900  0.51368100  0.35569100  1
  C  4503  1  0.78412300  0.94276500  0.88132500  1
  C  4504  1  0.76354800  0.95414600  0.88262200  1
  C  4505  1  0.76123300  0.97684000  0.87682900  1
  C  4506  1  0.77984000  0.98861200  0.86829100  1
  C  4507  1  0.79969200  0.97602900  0.86441000  1
  C  4508  1  0.80171900  0.95367400  0.87103700  1
  C  4510  1  0.78174800  0.01288100  0.86811800  1
  C  4511  1  0.76332900  0.02782900  0.86828200  1
  C  4512  1  0.76561100  0.05008200  0.87490200  1
  C  4513  1  0.78672800  0.05854800  0.88043200  1
  C  4514  1  0.80563400  0.04496400  0.87717300  1
  C  4515  1  0.80337400  0.02260100  0.87066000  1
  C  4520  1  0.82404200  0.00899700  0.86842300  1
  C  4521  1  0.81962000  0.98757000  0.85590000  1
  C  4529  1  0.15392500  0.07981800  0.63173500  1
  C  4530  1  0.16569800  0.05946600  0.63279600  1
  C  4531  1  0.18818000  0.05752100  0.62631300  1
  C  4532  1  0.19917600  0.07604100  0.61686300  1
  C  4533  1  0.18653200  0.09607500  0.61419600  1
  C  4534  1  0.16443700  0.09779800  0.62163000  1
  C  4536  1  0.22327800  0.07747400  0.61472100  1
  C  4537  1  0.23758800  0.05872600  0.61259500  1
  C  4538  1  0.26025700  0.05993200  0.61813800  1
  C  4539  1  0.26959400  0.08034100  0.62467500  1
  C  4540  1  0.25647700  0.09986500  0.62305000  1
  C  4541  1  0.23368500  0.09866700  0.61765000  1
  C  4546  1  0.22031900  0.11964100  0.61739600  1
  C  4547  1  0.19787500  0.11632000  0.60604900  1
  C  4555  1  0.76845800  0.42283300  0.13159900  1
  C  4556  1  0.75680100  0.44323600  0.13283800  1
  C  4557  1  0.73437300  0.44542300  0.12624000  1
  C  4558  1  0.72326800  0.42704200  0.11664600  1
  C  4559  1  0.73592100  0.40706600  0.11361700  1
  C  4560  1  0.75798500  0.40512600  0.12107200  1
  C  4562  1  0.69912800  0.42556900  0.11465200  1
  C  4563  1  0.68467600  0.44427900  0.11308500  1
  C  4564  1  0.66203900  0.44276900  0.11869600  1
  C  4565  1  0.65282800  0.42213400  0.12479500  1
  C  4566  1  0.66607200  0.40276200  0.12263300  1
  C  4567  1  0.68882300  0.40425000  0.11714900  1
  C  4572  1  0.70224400  0.38332900  0.11635900  1
  C  4573  1  0.72461200  0.38702900  0.10501700  1
  C  4581  1  0.15486200  0.42247900  0.18235700  1
  C  4582  1  0.16732800  0.44242800  0.18163900  1
  C  4583  1  0.18997400  0.44333400  0.18784700  1
  C  4584  1  0.20039900  0.42418800  0.19679700  1
  C  4585  1  0.18709400  0.40458400  0.19920500  1
  C  4586  1  0.16487700  0.40387000  0.19196400  1
  C  4588  1  0.22444500  0.42188800  0.19880300  1
  C  4589  1  0.23935100  0.44007400  0.20139900  1
  C  4590  1  0.26196800  0.43825300  0.19581900  1
  C  4591  1  0.27062300  0.41771200  0.18882500  1
  C  4592  1  0.25689800  0.39860300  0.18998200  1
  C  4593  1  0.23415600  0.40043200  0.19541100  1
  C  4598  1  0.22008300  0.37994700  0.19520000  1
  C  4599  1  0.19783200  0.38372200  0.20676200  1
  C  4607  1  0.76754700  0.07830600  0.68254000  1
  C  4608  1  0.75520800  0.05828700  0.68176600  1
  C  4609  1  0.73261600  0.05718200  0.68808500  1
  C  4610  1  0.72210900  0.07620300  0.69717100  1
  C  4611  1  0.73527800  0.09589900  0.69959900  1
  C  4612  1  0.75745600  0.09679900  0.69227300  1
  C  4614  1  0.69804900  0.07837600  0.69920100  1
  C  4615  1  0.68324600  0.06008600  0.70167200  1
  C  4616  1  0.66062900  0.06180200  0.69607000  1
  C  4617  1  0.65186900  0.08232400  0.68915100  1
  C  4618  1  0.66549100  0.10150300  0.69037900  1
  C  4619  1  0.68822500  0.09979200  0.69587100  1
  C  4624  1  0.70216100  0.12037100  0.69580500  1
  C  4625  1  0.72444900  0.11664100  0.70731700  1
  C  4633  1  0.63713900  0.44148300  0.93733790  1
  C  4634  1  0.65792500  0.45249400  0.93671490  1
  C  4635  1  0.66047400  0.47510500  0.94250290  1
  C  4636  1  0.64171800  0.48750900  0.95021090  1
  C  4637  1  0.62144300  0.47528300  0.95326890  1
  C  4638  1  0.61930500  0.45285600  0.94680190  1
  C  4640  1  0.64009300  0.51185300  0.95045190  1
  C  4641  1  0.65849000  0.52668100  0.95189090  1
  C  4642  1  0.65691500  0.54915900  0.94568090  1
  C  4643  1  0.63633900  0.55813200  0.93913390  1
  C  4644  1  0.61716900  0.54458500  0.94087890  1
  C  4645  1  0.61879900  0.52197500  0.94689090  1
  C  4650  1  0.59789500  0.50859200  0.94775490  1
  C  4651  1  0.60121700  0.48724600  0.96068490  1
  C  4659  1  0.28456500  0.05880100  0.43742800  1
  C  4660  1  0.26393400  0.04746400  0.43673100  1
  C  4661  1  0.26185300  0.02465600  0.44226400  1
  C  4662  1  0.28071900  0.01269200  0.45010800  1
  C  4663  1  0.30081100  0.02513900  0.45321200  1
  C  4664  1  0.30258600  0.04763400  0.44685100  1
  C  4666  1  0.28234400  0.98837800  0.45045000  1
  C  4667  1  0.26379400  0.97365400  0.45143700  1
  C  4668  1  0.26550200  0.95117000  0.44528400  1
  C  4669  1  0.28621100  0.94219200  0.43908400  1
  C  4670  1  0.30538500  0.95568500  0.44118200  1
  C  4671  1  0.30369700  0.97829200  0.44719400  1
  C  4676  1  0.32454900  0.99177200  0.44808500  1
  C  4677  1  0.32110300  0.01334200  0.46069600  1
  C  4685  1  0.63795000  0.05835100  0.87611700  1
  C  4686  1  0.65851000  0.04684500  0.87650700  1
  C  4687  1  0.66033200  0.02401200  0.87096500  1
  C  4688  1  0.64122200  0.01219600  0.86346900  1
  C  4689  1  0.62122400  0.02485100  0.86050900  1
  C  4690  1  0.61970400  0.04734700  0.86692400  1
  C  4692  1  0.63937300  0.98789000  0.86320700  1
  C  4693  1  0.65777000  0.97294000  0.86220100  1
  C  4694  1  0.65585900  0.95048700  0.86839400  1
  C  4695  1  0.63508100  0.94175400  0.87464700  1
  C  4696  1  0.61604600  0.95546900  0.87262000  1
  C  4697  1  0.61793700  0.97804500  0.86657200  1
  C  4702  1  0.59720700  0.99175300  0.86579300  1
  C  4703  1  0.60075800  0.01328600  0.85316800  1
  C  4711  1  0.28389600  0.44222400  0.37592000  1
  C  4712  1  0.26340100  0.45384800  0.37627400  1
  C  4713  1  0.26169000  0.47667500  0.37070000  1
  C  4714  1  0.28086600  0.48840400  0.36324100  1
  C  4715  1  0.30083600  0.47567400  0.36038000  1
  C  4716  1  0.30222700  0.45317100  0.36680200  1
  C  4718  1  0.28284900  0.51270500  0.36299800  1
  C  4719  1  0.26452000  0.52774000  0.36197500  1
  C  4720  1  0.26651800  0.55018900  0.36815500  1
  C  4721  1  0.28732300  0.55883600  0.37442300  1
  C  4722  1  0.30629400  0.54501700  0.37248500  1
  C  4723  1  0.30432000  0.52245000  0.36643000  1
  C  4728  1  0.32499100  0.50865700  0.36567200  1
  C  4729  1  0.32136900  0.48713200  0.35305800  1
  N  17  1  0.60028200  0.85677500  0.09346600  1
  N  18  1  0.58407700  0.90113100  0.03158800  1
  N  39  1  0.32227200  0.64323800  0.59328800  1
  N  40  1  0.33863000  0.59879400  0.53155500  1
  N  61  1  0.07355700  0.10917600  0.84292400  1
  N  62  1  0.11457000  0.12829400  0.78014400  1
  N  83  1  0.84787400  0.39204500  0.34268900  1
  N  84  1  0.80670300  0.37291700  0.28003900  1
  N  105  1  0.59920800  0.64389900  0.51685500  1
  N  106  1  0.58305800  0.60199700  0.58009200  1
  N  127  1  0.32350800  0.85587100  0.01698600  1
  N  128  1  0.33955100  0.89863800  0.07981200  1
  N  149  1  0.07238800  0.39116800  0.76777800  1
  N  150  1  0.11236900  0.37201400  0.83112800  1
  N  171  1  0.84924800  0.11026600  0.26779700  1
  N  172  1  0.80929200  0.12922800  0.33120100  1
  N  193  1  0.32022600  0.14372900  0.01949400  1
  N  194  1  0.33502000  0.10010700  0.08101900  1
  N  215  1  0.60302400  0.35803000  0.51931600  1
  N  216  1  0.58783100  0.40067500  0.58113700  1
  N  237  1  0.84715100  0.89180800  0.26635900  1
  N  238  1  0.81193900  0.87250500  0.33143400  1
  N  259  1  0.07537900  0.60930900  0.76653900  1
  N  260  1  0.11071700  0.62839300  0.83158000  1
  N  281  1  0.32224400  0.35482300  0.59346000  1
  N  282  1  0.33676600  0.39753700  0.53126900  1
  N  303  1  0.60043600  0.14537400  0.09332200  1
  N  304  1  0.58604600  0.10249500  0.03127200  1
  N  325  1  0.84851700  0.60997600  0.34603600  1
  N  326  1  0.81435900  0.62941100  0.28050700  1
  N  347  1  0.07452500  0.89095400  0.84650800  1
  N  348  1  0.10847600  0.87166100  0.78089700  1
  N  369  1  0.10134400  0.36249800  0.59515600  1
  N  370  1  0.08248200  0.40054100  0.53072700  1
  N  391  1  0.82069500  0.13862400  0.09521700  1
  N  392  1  0.83961200  0.10088400  0.03069000  1
  N  413  1  0.57256600  0.60825300  0.34497400  1
  N  414  1  0.61335900  0.62381300  0.28225200  1
  N  435  1  0.35014000  0.89219000  0.84494700  1
  N  436  1  0.30955400  0.87658800  0.78216500  1
  N  457  1  0.10064600  0.14007400  0.01557100  1
  N  458  1  0.08155700  0.10393900  0.08086500  1
  N  479  1  0.82135700  0.36231500  0.51519500  1
  N  480  1  0.84044900  0.39752900  0.58074100  1
  N  501  1  0.57178900  0.89116600  0.26556100  1
  N  502  1  0.61122500  0.87572600  0.32907100  1
  N  523  1  0.35085700  0.60917800  0.76546200  1
  N  524  1  0.31155200  0.62459700  0.82897100  1
  N  545  1  0.81862400  0.63761000  0.51735300  1
  N  546  1  0.83484800  0.59857300  0.58066900  1
  N  567  1  0.10273400  0.86168100  0.01800400  1
  N  568  1  0.08682300  0.90238800  0.08067000  1
  N  589  1  0.34737300  0.39185400  0.76440600  1
  N  590  1  0.31250700  0.37613600  0.82956500  1
  N  611  1  0.57441000  0.10864300  0.26434300  1
  N  612  1  0.60906000  0.12451600  0.32953900  1
  N  633  1  0.82078400  0.85989700  0.09483300  1
  N  634  1  0.83647600  0.89954000  0.03147100  1
  N  655  1  0.10120700  0.64103900  0.59496000  1
  N  656  1  0.08519600  0.60178900  0.53147200  1
  N  677  1  0.34777500  0.10927900  0.84846600  1
  N  678  1  0.31434900  0.12534800  0.78280500  1
  N  699  1  0.57366700  0.39117100  0.34836700  1
  N  700  1  0.60685700  0.37523100  0.28258500  1
  N  728  1  0.56681200  0.99009200  0.03954000  1
  N  754  1  0.35546500  0.50979300  0.53998400  1
  N  780  1  0.20409500  0.14642100  0.78508000  1
  N  806  1  0.71733200  0.35447900  0.28498100  1
  N  832  1  0.56633300  0.51283500  0.57388600  1
  N  858  1  0.35562000  0.98789200  0.07231200  1
  N  884  1  0.20198200  0.35409800  0.82689800  1
  N  910  1  0.71964500  0.14694600  0.32684100  1
  N  936  1  0.72315400  0.85309200  0.32826300  1
  N  962  1  0.19975600  0.64725200  0.82800100  1
  N  988  1  0.72514300  0.64774100  0.28384200  1
  N  1014  1  0.19761800  0.85301700  0.78411000  1
  N  1040  1  0.06532500  0.48959500  0.53675800  1
  N  1066  1  0.85644700  0.01165700  0.03694100  1
  N  1092  1  0.06549700  0.01452500  0.07489800  1
  N  1118  1  0.85724700  0.48679500  0.57659400  1
  N  1144  1  0.45934700  0.91816700  0.01615700  1
  N  1170  1  0.46337100  0.58164200  0.51638300  1
  N  1196  1  0.12876800  0.25277000  0.76605100  1
  N  1222  1  0.79225500  0.24842200  0.26611200  1
  N  1248  1  0.46416700  0.08527100  0.09560700  1
  N  1274  1  0.45853400  0.41482600  0.59574400  1
  N  1300  1  0.79316300  0.74879900  0.34562000  1
  N  1326  1  0.12987200  0.75214800  0.84582200  1
  N  1352  1  0.95948200  0.41947900  0.51619500  1
  N  1378  1  0.96273000  0.08238900  0.01613700  1
  N  1404  1  0.62587000  0.75247400  0.26615700  1
  N  1430  1  0.29704600  0.74796000  0.76609000  1
  N  1456  1  0.96320200  0.58492500  0.59583600  1
  N  1482  1  0.95854700  0.91653100  0.09558500  1
  N  1508  1  0.29535000  0.24868800  0.84589500  1
  N  1534  1  0.62642300  0.25189400  0.34566500  1
  N  1560  1  0.59040500  0.89662200  0.16747600  1
  N  1586  1  0.33192700  0.60380700  0.66747700  1
  N  1612  1  0.11113800  0.12228900  0.91766200  1
  N  1638  1  0.81034400  0.37888500  0.41754200  1
  N  1664  1  0.59147900  0.60398500  0.44296100  1
  N  1690  1  0.33140800  0.89616900  0.94309700  1
  N  1716  1  0.11033000  0.38015400  0.69311800  1
  N  1742  1  0.81115900  0.12147700  0.19305200  1
  N  1768  1  0.33360200  0.10304700  0.94629600  1
  N  1794  1  0.58908000  0.39765400  0.44597200  1
  N  1820  1  0.81126400  0.87922400  0.19192100  1
  N  1846  1  0.11151700  0.62244900  0.69208500  1
  N  1872  1  0.33262000  0.39616900  0.66655600  1
  N  1898  1  0.58963500  0.10425100  0.16648600  1
  N  1924  1  0.81136600  0.62027300  0.42011100  1
  N  1950  1  0.11139200  0.87964600  0.92081600  1
  N  1976  1  0.72465600  0.96433900  0.09441300  1
  N  2002  1  0.19716500  0.53634500  0.59365400  1
  N  2028  1  0.18107400  0.98633400  0.83028200  1
  N  2054  1  0.74094000  0.51563300  0.33074500  1
  N  2080  1  0.72497000  0.53245000  0.51954000  1
  N  2106  1  0.19981300  0.96458800  0.01772100  1
  N  2132  1  0.18145600  0.51329900  0.78058300  1
  N  2158  1  0.74079600  0.98754000  0.28071000  1
  N  2184  1  0.19974600  0.03771000  0.03061500  1
  N  2210  1  0.72303900  0.46539700  0.53046200  1
  N  2236  1  0.20226900  0.46272500  0.58177000  1
  N  2262  1  0.72044700  0.03770600  0.08202900  1
  N  2288  1  0.68203200  0.48303000  0.33663600  1
  N  2314  1  0.24135700  0.01394000  0.83675900  1
  N  2340  1  0.68086100  0.01318200  0.27421300  1
  N  2366  1  0.24117400  0.48758500  0.77383000  1
  N  2385  1  0.60028200  0.85677500  0.69442200  1
  N  2386  1  0.58407700  0.90113100  0.63254400  1
  N  2407  1  0.32227200  0.64323800  0.19424400  1
  N  2408  1  0.33863000  0.59879400  0.13251100  1
  N  2429  1  0.07355700  0.10917600  0.44388000  1
  N  2430  1  0.11457000  0.12829400  0.38110000  1
  N  2451  1  0.84787400  0.39204500  0.94364490  1
  N  2452  1  0.80670300  0.37291700  0.88099500  1
  N  2473  1  0.59920800  0.64389900  0.11781100  1
  N  2474  1  0.58305800  0.60199700  0.18104800  1
  N  2495  1  0.32350800  0.85587100  0.61794200  1
  N  2496  1  0.33955100  0.89863800  0.68076800  1
  N  2517  1  0.07238800  0.39116800  0.36873400  1
  N  2518  1  0.11236900  0.37201400  0.43208400  1
  N  2539  1  0.84924800  0.11026600  0.86875300  1
  N  2540  1  0.80929200  0.12922800  0.93215690  1
  N  2561  1  0.32022600  0.14372900  0.62045000  1
  N  2562  1  0.33502000  0.10010700  0.68197500  1
  N  2583  1  0.60302400  0.35803000  0.12027200  1
  N  2584  1  0.58783100  0.40067500  0.18209300  1
  N  2605  1  0.84715100  0.89180800  0.86731500  1
  N  2606  1  0.81193900  0.87250500  0.93238990  1
  N  2627  1  0.07537900  0.60930900  0.36749500  1
  N  2628  1  0.11071700  0.62839300  0.43253600  1
  N  2649  1  0.32224400  0.35482300  0.19441600  1
  N  2650  1  0.33676600  0.39753700  0.13222500  1
  N  2671  1  0.60043600  0.14537400  0.69427800  1
  N  2672  1  0.58604600  0.10249500  0.63222800  1
  N  2693  1  0.84851700  0.60997600  0.94699190  1
  N  2694  1  0.81435900  0.62941100  0.88146300  1
  N  2715  1  0.07452500  0.89095400  0.44746400  1
  N  2716  1  0.10847600  0.87166100  0.38185300  1
  N  2737  1  0.10134400  0.36249800  0.19611200  1
  N  2738  1  0.08248200  0.40054100  0.13168300  1
  N  2759  1  0.82069500  0.13862400  0.69617300  1
  N  2760  1  0.83961200  0.10088400  0.63164600  1
  N  2781  1  0.57256600  0.60825300  0.94592990  1
  N  2782  1  0.61335900  0.62381300  0.88320800  1
  N  2803  1  0.35014000  0.89219000  0.44590300  1
  N  2804  1  0.30955400  0.87658800  0.38312100  1
  N  2825  1  0.10064600  0.14007400  0.61652700  1
  N  2826  1  0.08155700  0.10393900  0.68182100  1
  N  2847  1  0.82135700  0.36231500  0.11615100  1
  N  2848  1  0.84044900  0.39752900  0.18169700  1
  N  2869  1  0.57178900  0.89116600  0.86651700  1
  N  2870  1  0.61122500  0.87572600  0.93002690  1
  N  2891  1  0.35085700  0.60917800  0.36641800  1
  N  2892  1  0.31155200  0.62459700  0.42992700  1
  N  2913  1  0.81862400  0.63761000  0.11830900  1
  N  2914  1  0.83484800  0.59857300  0.18162500  1
  N  2935  1  0.10273400  0.86168100  0.61896000  1
  N  2936  1  0.08682300  0.90238800  0.68162600  1
  N  2957  1  0.34737300  0.39185400  0.36536200  1
  N  2958  1  0.31250700  0.37613600  0.43052100  1
  N  2979  1  0.57441000  0.10864300  0.86529900  1
  N  2980  1  0.60906000  0.12451600  0.93049490  1
  N  3001  1  0.82078400  0.85989700  0.69578900  1
  N  3002  1  0.83647600  0.89954000  0.63242700  1
  N  3023  1  0.10120700  0.64103900  0.19591600  1
  N  3024  1  0.08519600  0.60178900  0.13242800  1
  N  3045  1  0.34777500  0.10927900  0.44942200  1
  N  3046  1  0.31434900  0.12534800  0.38376100  1
  N  3067  1  0.57366700  0.39117100  0.94932290  1
  N  3068  1  0.60685700  0.37523100  0.88354100  1
  N  3096  1  0.56681200  0.99009200  0.64049600  1
  N  3122  1  0.35546500  0.50979300  0.14094000  1
  N  3148  1  0.20409500  0.14642100  0.38603600  1
  N  3174  1  0.71733200  0.35447900  0.88593700  1
  N  3200  1  0.56633300  0.51283500  0.17484200  1
  N  3226  1  0.35562000  0.98789200  0.67326800  1
  N  3252  1  0.20198200  0.35409800  0.42785400  1
  N  3278  1  0.71964500  0.14694600  0.92779690  1
  N  3304  1  0.72315400  0.85309200  0.92921890  1
  N  3330  1  0.19975600  0.64725200  0.42895700  1
  N  3356  1  0.72514300  0.64774100  0.88479800  1
  N  3382  1  0.19761800  0.85301700  0.38506600  1
  N  3408  1  0.06532500  0.48959500  0.13771400  1
  N  3434  1  0.85644700  0.01165700  0.63789700  1
  N  3460  1  0.06549700  0.01452500  0.67585400  1
  N  3486  1  0.85724700  0.48679500  0.17755000  1
  N  3512  1  0.45934700  0.91816700  0.61711300  1
  N  3538  1  0.46337100  0.58164200  0.11733900  1
  N  3564  1  0.12876800  0.25277000  0.36700700  1
  N  3590  1  0.79225500  0.24842200  0.86706800  1
  N  3616  1  0.46416700  0.08527100  0.69656300  1
  N  3642  1  0.45853400  0.41482600  0.19670000  1
  N  3668  1  0.79316300  0.74879900  0.94657590  1
  N  3694  1  0.12987200  0.75214800  0.44677800  1
  N  3720  1  0.95948200  0.41947900  0.11715100  1
  N  3746  1  0.96273000  0.08238900  0.61709300  1
  N  3772  1  0.62587000  0.75247400  0.86711300  1
  N  3798  1  0.29704600  0.74796000  0.36704600  1
  N  3824  1  0.96320200  0.58492500  0.19679200  1
  N  3850  1  0.95854700  0.91653100  0.69654100  1
  N  3876  1  0.29535000  0.24868800  0.44685100  1
  N  3902  1  0.62642300  0.25189400  0.94662090  1
  N  3928  1  0.59040500  0.89662200  0.76843200  1
  N  3954  1  0.33192700  0.60380700  0.26843300  1
  N  3980  1  0.11113800  0.12228900  0.51861800  1
  N  4006  1  0.81034400  0.37888500  0.01849800  1
  N  4032  1  0.59147900  0.60398500  0.04391700  1
  N  4058  1  0.33140800  0.89616900  0.54405300  1
  N  4084  1  0.11033000  0.38015400  0.29407400  1
  N  4110  1  0.81115900  0.12147700  0.79400800  1
  N  4136  1  0.33360200  0.10304700  0.54725200  1
  N  4162  1  0.58908000  0.39765400  0.04692800  1
  N  4188  1  0.81126400  0.87922400  0.79287700  1
  N  4214  1  0.11151700  0.62244900  0.29304100  1
  N  4240  1  0.33262000  0.39616900  0.26751200  1
  N  4266  1  0.58963500  0.10425100  0.76744200  1
  N  4292  1  0.81136600  0.62027300  0.02106700  1
  N  4318  1  0.11139200  0.87964600  0.52177200  1
  N  4344  1  0.72465600  0.96433900  0.69536900  1
  N  4370  1  0.19716500  0.53634500  0.19461000  1
  N  4396  1  0.18107400  0.98633400  0.43123800  1
  N  4422  1  0.74094000  0.51563300  0.93170090  1
  N  4448  1  0.72497000  0.53245000  0.12049600  1
  N  4474  1  0.19981300  0.96458800  0.61867700  1
  N  4500  1  0.18145600  0.51329900  0.38153900  1
  N  4526  1  0.74079600  0.98754000  0.88166600  1
  N  4552  1  0.19974600  0.03771000  0.63157100  1
  N  4578  1  0.72303900  0.46539700  0.13141800  1
  N  4604  1  0.20226900  0.46272500  0.18272600  1
  N  4630  1  0.72044700  0.03770600  0.68298500  1
  N  4656  1  0.68203200  0.48303000  0.93759190  1
  N  4682  1  0.24135700  0.01394000  0.43771500  1
  N  4708  1  0.68086100  0.01318200  0.87516900  1
  N  4734  1  0.24117400  0.48758500  0.37478600  1
  O  729  1  0.54804500  0.98177900  0.03546800  1
  O  730  1  0.56915400  0.99131500  0.05869700  1
  O  755  1  0.37432000  0.51805000  0.53617000  1
  O  756  1  0.35281100  0.50858100  0.55910700  1
  O  781  1  0.19573400  0.16531000  0.78155900  1
  O  782  1  0.20589400  0.14364700  0.80415200  1
  O  807  1  0.72587200  0.33567000  0.28145700  1
  O  808  1  0.71542200  0.35718600  0.30405200  1
  O  833  1  0.54751700  0.52101000  0.57805400  1
  O  834  1  0.56855800  0.51159900  0.55471800  1
  O  859  1  0.37456100  0.97989700  0.07629200  1
  O  860  1  0.35308800  0.98893100  0.05316700  1
  O  885  1  0.19376800  0.33520100  0.83062100  1
  O  886  1  0.20362500  0.35669300  0.80779100  1
  O  911  1  0.72788400  0.16583400  0.33054600  1
  O  912  1  0.71797200  0.14434700  0.30773900  1
  O  937  1  0.73150000  0.83445600  0.33280300  1
  O  938  1  0.72234800  0.85506400  0.30904900  1
  O  963  1  0.19159700  0.66599400  0.83246300  1
  O  964  1  0.20045700  0.64513700  0.80879800  1
  O  989  1  0.73297500  0.66660300  0.27935700  1
  O  990  1  0.72471700  0.64554000  0.30304700  1
  O  1015  1  0.18957600  0.83421900  0.77971400  1
  O  1016  1  0.19823900  0.85523500  0.80330800  1
  O  1041  1  0.04642700  0.48140200  0.53300400  1
  O  1042  1  0.06818500  0.49051900  0.55586900  1
  O  1067  1  0.87542800  0.01967200  0.03321800  1
  O  1068  1  0.85348700  0.01088600  0.05604600  1
  O  1093  1  0.04638700  0.02225900  0.07861800  1
  O  1094  1  0.06857000  0.01403500  0.05579900  1
  O  1119  1  0.87620800  0.47880800  0.58050400  1
  O  1120  1  0.85455900  0.48768500  0.55745900  1
  O  1145  1  0.46215600  0.90744000  0.99975700  1
  O  1146  1  0.45274900  0.93749600  0.01169100  1
  O  1171  1  0.46054500  0.59227500  0.49993200  1
  O  1172  1  0.47003500  0.56231000  0.51200900  1
  O  1197  1  0.11805400  0.25037700  0.74959100  1
  O  1198  1  0.14823200  0.25906100  0.76173400  1
  O  1223  1  0.80293700  0.25082600  0.24963500  1
  O  1224  1  0.77279400  0.24210100  0.26182400  1
  O  1249  1  0.46184100  0.09603400  0.11205400  1
  O  1250  1  0.47097000  0.06597700  0.09994400  1
  O  1275  1  0.46085500  0.40407800  0.61219800  1
  O  1276  1  0.45173100  0.43412600  0.60005800  1
  O  1301  1  0.80390600  0.75132100  0.36204700  1
  O  1302  1  0.77367800  0.74264100  0.35001000  1
  O  1327  1  0.11913600  0.74964200  0.86225700  1
  O  1328  1  0.14937600  0.75825900  0.85020200  1
  O  1353  1  0.96221000  0.40888700  0.49971100  1
  O  1354  1  0.95322100  0.43896600  0.51189600  1
  O  1379  1  0.95999000  0.09308300  0.99970900  1
  O  1380  1  0.96903600  0.06294500  0.01173400  1
  O  1405  1  0.61522000  0.75033600  0.24963300  1
  O  1406  1  0.64543400  0.75856500  0.26198100  1
  O  1431  1  0.30769700  0.75009100  0.74956300  1
  O  1432  1  0.27747700  0.74188700  0.76191700  1
  O  1457  1  0.96086700  0.59566400  0.61229200  1
  O  1458  1  0.96965000  0.56550300  0.60015000  1
  O  1483  1  0.96092100  0.90583000  0.11205800  1
  O  1484  1  0.95200200  0.93592600  0.09987700  1
  O  1509  1  0.30608200  0.25096300  0.86236100  1
  O  1510  1  0.27574000  0.24285800  0.85020100  1
  O  1535  1  0.61574600  0.24959300  0.36215600  1
  O  1536  1  0.64603200  0.25776600  0.34992200  1
  O  1561  1  0.61035600  0.89944000  0.16200500  1
  O  1562  1  0.57970300  0.91433700  0.16417600  1
  O  1587  1  0.31195400  0.60107500  0.66203700  1
  O  1588  1  0.34253600  0.58603000  0.66420800  1
  O  1613  1  0.11559100  0.10257100  0.91238100  1
  O  1614  1  0.12810700  0.13423200  0.91475300  1
  O  1639  1  0.80566900  0.39852200  0.41217000  1
  O  1640  1  0.79346900  0.36676400  0.41479600  1
  O  1665  1  0.61149900  0.60203400  0.44854300  1
  O  1666  1  0.58154300  0.58584700  0.44626500  1
  O  1691  1  0.31138500  0.89820800  0.94864800  1
  O  1692  1  0.34144000  0.91423200  0.94650500  1
  O  1717  1  0.11400100  0.39996700  0.69857500  1
  O  1718  1  0.12770900  0.36879900  0.69606700  1
  O  1743  1  0.80735600  0.10169100  0.19851700  1
  O  1744  1  0.79382500  0.13292600  0.19591700  1
  O  1769  1  0.31394500  0.09874200  0.95184000  1
  O  1770  1  0.34564100  0.08623300  0.94969300  1
  O  1795  1  0.60879000  0.40197700  0.45135100  1
  O  1796  1  0.57708400  0.41449500  0.44936700  1
  O  1821  1  0.80764800  0.89915800  0.19705000  1
  O  1822  1  0.79374400  0.86807600  0.19474200  1
  O  1847  1  0.11541000  0.60256600  0.69721300  1
  O  1848  1  0.12889700  0.63382600  0.69486000  1
  O  1873  1  0.31282400  0.39942300  0.66081000  1
  O  1874  1  0.34381000  0.41352300  0.66308300  1
  O  1899  1  0.60946100  0.10094700  0.16085100  1
  O  1900  1  0.57842700  0.08692100  0.16296100  1
  O  1925  1  0.80847800  0.60032700  0.41465600  1
  O  1926  1  0.79354900  0.63092800  0.41717300  1
  O  1951  1  0.11458900  0.89959200  0.91551400  1
  O  1952  1  0.12909700  0.86878400  0.91795100  1
  O  1977  1  0.73272100  0.97766200  0.10733300  1
  O  1978  1  0.72490500  0.97299100  0.07681700  1
  O  2003  1  0.18899700  0.52303600  0.60653200  1
  O  2004  1  0.19680500  0.52775300  0.57603400  1
  O  2029  1  0.19752100  0.97753400  0.83916500  1
  O  2030  1  0.18458400  0.98666000  0.81125100  1
  O  2055  1  0.72486300  0.52495900  0.33974800  1
  O  2056  1  0.73712000  0.51519500  0.31176400  1
  O  2081  1  0.71966500  0.52358600  0.50277100  1
  O  2082  1  0.71068300  0.53015400  0.53349500  1
  O  2107  1  0.19243600  0.97813100  0.00464200  1
  O  2108  1  0.19959200  0.97330400  0.03529000  1
  O  2133  1  0.19779300  0.52201300  0.77147700  1
  O  2134  1  0.18534400  0.51281000  0.79955000  1
  O  2159  1  0.72450500  0.97878400  0.27156800  1
  O  2160  1  0.73687900  0.98796200  0.29967300  1
  O  2185  1  0.19107100  0.02092100  0.02233300  1
  O  2186  1  0.20088000  0.03461100  0.04968000  1
  O  2211  1  0.73211100  0.48211800  0.52238600  1
  O  2212  1  0.72166900  0.46840800  0.54952500  1
  O  2237  1  0.19470200  0.47965600  0.59070700  1
  O  2238  1  0.20302400  0.46633800  0.56276500  1
  O  2263  1  0.72826300  0.02081800  0.09084800  1
  O  2264  1  0.71958000  0.03416400  0.06301600  1
  O  2289  1  0.69423400  0.48671500  0.35192700  1
  O  2290  1  0.68294100  0.49781000  0.32298800  1
  O  2315  1  0.22525400  0.02234800  0.84645100  1
  O  2316  1  0.23690500  0.01388300  0.81789200  1
  O  2341  1  0.69678400  0.02152400  0.26423500  1
  O  2342  1  0.68569600  0.01312400  0.29300200  1
  O  2367  1  0.22528200  0.47927800  0.76378700  1
  O  2368  1  0.23623300  0.48768700  0.79259500  1
  O  3097  1  0.54804500  0.98177900  0.63642400  1
  O  3098  1  0.56915400  0.99131500  0.65965300  1
  O  3123  1  0.37432000  0.51805000  0.13712600  1
  O  3124  1  0.35281100  0.50858100  0.16006300  1
  O  3149  1  0.19573400  0.16531000  0.38251500  1
  O  3150  1  0.20589400  0.14364700  0.40510800  1
  O  3175  1  0.72587200  0.33567000  0.88241300  1
  O  3176  1  0.71542200  0.35718600  0.90500790  1
  O  3201  1  0.54751700  0.52101000  0.17901000  1
  O  3202  1  0.56855800  0.51159900  0.15567400  1
  O  3227  1  0.37456100  0.97989700  0.67724800  1
  O  3228  1  0.35308800  0.98893100  0.65412300  1
  O  3253  1  0.19376800  0.33520100  0.43157700  1
  O  3254  1  0.20362500  0.35669300  0.40874700  1
  O  3279  1  0.72788400  0.16583400  0.93150190  1
  O  3280  1  0.71797200  0.14434700  0.90869490  1
  O  3305  1  0.73150000  0.83445600  0.93375890  1
  O  3306  1  0.72234800  0.85506400  0.91000490  1
  O  3331  1  0.19159700  0.66599400  0.43341900  1
  O  3332  1  0.20045700  0.64513700  0.40975400  1
  O  3357  1  0.73297500  0.66660300  0.88031300  1
  O  3358  1  0.72471700  0.64554000  0.90400290  1
  O  3383  1  0.18957600  0.83421900  0.38067000  1
  O  3384  1  0.19823900  0.85523500  0.40426400  1
  O  3409  1  0.04642700  0.48140200  0.13396000  1
  O  3410  1  0.06818500  0.49051900  0.15682500  1
  O  3435  1  0.87542800  0.01967200  0.63417400  1
  O  3436  1  0.85348700  0.01088600  0.65700200  1
  O  3461  1  0.04638700  0.02225900  0.67957400  1
  O  3462  1  0.06857000  0.01403500  0.65675500  1
  O  3487  1  0.87620800  0.47880800  0.18146000  1
  O  3488  1  0.85455900  0.48768500  0.15841500  1
  O  3513  1  0.46215600  0.90744000  0.60071300  1
  O  3514  1  0.45274900  0.93749600  0.61264700  1
  O  3539  1  0.46054500  0.59227500  0.10088800  1
  O  3540  1  0.47003500  0.56231000  0.11296500  1
  O  3565  1  0.11805400  0.25037700  0.35054700  1
  O  3566  1  0.14823200  0.25906100  0.36269000  1
  O  3591  1  0.80293700  0.25082600  0.85059100  1
  O  3592  1  0.77279400  0.24210100  0.86278000  1
  O  3617  1  0.46184100  0.09603400  0.71301000  1
  O  3618  1  0.47097000  0.06597700  0.70090000  1
  O  3643  1  0.46085500  0.40407800  0.21315400  1
  O  3644  1  0.45173100  0.43412600  0.20101400  1
  O  3669  1  0.80390600  0.75132100  0.96300290  1
  O  3670  1  0.77367800  0.74264100  0.95096590  1
  O  3695  1  0.11913600  0.74964200  0.46321300  1
  O  3696  1  0.14937600  0.75825900  0.45115800  1
  O  3721  1  0.96221000  0.40888700  0.10066700  1
  O  3722  1  0.95322100  0.43896600  0.11285200  1
  O  3747  1  0.95999000  0.09308300  0.60066500  1
  O  3748  1  0.96903600  0.06294500  0.61269000  1
  O  3773  1  0.61522000  0.75033600  0.85058900  1
  O  3774  1  0.64543400  0.75856500  0.86293700  1
  O  3799  1  0.30769700  0.75009100  0.35051900  1
  O  3800  1  0.27747700  0.74188700  0.36287300  1
  O  3825  1  0.96086700  0.59566400  0.21324800  1
  O  3826  1  0.96965000  0.56550300  0.20110600  1
  O  3851  1  0.96092100  0.90583000  0.71301400  1
  O  3852  1  0.95200200  0.93592600  0.70083300  1
  O  3877  1  0.30608200  0.25096300  0.46331700  1
  O  3878  1  0.27574000  0.24285800  0.45115700  1
  O  3903  1  0.61574600  0.24959300  0.96311190  1
  O  3904  1  0.64603200  0.25776600  0.95087790  1
  O  3929  1  0.61035600  0.89944000  0.76296100  1
  O  3930  1  0.57970300  0.91433700  0.76513200  1
  O  3955  1  0.31195400  0.60107500  0.26299300  1
  O  3956  1  0.34253600  0.58603000  0.26516400  1
  O  3981  1  0.11559100  0.10257100  0.51333700  1
  O  3982  1  0.12810700  0.13423200  0.51570900  1
  O  4007  1  0.80566900  0.39852200  0.01312600  1
  O  4008  1  0.79346900  0.36676400  0.01575200  1
  O  4033  1  0.61149900  0.60203400  0.04949900  1
  O  4034  1  0.58154300  0.58584700  0.04722100  1
  O  4059  1  0.31138500  0.89820800  0.54960400  1
  O  4060  1  0.34144000  0.91423200  0.54746100  1
  O  4085  1  0.11400100  0.39996700  0.29953100  1
  O  4086  1  0.12770900  0.36879900  0.29702300  1
  O  4111  1  0.80735600  0.10169100  0.79947300  1
  O  4112  1  0.79382500  0.13292600  0.79687300  1
  O  4137  1  0.31394500  0.09874200  0.55279600  1
  O  4138  1  0.34564100  0.08623300  0.55064900  1
  O  4163  1  0.60879000  0.40197700  0.05230700  1
  O  4164  1  0.57708400  0.41449500  0.05032300  1
  O  4189  1  0.80764800  0.89915800  0.79800600  1
  O  4190  1  0.79374400  0.86807600  0.79569800  1
  O  4215  1  0.11541000  0.60256600  0.29816900  1
  O  4216  1  0.12889700  0.63382600  0.29581600  1
  O  4241  1  0.31282400  0.39942300  0.26176600  1
  O  4242  1  0.34381000  0.41352300  0.26403900  1
  O  4267  1  0.60946100  0.10094700  0.76180700  1
  O  4268  1  0.57842700  0.08692100  0.76391700  1
  O  4293  1  0.80847800  0.60032700  0.01561200  1
  O  4294  1  0.79354900  0.63092800  0.01812900  1
  O  4319  1  0.11458900  0.89959200  0.51647000  1
  O  4320  1  0.12909700  0.86878400  0.51890700  1
  O  4345  1  0.73272100  0.97766200  0.70828900  1
  O  4346  1  0.72490500  0.97299100  0.67777300  1
  O  4371  1  0.18899700  0.52303600  0.20748800  1
  O  4372  1  0.19680500  0.52775300  0.17699000  1
  O  4397  1  0.19752100  0.97753400  0.44012100  1
  O  4398  1  0.18458400  0.98666000  0.41220700  1
  O  4423  1  0.72486300  0.52495900  0.94070390  1
  O  4424  1  0.73712000  0.51519500  0.91271990  1
  O  4449  1  0.71966500  0.52358600  0.10372700  1
  O  4450  1  0.71068300  0.53015400  0.13445100  1
  O  4475  1  0.19243600  0.97813100  0.60559800  1
  O  4476  1  0.19959200  0.97330400  0.63624600  1
  O  4501  1  0.19779300  0.52201300  0.37243300  1
  O  4502  1  0.18534400  0.51281000  0.40050600  1
  O  4527  1  0.72450500  0.97878400  0.87252400  1
  O  4528  1  0.73687900  0.98796200  0.90062890  1
  O  4553  1  0.19107100  0.02092100  0.62328900  1
  O  4554  1  0.20088000  0.03461100  0.65063600  1
  O  4579  1  0.73211100  0.48211800  0.12334200  1
  O  4580  1  0.72166900  0.46840800  0.15048100  1
  O  4605  1  0.19470200  0.47965600  0.19166300  1
  O  4606  1  0.20302400  0.46633800  0.16372100  1
  O  4631  1  0.72826300  0.02081800  0.69180400  1
  O  4632  1  0.71958000  0.03416400  0.66397200  1
  O  4657  1  0.69423400  0.48671500  0.95288290  1
  O  4658  1  0.68294100  0.49781000  0.92394390  1
  O  4683  1  0.22525400  0.02234800  0.44740700  1
  O  4684  1  0.23690500  0.01388300  0.41884800  1
  O  4709  1  0.69678400  0.02152400  0.86519100  1
  O  4710  1  0.68569600  0.01312400  0.89395800  1
  O  4735  1  0.22528200  0.47927800  0.36474300  1
  O  4736  1  0.23623300  0.48768700  0.39355100  1
