# generated using pymatgen
data_H39(C33N7)2
_symmetry_space_group_name_H-M   'P 1'
_cell_length_a   55.94800000
_cell_length_b   63.21590000
_cell_length_c   67.07740000
_cell_angle_alpha   89.99990000
_cell_angle_beta   89.96740000
_cell_angle_gamma   90.00310000
_symmetry_Int_Tables_number   1
_chemical_formula_structural   H39(C33N7)2
_chemical_formula_sum   'H312 C528 N112'
_cell_volume   237239.52242099
_cell_formula_units_Z   8
loop_
 _symmetry_equiv_pos_site_id
 _symmetry_equiv_pos_as_xyz
  1  'x, y, z'
loop_
 _atom_site_type_symbol
 _atom_site_label
 _atom_site_symmetry_multiplicity
 _atom_site_fract_x
 _atom_site_fract_y
 _atom_site_fract_z
 _atom_site_occupancy
  H  19  1  0.84196800  0.84830300  0.85325700  1
  H  20  1  0.86319400  0.86890500  0.87682700  1
  H  21  1  0.87710600  0.87976300  0.80622700  1
  H  22  1  0.92479700  0.92349700  0.93793600  1
  H  23  1  0.87360100  0.87810400  0.91993300  1
  H  24  1  0.86493100  0.87043200  0.95379600  1
  H  25  1  0.91598400  0.91568900  0.97180600  1
  H  26  1  0.95552800  0.95069400  0.90050700  1
  H  27  1  0.96463500  0.95863000  0.82892200  1
  H  28  1  0.93691900  0.93409600  0.84131600  1
  H  29  1  0.98394200  0.97582600  0.88754900  1
  H  36  1  0.89877400  0.90066600  0.82990900  1
  H  58  1  0.84212100  0.63060100  0.13254400  1
  H  59  1  0.86333900  0.61002700  0.10894800  1
  H  60  1  0.87730300  0.59913900  0.17955000  1
  H  61  1  0.92692300  0.55373200  0.05032600  1
  H  62  1  0.87452700  0.60014200  0.06310700  1
  H  63  1  0.86859600  0.60539200  0.02787600  1
  H  64  1  0.92092500  0.55904000  0.01590500  1
  H  65  1  0.95481300  0.52904000  0.08472300  1
  H  66  1  0.96630100  0.51898600  0.15587600  1
  H  67  1  0.93783200  0.54417800  0.14467000  1
  H  68  1  0.98346900  0.50369700  0.09633400  1
  H  75  1  0.89895500  0.57825800  0.15586200  1
  H  97  1  0.15715000  0.34842500  0.13224200  1
  H  98  1  0.13583000  0.36899200  0.10870100  1
  H  99  1  0.12193100  0.37975000  0.17931400  1
  H  100  1  0.07411700  0.42351300  0.04765800  1
  H  101  1  0.12531100  0.37812700  0.06567600  1
  H  102  1  0.13399800  0.37045700  0.03182100  1
  H  103  1  0.08295100  0.41570400  0.01378800  1
  H  104  1  0.04343000  0.45067100  0.08508400  1
  H  105  1  0.03426600  0.45866700  0.15665700  1
  H  106  1  0.06199700  0.43411600  0.14429700  1
  H  107  1  0.01500900  0.47581500  0.09800400  1
  H  114  1  0.10019300  0.40061800  0.15566900  1
  H  136  1  0.15681200  0.13062400  0.85307100  1
  H  137  1  0.13560800  0.11003000  0.87666400  1
  H  138  1  0.12162400  0.09917300  0.80605800  1
  H  139  1  0.07199800  0.05372600  0.93526200  1
  H  140  1  0.12440200  0.10014800  0.92251300  1
  H  141  1  0.13031400  0.10538200  0.95774800  1
  H  142  1  0.07798000  0.05902300  0.96968700  1
  H  143  1  0.04416300  0.02908100  0.90089800  1
  H  144  1  0.03256500  0.01892900  0.82976400  1
  H  145  1  0.06107100  0.04415600  0.84092100  1
  H  146  1  0.01550600  0.00373400  0.88934800  1
  H  153  1  0.09998600  0.07827400  0.82974200  1
  H  175  1  0.15945600  0.12729900  0.13411300  1
  H  176  1  0.13603700  0.10945600  0.10979300  1
  H  177  1  0.12295200  0.09534800  0.18006600  1
  H  178  1  0.07380300  0.05547800  0.04753300  1
  H  179  1  0.12495000  0.10076500  0.06580600  1
  H  180  1  0.13385900  0.10844700  0.03202600  1
  H  181  1  0.08289300  0.06331800  0.01365300  1
  H  182  1  0.04299000  0.02821200  0.08501100  1
  H  183  1  0.03394400  0.02001500  0.15658500  1
  H  184  1  0.06157000  0.04465100  0.14424500  1
  H  185  1  0.01467500  0.00296900  0.09791100  1
  H  192  1  0.09927500  0.07707600  0.15571600  1
  H  214  1  0.16004900  0.35136900  0.85116200  1
  H  215  1  0.13672700  0.36909500  0.87563000  1
  H  216  1  0.12327400  0.38340600  0.80540500  1
  H  217  1  0.07216600  0.42511300  0.93498300  1
  H  218  1  0.12468000  0.37855100  0.92298300  1
  H  219  1  0.13030300  0.37377200  0.95832700  1
  H  220  1  0.07786900  0.42026900  0.96947100  1
  H  221  1  0.04467000  0.44940400  0.90118100  1
  H  222  1  0.03286700  0.46002900  0.83010800  1
  H  223  1  0.06135700  0.43463000  0.84108900  1
  H  224  1  0.01610300  0.47487400  0.88982900  1
  H  231  1  0.09970500  0.40157200  0.82986600  1
  H  253  1  0.83947300  0.62728700  0.85150100  1
  H  254  1  0.86289400  0.60943800  0.87581600  1
  H  255  1  0.87596700  0.59534700  0.80554000  1
  H  256  1  0.92513900  0.55546700  0.93807700  1
  H  257  1  0.87399500  0.60074500  0.91978800  1
  H  258  1  0.86507700  0.60843200  0.95356200  1
  H  259  1  0.91603600  0.56331500  0.97195800  1
  H  260  1  0.95593600  0.52821600  0.90059900  1
  H  261  1  0.96500400  0.52000000  0.82903000  1
  H  262  1  0.93737400  0.54463800  0.84135400  1
  H  263  1  0.98425600  0.50297100  0.88771300  1
  H  270  1  0.89964700  0.57707100  0.82988200  1
  H  292  1  0.83888700  0.85134400  0.13444100  1
  H  293  1  0.86220500  0.86907900  0.10997600  1
  H  294  1  0.87565200  0.88338500  0.18020200  1
  H  295  1  0.92677500  0.92511700  0.05063200  1
  H  296  1  0.87426500  0.87854100  0.06261600  1
  H  297  1  0.86865000  0.87376900  0.02727000  1
  H  298  1  0.92107800  0.92027900  0.01614200  1
  H  299  1  0.95424800  0.94938400  0.08442200  1
  H  300  1  0.96609400  0.96004800  0.15548600  1
  H  301  1  0.93759000  0.93463400  0.14452600  1
  H  302  1  0.98281600  0.97485800  0.09574900  1
  H  309  1  0.89921800  0.90156100  0.15574500  1
  H  331  1  0.33762300  0.35417300  0.35315700  1
  H  332  1  0.36103700  0.37240500  0.37658600  1
  H  333  1  0.37738300  0.38071700  0.30598800  1
  H  334  1  0.42476400  0.42363800  0.43820400  1
  H  335  1  0.37365800  0.37835600  0.41977400  1
  H  336  1  0.36469400  0.37059000  0.45357800  1
  H  337  1  0.41566100  0.41574800  0.47198300  1
  H  338  1  0.45586500  0.45115100  0.40062500  1
  H  339  1  0.46424200  0.45870700  0.32886400  1
  H  340  1  0.43680600  0.43427200  0.34152500  1
  H  341  1  0.48406600  0.47626300  0.38734400  1
  H  348  1  0.40082800  0.40019000  0.32976500  1
  H  370  1  0.33796200  0.12469000  0.63242300  1
  H  371  1  0.36149500  0.10640700  0.60914600  1
  H  372  1  0.37746100  0.09834500  0.67982000  1
  H  373  1  0.42648700  0.05388100  0.54939600  1
  H  374  1  0.37453000  0.09989700  0.56445600  1
  H  375  1  0.36736100  0.10610200  0.52958800  1
  H  376  1  0.41926300  0.06012800  0.51523000  1
  H  377  1  0.45536800  0.02831900  0.58466600  1
  H  378  1  0.46599400  0.01880800  0.65604200  1
  H  379  1  0.43784400  0.04384900  0.64450300  1
  H  380  1  0.48383700  0.00299100  0.59668600  1
  H  387  1  0.40098000  0.07874200  0.65619100  1
  H  409  1  0.66052400  0.85402000  0.63232700  1
  H  410  1  0.63707600  0.87226200  0.60899500  1
  H  411  1  0.62094100  0.88051800  0.67961800  1
  H  412  1  0.57348300  0.92361800  0.54742900  1
  H  413  1  0.62459300  0.87833200  0.56582500  1
  H  414  1  0.63353300  0.87057600  0.53201100  1
  H  415  1  0.58256100  0.91574100  0.51364300  1
  H  416  1  0.54242500  0.95109500  0.58495500  1
  H  417  1  0.53394100  0.95871400  0.65669900  1
  H  418  1  0.56141300  0.93427200  0.64408700  1
  H  419  1  0.51419400  0.97621000  0.59818300  1
  H  426  1  0.59750700  0.90009100  0.65590700  1
  H  448  1  0.66003800  0.62486900  0.35336500  1
  H  449  1  0.63649500  0.60656200  0.37650700  1
  H  450  1  0.62078700  0.59855400  0.30580400  1
  H  451  1  0.57177200  0.55391900  0.43627400  1
  H  452  1  0.62368800  0.59991000  0.42104000  1
  H  453  1  0.63093800  0.60620500  0.45587200  1
  H  454  1  0.57907900  0.56025800  0.47042500  1
  H  455  1  0.54288600  0.52835100  0.40095700  1
  H  456  1  0.53215100  0.51878000  0.32958900  1
  H  457  1  0.56034400  0.54383900  0.34108900  1
  H  458  1  0.51440500  0.50303400  0.38898200  1
  H  465  1  0.59734600  0.57876700  0.32935100  1
  H  487  1  0.65479000  0.63040100  0.63412800  1
  H  488  1  0.63436400  0.60998900  0.60990000  1
  H  489  1  0.61881200  0.59819700  0.68023200  1
  H  490  1  0.57310400  0.55494100  0.54723700  1
  H  491  1  0.62407100  0.60014300  0.56604600  1
  H  492  1  0.63308400  0.60816500  0.53257200  1
  H  493  1  0.58245500  0.56327200  0.51322400  1
  H  494  1  0.54268600  0.52802200  0.58502200  1
  H  495  1  0.53331100  0.51992100  0.65659700  1
  H  496  1  0.56108200  0.54444800  0.64435500  1
  H  497  1  0.51421300  0.50288500  0.59784100  1
  H  504  1  0.59787700  0.57747500  0.65588300  1
  H  526  1  0.65533200  0.84806300  0.35116500  1
  H  527  1  0.63510600  0.86838700  0.37552800  1
  H  528  1  0.61923800  0.88051200  0.30526900  1
  H  529  1  0.57184900  0.92519500  0.43501800  1
  H  530  1  0.62440300  0.87868100  0.42298400  1
  H  531  1  0.62989400  0.87376200  0.45832900  1
  H  532  1  0.57741500  0.92020600  0.46950400  1
  H  533  1  0.54444500  0.94948100  0.40127600  1
  H  534  1  0.53236600  0.95998400  0.33022800  1
  H  535  1  0.56097600  0.93472600  0.34112700  1
  H  536  1  0.51569200  0.97485600  0.38998100  1
  H  543  1  0.59843400  0.90114700  0.32975200  1
  H  565  1  0.34371400  0.13035900  0.35146300  1
  H  566  1  0.36399400  0.10987700  0.37572200  1
  H  567  1  0.37970800  0.09808400  0.30540900  1
  H  568  1  0.42513600  0.05489500  0.43845200  1
  H  569  1  0.37419600  0.10007400  0.41955800  1
  H  570  1  0.36513900  0.10813800  0.45303200  1
  H  571  1  0.41575400  0.06325600  0.47242900  1
  H  572  1  0.45572700  0.02782700  0.40051700  1
  H  573  1  0.46490700  0.01991200  0.32889300  1
  H  574  1  0.43716000  0.04441100  0.34126200  1
  H  575  1  0.48415700  0.00273800  0.38756900  1
  H  582  1  0.40049900  0.07729200  0.32978900  1
  H  604  1  0.34318000  0.34808200  0.63446100  1
  H  605  1  0.36326400  0.36847100  0.61006000  1
  H  606  1  0.37929500  0.38061800  0.68029500  1
  H  607  1  0.42641900  0.42526100  0.55049400  1
  H  608  1  0.37388300  0.37874900  0.56263800  1
  H  609  1  0.36834400  0.37377700  0.52730700  1
  H  610  1  0.42080500  0.42021900  0.51602200  1
  H  611  1  0.45404300  0.44973400  0.58436200  1
  H  612  1  0.46570900  0.45986200  0.65552600  1
  H  613  1  0.43719200  0.43468600  0.64438800  1
  H  614  1  0.48274300  0.47506000  0.59591400  1
  H  621  1  0.39995900  0.40131600  0.65577600  1
  H  673  1  0.86052200  0.66964300  0.77780900  1
  H  674  1  0.83536500  0.69421900  0.76093700  1
  H  675  1  0.80026600  0.64383600  0.80694800  1
  H  676  1  0.77533800  0.66943100  0.79095500  1
  H  677  1  0.77312900  0.65898600  0.75229800  1
  H  678  1  0.73892600  0.65777600  0.72836200  1
  H  679  1  0.75436300  0.71982800  0.73928600  1
  H  680  1  0.75319800  0.75701800  0.73906600  1
  H  681  1  0.82124500  0.72086100  0.79115100  1
  H  682  1  0.82147300  0.76066900  0.78955500  1
  H  683  1  0.81409700  0.80809900  0.74507900  1
  H  684  1  0.83518600  0.83729100  0.75904100  1
  H  685  1  0.79083300  0.79011100  0.80240000  1
  H  686  1  0.81330700  0.81839300  0.81662600  1
  H  687  1  0.76792400  0.81909000  0.75057500  1
  H  688  1  0.73601700  0.81783500  0.72450500  1
  H  689  1  0.68780300  0.71616600  0.68721600  1
  H  690  1  0.68553700  0.75596900  0.68781100  1
  H  691  1  0.68936200  0.80691300  0.72753600  1
  H  692  1  0.66640500  0.83221000  0.70892100  1
  H  693  1  0.71916600  0.78361400  0.67409700  1
  H  694  1  0.69540500  0.80774400  0.65553400  1
  H  695  1  0.73944000  0.66827700  0.68945800  1
  H  696  1  0.71943100  0.63949300  0.67400500  1
  H  697  1  0.65403100  0.65993700  0.69898900  1
  H  698  1  0.67465700  0.68790600  0.71573600  1
  H  703  1  0.65731900  0.82668900  0.65627200  1
  H  704  1  0.84537100  0.85928600  0.78807400  1
  H  705  1  0.86456400  0.64734000  0.80810500  1
  H  706  1  0.68359400  0.62217600  0.66470300  1
  H  755  1  0.86077000  0.80917300  0.20786600  1
  H  756  1  0.83566200  0.78450500  0.22471800  1
  H  757  1  0.80041500  0.83483100  0.17874900  1
  H  758  1  0.77557400  0.80914800  0.19469300  1
  H  759  1  0.77349900  0.81975300  0.23333000  1
  H  760  1  0.73927400  0.82098500  0.25726600  1
  H  761  1  0.75471500  0.75891400  0.24637300  1
  H  762  1  0.75344600  0.72175400  0.24647400  1
  H  763  1  0.82159100  0.75788300  0.19443700  1
  H  764  1  0.82182300  0.71807300  0.19602300  1
  H  765  1  0.81440300  0.67075900  0.24058300  1
  H  766  1  0.83550200  0.64154400  0.22666200  1
  H  767  1  0.79114500  0.68863500  0.18323800  1
  H  768  1  0.81362700  0.66033700  0.16904500  1
  H  769  1  0.76824700  0.65966800  0.23505600  1
  H  770  1  0.73624600  0.66094300  0.26107100  1
  H  771  1  0.68812300  0.76261100  0.29844700  1
  H  772  1  0.68573900  0.72281100  0.29774300  1
  H  773  1  0.68952100  0.67180000  0.25806800  1
  H  774  1  0.66677300  0.64644800  0.27684100  1
  H  775  1  0.71956100  0.69526100  0.31133300  1
  H  776  1  0.69606100  0.67109200  0.33003400  1
  H  777  1  0.73980100  0.81042800  0.29617300  1
  H  778  1  0.71980800  0.83927400  0.31155600  1
  H  779  1  0.65442000  0.81885000  0.28654600  1
  H  780  1  0.67503600  0.79083300  0.26986300  1
  H  785  1  0.65866900  0.65182100  0.32986400  1
  H  786  1  0.84570400  0.61953900  0.19767100  1
  H  787  1  0.86470200  0.83160900  0.17763700  1
  H  788  1  0.68398200  0.85662900  0.32075000  1
  H  837  1  0.13840200  0.16964500  0.20777600  1
  H  838  1  0.16353800  0.19425200  0.22463400  1
  H  839  1  0.19867800  0.14386300  0.17865200  1
  H  840  1  0.22358600  0.16948800  0.19462800  1
  H  841  1  0.22577800  0.15904300  0.23328800  1
  H  842  1  0.25999000  0.15784500  0.25720800  1
  H  843  1  0.24455400  0.21989400  0.24627600  1
  H  844  1  0.24566900  0.25706500  0.24658600  1
  H  845  1  0.17764700  0.22092000  0.19444800  1
  H  846  1  0.17742800  0.26072700  0.19606400  1
  H  847  1  0.18484500  0.30813800  0.24052100  1
  H  848  1  0.16368400  0.33727200  0.22654200  1
  H  849  1  0.20811000  0.29012600  0.18320600  1
  H  850  1  0.18555700  0.31834100  0.16896000  1
  H  851  1  0.23101800  0.31913700  0.23501200  1
  H  852  1  0.26285100  0.31788900  0.26114300  1
  H  853  1  0.31108600  0.21621100  0.29838600  1
  H  854  1  0.31330200  0.25602400  0.29787600  1
  H  855  1  0.30946400  0.30684000  0.25806300  1
  H  856  1  0.33255900  0.33211200  0.27656900  1
  H  857  1  0.27978900  0.28370100  0.31162400  1
  H  858  1  0.30374500  0.30780200  0.33009000  1
  H  859  1  0.25935000  0.16845000  0.29610900  1
  H  860  1  0.27924300  0.13960200  0.31155600  1
  H  861  1  0.34473800  0.15987600  0.28659800  1
  H  862  1  0.32422300  0.18790700  0.26984800  1
  H  867  1  0.34229000  0.32656000  0.32891200  1
  H  868  1  0.15292300  0.35894000  0.19755200  1
  H  869  1  0.13438200  0.14736400  0.17746000  1
  H  870  1  0.31500500  0.12212900  0.32079200  1
  H  919  1  0.13815400  0.30919200  0.77775100  1
  H  920  1  0.16324700  0.28451000  0.76091500  1
  H  921  1  0.19850600  0.33484200  0.80687100  1
  H  922  1  0.22334000  0.30914400  0.79094200  1
  H  923  1  0.22543500  0.31974100  0.75229000  1
  H  924  1  0.25967400  0.32095000  0.72837000  1
  H  925  1  0.24421600  0.25888700  0.73928300  1
  H  926  1  0.24541700  0.22174200  0.73906600  1
  H  927  1  0.17732000  0.25787800  0.79118400  1
  H  928  1  0.17709500  0.21806500  0.78959100  1
  H  929  1  0.18451600  0.17076900  0.74503000  1
  H  930  1  0.16341600  0.14155800  0.75895800  1
  H  931  1  0.20779100  0.18865500  0.80237000  1
  H  932  1  0.18530100  0.16036300  0.81657100  1
  H  933  1  0.23067500  0.15966800  0.75058100  1
  H  934  1  0.26258200  0.16091700  0.72448500  1
  H  935  1  0.31076900  0.26259000  0.68715400  1
  H  936  1  0.31306800  0.22278300  0.68773600  1
  H  937  1  0.30923700  0.17190600  0.72753300  1
  H  938  1  0.33223200  0.14662200  0.70893100  1
  H  939  1  0.27943500  0.19513800  0.67408500  1
  H  940  1  0.30326200  0.17102600  0.65552200  1
  H  941  1  0.25899300  0.31027700  0.68944600  1
  H  942  1  0.27886800  0.33920400  0.67408900  1
  H  943  1  0.34434100  0.31896900  0.69909900  1
  H  944  1  0.32383500  0.29087000  0.71575700  1
  H  949  1  0.34148500  0.15214500  0.65636500  1
  H  950  1  0.15326400  0.11953700  0.78795500  1
  H  951  1  0.13423200  0.33163000  0.80798200  1
  H  952  1  0.31460700  0.35676800  0.66502000  1
  C  1  1  0.90016800  0.90167100  0.92524200  1
  C  2  1  0.88329300  0.88707900  0.85593900  1
  C  3  1  0.94316900  0.93970400  0.87232400  1
  C  4  1  0.88667200  0.88986200  0.83512100  1
  C  5  1  0.87385000  0.87763700  0.82109100  1
  C  6  1  0.85721600  0.86220000  0.82748700  1
  C  7  1  0.85373600  0.85946000  0.84811700  1
  C  8  1  0.86637700  0.87170700  0.86204100  1
  C  9  1  0.88282300  0.88628000  0.93060300  1
  C  10  1  0.87758700  0.88164600  0.95064400  1
  C  11  1  0.88948800  0.89221600  0.96620200  1
  C  12  1  0.90689300  0.90762300  0.96098200  1
  C  13  1  0.91212900  0.91225500  0.94092000  1
  C  14  1  0.95729100  0.95220800  0.88539100  1
  C  15  1  0.97399900  0.96699400  0.87786600  1
  C  16  1  0.97684200  0.96949200  0.85703800  1
  C  17  1  0.96295400  0.95715800  0.84408700  1
  C  18  1  0.94648100  0.94258000  0.85155600  1
  C  30  1  0.92601600  0.92462900  0.87909800  1
  C  32  1  0.90517600  0.90619700  0.90480000  1
  C  34  1  0.89643700  0.89880300  0.87049600  1
  C  40  1  0.90136500  0.57636900  0.06046600  1
  C  41  1  0.88342500  0.59187100  0.12984700  1
  C  42  1  0.94330500  0.53927300  0.11347900  1
  C  43  1  0.88684600  0.58905200  0.15065500  1
  C  44  1  0.87404100  0.60125500  0.16469000  1
  C  45  1  0.85741500  0.61666900  0.15827300  1
  C  46  1  0.85389100  0.61944000  0.13766200  1
  C  47  1  0.86652200  0.60721900  0.12372900  1
  C  48  1  0.88445300  0.59135700  0.05332900  1
  C  49  1  0.88086200  0.59453300  0.03267100  1
  C  50  1  0.89423700  0.58267400  0.01874500  1
  C  51  1  0.91098600  0.56785400  0.02570800  1
  C  52  1  0.91450400  0.56474800  0.04614800  1
  C  53  1  0.95697400  0.52717000  0.09976300  1
  C  54  1  0.97382600  0.51225900  0.10646200  1
  C  55  1  0.97723400  0.50926100  0.12703100  1
  C  56  1  0.96392500  0.52107400  0.14086300  1
  C  57  1  0.94716800  0.53590200  0.13412500  1
  C  69  1  0.92611000  0.55439300  0.10709900  1
  C  71  1  0.90543500  0.57268300  0.08116400  1
  C  73  1  0.89653900  0.58020000  0.11529600  1
  C  79  1  0.09874200  0.40169100  0.06035800  1
  C  80  1  0.11569000  0.38709100  0.12962000  1
  C  81  1  0.05576500  0.43970300  0.11328500  1
  C  82  1  0.11232100  0.38984800  0.15044000  1
  C  83  1  0.12518600  0.37763800  0.16444800  1
  C  84  1  0.14185700  0.36224600  0.15803100  1
  C  85  1  0.14535500  0.35954900  0.13739800  1
  C  86  1  0.13265000  0.37176800  0.12349200  1
  C  87  1  0.11609200  0.38630200  0.05500400  1
  C  88  1  0.12134000  0.38167000  0.03496700  1
  C  89  1  0.10944500  0.39223700  0.01940500  1
  C  90  1  0.09203600  0.40764200  0.02461600  1
  C  91  1  0.08678600  0.41227300  0.04467800  1
  C  92  1  0.04165500  0.45219800  0.10019800  1
  C  93  1  0.02494300  0.46698900  0.10769500  1
  C  94  1  0.02209200  0.46949600  0.12851500  1
  C  95  1  0.03596400  0.45717900  0.14149300  1
  C  96  1  0.05244200  0.44259300  0.13404700  1
  C  108  1  0.07291300  0.42462900  0.10651600  1
  C  110  1  0.09373400  0.40621200  0.08079800  1
  C  112  1  0.10250100  0.39881100  0.11509300  1
  C  118  1  0.09756200  0.07637100  0.92513700  1
  C  119  1  0.11552000  0.09188000  0.85576000  1
  C  120  1  0.05563600  0.03928300  0.87212000  1
  C  121  1  0.11209500  0.08906800  0.83495100  1
  C  122  1  0.12489100  0.10128300  0.82092000  1
  C  123  1  0.14151000  0.11670000  0.82734200  1
  C  124  1  0.14504200  0.11946200  0.84795100  1
  C  125  1  0.13242300  0.10722700  0.86188100  1
  C  126  1  0.11447100  0.09135700  0.93228600  1
  C  127  1  0.11805100  0.09452500  0.95294600  1
  C  128  1  0.10466900  0.08265900  0.96686200  1
  C  129  1  0.08792300  0.06784100  0.95989000  1
  C  130  1  0.08441600  0.06474200  0.93944800  1
  C  131  1  0.04198800  0.02719800  0.88586100  1
  C  132  1  0.02513100  0.01228200  0.87919200  1
  C  133  1  0.02169000  0.00925400  0.85863400  1
  C  134  1  0.03497400  0.02104600  0.84476600  1
  C  135  1  0.05174500  0.03588700  0.85147700  1
  C  147  1  0.07283400  0.05440200  0.87849300  1
  C  149  1  0.09350500  0.07269100  0.90443700  1
  C  151  1  0.10240800  0.08020400  0.87030600  1
  C  157  1  0.09835200  0.07727400  0.06038800  1
  C  158  1  0.11511400  0.09130900  0.13011200  1
  C  159  1  0.05529600  0.03915800  0.11321900  1
  C  160  1  0.11185200  0.08762200  0.15083500  1
  C  161  1  0.12579200  0.09824900  0.16524700  1
  C  162  1  0.14342100  0.11292700  0.15929900  1
  C  163  1  0.14685600  0.11664800  0.13879200  1
  C  164  1  0.13287700  0.10613200  0.12448500  1
  C  165  1  0.11578600  0.09259700  0.05509700  1
  C  166  1  0.12116600  0.09723700  0.03508500  1
  C  167  1  0.10935500  0.08675000  0.01943100  1
  C  168  1  0.09191200  0.07133500  0.02455100  1
  C  169  1  0.08652500  0.06668900  0.04461300  1
  C  170  1  0.04125800  0.02662600  0.10012300  1
  C  171  1  0.02460500  0.01177700  0.10762600  1
  C  172  1  0.02173100  0.00921300  0.12846300  1
  C  173  1  0.03562500  0.02152400  0.14142400  1
  C  174  1  0.05204300  0.03616800  0.13398300  1
  C  186  1  0.07226900  0.05438900  0.10646000  1
  C  188  1  0.09319900  0.07291900  0.08086600  1
  C  190  1  0.10162700  0.08033800  0.11524900  1
  C  196  1  0.09781100  0.40232200  0.92521000  1
  C  197  1  0.11573800  0.38726000  0.85538300  1
  C  198  1  0.05599000  0.43933000  0.87232000  1
  C  199  1  0.11233500  0.39105200  0.83469000  1
  C  200  1  0.12620900  0.38051100  0.82021100  1
  C  201  1  0.14387300  0.36588100  0.82611300  1
  C  202  1  0.14744100  0.36205000  0.84657600  1
  C  203  1  0.13352100  0.37247500  0.86095700  1
  C  204  1  0.11469300  0.38746900  0.93260900  1
  C  205  1  0.11809700  0.38457700  0.95332100  1
  C  206  1  0.10458100  0.39660100  0.96701100  1
  C  207  1  0.08790300  0.41134900  0.95982200  1
  C  208  1  0.08457900  0.41416700  0.93933100  1
  C  209  1  0.04248600  0.45139400  0.88615700  1
  C  210  1  0.02568300  0.46638300  0.87959400  1
  C  211  1  0.02215300  0.46952900  0.85906600  1
  C  212  1  0.03535600  0.45781600  0.84508500  1
  C  213  1  0.05209900  0.44288200  0.85169500  1
  C  225  1  0.07300700  0.42405000  0.87862500  1
  C  227  1  0.09378700  0.40566900  0.90445200  1
  C  229  1  0.10234400  0.39812200  0.87028400  1
  C  235  1  0.90059200  0.57725600  0.92521500  1
  C  236  1  0.88381400  0.59129800  0.85549200  1
  C  237  1  0.94364100  0.53915300  0.87238400  1
  C  238  1  0.88707100  0.58761600  0.83476800  1
  C  239  1  0.87313200  0.59824800  0.82036000  1
  C  240  1  0.85550600  0.61292600  0.82631000  1
  C  241  1  0.85207100  0.61663700  0.84682000  1
  C  242  1  0.86605000  0.60611600  0.86112300  1
  C  243  1  0.88315700  0.59257900  0.93050000  1
  C  244  1  0.87777100  0.59722200  0.95050800  1
  C  245  1  0.88957500  0.58674200  0.96616800  1
  C  246  1  0.90702100  0.57132600  0.96105600  1
  C  247  1  0.91241600  0.56667700  0.94099500  1
  C  248  1  0.95767300  0.52662600  0.88548700  1
  C  249  1  0.97432900  0.51177600  0.87799400  1
  C  250  1  0.97720500  0.50920900  0.85716000  1
  C  251  1  0.96331900  0.52151400  0.84418900  1
  C  252  1  0.94689900  0.53616000  0.85162100  1
  C  264  1  0.92666900  0.55438200  0.87913700  1
  C  266  1  0.90574100  0.57290300  0.90473500  1
  C  268  1  0.89730600  0.58032500  0.87035100  1
  C  274  1  0.90113200  0.90231800  0.06039700  1
  C  275  1  0.88319200  0.88724700  0.13022500  1
  C  276  1  0.94294300  0.93932200  0.11329100  1
  C  277  1  0.88659300  0.89103700  0.15091900  1
  C  278  1  0.87272400  0.88048800  0.16539700  1
  C  279  1  0.85506400  0.86585100  0.15949300  1
  C  280  1  0.85149100  0.86203000  0.13902900  1
  C  281  1  0.86541100  0.87245800  0.12464900  1
  C  282  1  0.88425300  0.88746300  0.05299300  1
  C  283  1  0.88085400  0.88457500  0.03228100  1
  C  284  1  0.89437100  0.89660300  0.01859500  1
  C  285  1  0.91104200  0.91135700  0.02578800  1
  C  286  1  0.91436500  0.91416900  0.04628000  1
  C  287  1  0.95643800  0.95138000  0.09944500  1
  C  288  1  0.97324400  0.96637200  0.10599400  1
  C  289  1  0.97678600  0.96953400  0.12651800  1
  C  290  1  0.96359300  0.95782400  0.14051200  1
  C  291  1  0.94684500  0.94288500  0.13391400  1
  C  303  1  0.92592500  0.92404000  0.10699000  1
  C  305  1  0.90514800  0.90565900  0.08115800  1
  C  307  1  0.89658700  0.89811100  0.11532500  1
  C  313  1  0.40023400  0.40185700  0.42531100  1
  C  314  1  0.38376400  0.38804300  0.35575200  1
  C  315  1  0.44336700  0.44003300  0.37252200  1
  C  316  1  0.38771000  0.39032800  0.33492800  1
  C  317  1  0.37390300  0.37894600  0.32087000  1
  C  318  1  0.35579000  0.36487100  0.32720900  1
  C  319  1  0.35120000  0.36348000  0.34790800  1
  C  320  1  0.36511200  0.37442300  0.36183700  1
  C  321  1  0.38279100  0.38649300  0.43052300  1
  C  322  1  0.37738300  0.38180600  0.45052400  1
  C  323  1  0.38919600  0.39230100  0.46617500  1
  C  324  1  0.40663900  0.40772500  0.46109200  1
  C  325  1  0.41204700  0.41241100  0.44108000  1
  C  326  1  0.45748200  0.45262300  0.38549300  1
  C  327  1  0.47405100  0.46737800  0.37778300  1
  C  328  1  0.47662700  0.46967100  0.35692600  1
  C  329  1  0.46270700  0.45733200  0.34405600  1
  C  330  1  0.44639900  0.44280500  0.35170600  1
  C  342  1  0.42646600  0.42490800  0.37940300  1
  C  344  1  0.40553000  0.40639000  0.40492800  1
  C  346  1  0.39717400  0.39908900  0.37053400  1
  C  352  1  0.40130100  0.07622500  0.56062200  1
  C  353  1  0.38408200  0.09082700  0.63011300  1
  C  354  1  0.44368000  0.03871500  0.61332600  1
  C  355  1  0.38792300  0.08861400  0.65095100  1
  C  356  1  0.37407400  0.10007900  0.66492200  1
  C  357  1  0.35600400  0.11413500  0.65848400  1
  C  358  1  0.35153200  0.11544600  0.63776300  1
  C  359  1  0.36550700  0.10445200  0.62391200  1
  C  360  1  0.38411900  0.09136300  0.55425300  1
  C  361  1  0.37979000  0.09510700  0.53378100  1
  C  362  1  0.39269200  0.08365400  0.51922900  1
  C  363  1  0.40965000  0.06865700  0.52547200  1
  C  364  1  0.41391700  0.06497300  0.54574100  1
  C  365  1  0.45737000  0.02651100  0.59972900  1
  C  366  1  0.47409200  0.01163000  0.60666300  1
  C  367  1  0.47718600  0.00888400  0.62729700  1
  C  368  1  0.46380200  0.02075000  0.64098300  1
  C  369  1  0.44722100  0.03550500  0.63403300  1
  C  381  1  0.42674300  0.05386700  0.60684300  1
  C  383  1  0.40598400  0.07223100  0.58116000  1
  C  385  1  0.39750700  0.07968600  0.61542900  1
  C  391  1  0.59802000  0.90183600  0.56030700  1
  C  392  1  0.61444000  0.88793000  0.62987200  1
  C  393  1  0.55489200  0.94001000  0.61308000  1
  C  394  1  0.61056200  0.89018600  0.65071000  1
  C  395  1  0.62436200  0.87873000  0.66472900  1
  C  396  1  0.64244500  0.86462500  0.65836500  1
  C  397  1  0.64694400  0.86327100  0.63764300  1
  C  398  1  0.63302000  0.87425800  0.62375100  1
  C  399  1  0.61545200  0.88647100  0.55508100  1
  C  400  1  0.62084800  0.88179100  0.53507400  1
  C  401  1  0.60902600  0.89229200  0.51942800  1
  C  402  1  0.59159100  0.90771200  0.52452600  1
  C  403  1  0.58619800  0.91239000  0.54454400  1
  C  404  1  0.54078800  0.95257800  0.60008300  1
  C  405  1  0.52420100  0.96733500  0.60776000  1
  C  406  1  0.52160100  0.96964400  0.62860600  1
  C  407  1  0.53550300  0.95732200  0.64150800  1
  C  408  1  0.55182900  0.94279400  0.63389100  1
  C  420  1  0.57180600  0.92488600  0.60622600  1
  C  422  1  0.59273800  0.90636900  0.58069600  1
  C  424  1  0.60106700  0.89904200  0.61510000  1
  C  430  1  0.59693300  0.57623900  0.42496400  1
  C  431  1  0.61406100  0.59090700  0.35548300  1
  C  432  1  0.55454400  0.53871800  0.37227500  1
  C  433  1  0.61029900  0.58872100  0.33463200  1
  C  434  1  0.62410100  0.60031300  0.32071100  1
  C  435  1  0.64209800  0.61444800  0.32718000  1
  C  436  1  0.64646300  0.61570500  0.34793000  1
  C  437  1  0.63250500  0.60463400  0.36173200  1
  C  438  1  0.61412200  0.59139700  0.43127400  1
  C  439  1  0.61849900  0.59519600  0.45172800  1
  C  440  1  0.60563600  0.58377700  0.46633000  1
  C  441  1  0.58866300  0.56876300  0.46014500  1
  C  442  1  0.58434800  0.56502300  0.43988900  1
  C  443  1  0.54086800  0.52653700  0.38589600  1
  C  444  1  0.52413700  0.51166200  0.37898800  1
  C  445  1  0.52101800  0.50889800  0.35836000  1
  C  446  1  0.53437700  0.52074500  0.34464100  1
  C  447  1  0.55097400  0.53550200  0.35156900  1
  C  459  1  0.57149200  0.55385300  0.37875200  1
  C  461  1  0.59223900  0.57221100  0.40443400  1
  C  463  1  0.60069900  0.57968100  0.37015400  1
  C  469  1  0.59758000  0.57662200  0.56038200  1
  C  470  1  0.61403800  0.59138200  0.63025600  1
  C  471  1  0.55490100  0.53887900  0.61330800  1
  C  472  1  0.61003600  0.58839600  0.65100100  1
  C  473  1  0.62228200  0.60056300  0.66541900  1
  C  474  1  0.63926900  0.61582100  0.65950300  1
  C  475  1  0.64310600  0.61901500  0.63890800  1
  C  476  1  0.63090900  0.60694500  0.62460100  1
  C  477  1  0.61492100  0.59204300  0.55528300  1
  C  478  1  0.62037300  0.59689500  0.53538700  1
  C  479  1  0.60879600  0.58661400  0.51953100  1
  C  480  1  0.59129600  0.57111200  0.52433400  1
  C  481  1  0.58579200  0.56621400  0.54441500  1
  C  482  1  0.54085800  0.52646400  0.60013000  1
  C  483  1  0.52412400  0.51168800  0.60756900  1
  C  484  1  0.52124100  0.50917000  0.62838900  1
  C  485  1  0.53505200  0.52143500  0.64143800  1
  C  486  1  0.55155000  0.53600300  0.63406400  1
  C  498  1  0.57201700  0.55389400  0.60659800  1
  C  500  1  0.59278800  0.57226200  0.58093200  1
  C  502  1  0.60139100  0.57974600  0.61534100  1
  C  508  1  0.59755500  0.90246400  0.42522400  1
  C  509  1  0.61473300  0.88707100  0.35526600  1
  C  510  1  0.55570700  0.93946900  0.37238000  1
  C  511  1  0.61058500  0.89018400  0.33455900  1
  C  512  1  0.62273700  0.87808100  0.32006400  1
  C  513  1  0.63970100  0.86280000  0.32591600  1
  C  514  1  0.64363900  0.85947700  0.34647000  1
  C  515  1  0.63156700  0.87148900  0.36085300  1
  C  516  1  0.61436300  0.88754400  0.43261700  1
  C  517  1  0.61768600  0.88456800  0.45332700  1
  C  518  1  0.60414300  0.89655400  0.46702500  1
  C  519  1  0.58746700  0.91131100  0.45984700  1
  C  520  1  0.58422700  0.91421400  0.43935800  1
  C  521  1  0.54215900  0.95144100  0.38625700  1
  C  522  1  0.52524700  0.96636200  0.37973500  1
  C  523  1  0.52170200  0.96944900  0.35918600  1
  C  524  1  0.53488600  0.95777100  0.34520200  1
  C  525  1  0.55170500  0.94292800  0.35176200  1
  C  537  1  0.57290200  0.92438900  0.37867800  1
  C  539  1  0.59370700  0.90598600  0.40446500  1
  C  541  1  0.60224500  0.89858100  0.37025600  1
  C  547  1  0.40067600  0.07655600  0.42526500  1
  C  548  1  0.38431600  0.09123700  0.35539000  1
  C  549  1  0.44341600  0.03876200  0.37228900  1
  C  550  1  0.38836400  0.08824400  0.33465200  1
  C  551  1  0.37620500  0.10044900  0.32021600  1
  C  552  1  0.35927000  0.11575500  0.32611500  1
  C  553  1  0.35537300  0.11894500  0.34670000  1
  C  554  1  0.36748400  0.10683800  0.36102600  1
  C  555  1  0.38332800  0.09198800  0.43033900  1
  C  556  1  0.37784900  0.09686600  0.45022900  1
  C  557  1  0.38941700  0.08659600  0.46609800  1
  C  558  1  0.40691900  0.07109100  0.46131200  1
  C  559  1  0.41244400  0.06617200  0.44124900  1
  C  560  1  0.45750400  0.02631300  0.38540300  1
  C  561  1  0.47420700  0.01156600  0.37789000  1
  C  562  1  0.47702000  0.00909600  0.35706200  1
  C  563  1  0.46318900  0.02139400  0.34405500  1
  C  564  1  0.44671700  0.03593900  0.35151400  1
  C  576  1  0.42630500  0.05375600  0.37907100  1
  C  578  1  0.40551200  0.07214300  0.40473200  1
  C  580  1  0.39691700  0.07959600  0.37032200  1
  C  586  1  0.40072800  0.40253700  0.56033700  1
  C  587  1  0.38363100  0.38720000  0.63029300  1
  C  588  1  0.44261800  0.43958200  0.61316800  1
  C  589  1  0.38782500  0.39032900  0.65099100  1
  C  590  1  0.37576200  0.37818600  0.66550800  1
  C  591  1  0.35885000  0.36285400  0.65967500  1
  C  592  1  0.35484800  0.35952900  0.63913200  1
  C  593  1  0.36683200  0.37158000  0.62472800  1
  C  594  1  0.38391000  0.38760100  0.55298500  1
  C  595  1  0.38055700  0.38459300  0.53228400  1
  C  596  1  0.39408200  0.39656400  0.51856200  1
  C  597  1  0.41076900  0.41133500  0.52570100  1
  C  598  1  0.41403800  0.41427100  0.54618100  1
  C  599  1  0.45624500  0.45162100  0.59939500  1
  C  600  1  0.47311500  0.46650700  0.60606300  1
  C  601  1  0.47653600  0.46949900  0.62662600  1
  C  602  1  0.46328800  0.45774200  0.64052500  1
  C  603  1  0.44651300  0.44293800  0.63381800  1
  C  615  1  0.42542700  0.42451700  0.60683100  1
  C  617  1  0.40460300  0.40609700  0.58108000  1
  C  619  1  0.39607200  0.39871400  0.61528500  1
  C  625  1  0.76503700  0.67219400  0.74672900  1
  C  626  1  0.74630000  0.67153200  0.73343100  1
  C  627  1  0.74003200  0.69225000  0.72835300  1
  C  629  1  0.77011200  0.69333800  0.75109400  1
  C  630  1  0.78805700  0.70025500  0.76478500  1
  C  631  1  0.79287900  0.72200500  0.76897800  1
  C  633  1  0.79224300  0.75777700  0.76833300  1
  C  634  1  0.81009000  0.75134100  0.78154800  1
  C  635  1  0.81000900  0.72953000  0.78236900  1
  C  636  1  0.78636200  0.77913500  0.76344800  1
  C  637  1  0.76781500  0.78461900  0.74971500  1
  C  639  1  0.73770300  0.78349600  0.72702300  1
  C  640  1  0.74345800  0.80464300  0.73071400  1
  C  641  1  0.76115900  0.80532700  0.74495800  1
  C  642  1  0.71961500  0.77662000  0.71346800  1
  C  643  1  0.71456900  0.75488300  0.70939900  1
  C  645  1  0.71570400  0.71914900  0.70964100  1
  C  646  1  0.69841300  0.72553700  0.69590000  1
  C  647  1  0.69720300  0.74733400  0.69622100  1
  C  648  1  0.72182800  0.69781300  0.71433600  1
  C  649  1  0.70916000  0.68096300  0.70432200  1
  C  650  1  0.68426600  0.67781900  0.70689400  1
  C  651  1  0.67213700  0.66116900  0.69716800  1
  C  652  1  0.68462500  0.64645200  0.68510400  1
  C  653  1  0.70959300  0.64943800  0.68284700  1
  C  654  1  0.72146800  0.66657400  0.69184300  1
  C  655  1  0.70634900  0.79252200  0.70268200  1
  C  656  1  0.69116500  0.80729900  0.71235900  1
  C  657  1  0.67780300  0.82233600  0.70144600  1
  C  658  1  0.67859800  0.82254500  0.68038500  1
  C  659  1  0.69434000  0.80823300  0.67078000  1
  C  660  1  0.70830200  0.79385000  0.68171000  1
  C  661  1  0.80024900  0.79605000  0.77227200  1
  C  662  1  0.81371500  0.81009100  0.76022000  1
  C  663  1  0.82611400  0.82741000  0.76848900  1
  C  664  1  0.82663100  0.83090600  0.78933400  1
  C  665  1  0.81365600  0.81654200  0.80147400  1
  C  666  1  0.80041700  0.79974300  0.79309500  1
  C  667  1  0.80279400  0.68443800  0.77430600  1
  C  668  1  0.82765800  0.68357900  0.77048100  1
  C  669  1  0.79321200  0.66930700  0.78769500  1
  C  670  1  0.80790400  0.65405400  0.79696800  1
  C  671  1  0.83294100  0.65384600  0.79375600  1
  C  672  1  0.84248400  0.66893800  0.78034600  1
  C  699  1  0.66283000  0.83406700  0.66858100  1
  C  700  1  0.83973500  0.84788200  0.79714200  1
  C  701  1  0.84845100  0.64139800  0.80506200  1
  C  702  1  0.67337700  0.63067400  0.67391000  1
  C  707  1  0.76541800  0.80654800  0.23892600  1
  C  708  1  0.74662200  0.80722300  0.25217800  1
  C  709  1  0.74036800  0.78650600  0.25727500  1
  C  711  1  0.77045100  0.78539600  0.23454600  1
  C  712  1  0.78838200  0.77844400  0.22085800  1
  C  713  1  0.79321700  0.75671600  0.21663500  1
  C  715  1  0.79258400  0.72097200  0.21727200  1
  C  716  1  0.81044400  0.72740000  0.20404600  1
  C  717  1  0.81037000  0.74920700  0.20324000  1
  C  718  1  0.78668100  0.69963000  0.22216500  1
  C  719  1  0.76810400  0.69414300  0.23587700  1
  C  721  1  0.73792800  0.69528200  0.25850900  1
  C  722  1  0.74369100  0.67413000  0.25484800  1
  C  723  1  0.76143400  0.67343500  0.24062900  1
  C  724  1  0.71979200  0.70217800  0.27201400  1
  C  725  1  0.71478700  0.72390700  0.27614000  1
  C  727  1  0.71601000  0.75961800  0.27598300  1
  C  728  1  0.69868500  0.75324100  0.28971500  1
  C  729  1  0.69744600  0.73144900  0.28936300  1
  C  730  1  0.72217100  0.78093900  0.27130100  1
  C  731  1  0.70951600  0.79777900  0.28130600  1
  C  732  1  0.68463600  0.80092400  0.27870300  1
  C  733  1  0.67251900  0.81759800  0.28838900  1
  C  734  1  0.68503600  0.83233600  0.30039700  1
  C  735  1  0.70997500  0.82930900  0.30273600  1
  C  736  1  0.72183300  0.81214300  0.29378900  1
  C  737  1  0.70656000  0.68629400  0.28283000  1
  C  738  1  0.69138300  0.67145700  0.27323900  1
  C  739  1  0.67815700  0.65638700  0.28424300  1
  C  740  1  0.67909700  0.65620700  0.30530200  1
  C  741  1  0.69486900  0.67057300  0.31479600  1
  C  742  1  0.70866500  0.68500700  0.30378500  1
  C  743  1  0.80057000  0.68273000  0.21336400  1
  C  744  1  0.81402700  0.66873100  0.22544700  1
  C  745  1  0.82643800  0.65141200  0.21720600  1
  C  746  1  0.82693700  0.64789300  0.19637100  1
  C  747  1  0.81398400  0.66222500  0.18419400  1
  C  748  1  0.80073100  0.67902000  0.19254800  1
  C  749  1  0.80309400  0.79424000  0.21133400  1
  C  750  1  0.82794400  0.79513200  0.21517300  1
  C  751  1  0.79344600  0.80931600  0.19794200  1
  C  752  1  0.80808600  0.82461200  0.18870200  1
  C  753  1  0.83310600  0.82488400  0.19196400  1
  C  754  1  0.84273200  0.80981100  0.20532600  1
  C  781  1  0.66351400  0.64464100  0.31726400  1
  C  782  1  0.84003400  0.63092500  0.18860400  1
  C  783  1  0.84852900  0.83741800  0.18072400  1
  C  784  1  0.67379500  0.84812800  0.31152600  1
  C  789  1  0.23388200  0.17225300  0.23883900  1
  C  790  1  0.25264600  0.17160100  0.25210700  1
  C  791  1  0.25889200  0.19232200  0.25719600  1
  C  793  1  0.22880900  0.19339700  0.23446700  1
  C  794  1  0.21085100  0.20030500  0.22079000  1
  C  795  1  0.20602200  0.22205400  0.21661400  1
  C  797  1  0.20668000  0.25782200  0.21726800  1
  C  798  1  0.18880800  0.25139400  0.20406900  1
  C  799  1  0.18887000  0.22958500  0.20324600  1
  C  800  1  0.21257300  0.27917700  0.22215600  1
  C  801  1  0.23111700  0.28466700  0.23588800  1
  C  803  1  0.26116600  0.28354800  0.25862800  1
  C  804  1  0.25544600  0.30469600  0.25490600  1
  C  805  1  0.23779300  0.30537500  0.24062300  1
  C  806  1  0.27920600  0.27667400  0.27222700  1
  C  807  1  0.28429300  0.25494400  0.27626300  1
  C  809  1  0.28321100  0.21921900  0.27594000  1
  C  810  1  0.30052000  0.22559100  0.28967400  1
  C  811  1  0.30165000  0.24739300  0.28944700  1
  C  812  1  0.27708100  0.19789500  0.27122300  1
  C  813  1  0.28969400  0.18104500  0.28125900  1
  C  814  1  0.31457600  0.17784600  0.27869200  1
  C  815  1  0.32663600  0.16116100  0.28841800  1
  C  816  1  0.31407800  0.14647600  0.30046900  1
  C  817  1  0.28912600  0.14953700  0.30273800  1
  C  818  1  0.27732000  0.16670300  0.29374200  1
  C  819  1  0.29249000  0.29257100  0.28298700  1
  C  820  1  0.30769100  0.30727700  0.27324200  1
  C  821  1  0.32109700  0.32232900  0.28408400  1
  C  822  1  0.32039100  0.32255400  0.30514200  1
  C  823  1  0.30469200  0.30827800  0.31483700  1
  C  824  1  0.29060900  0.29393100  0.30396500  1
  C  825  1  0.19869700  0.29608600  0.21333000  1
  C  826  1  0.18523500  0.31013100  0.22538100  1
  C  827  1  0.17278600  0.32740900  0.21709900  1
  C  828  1  0.17223200  0.33087000  0.19624900  1
  C  829  1  0.18523100  0.31651700  0.18411600  1
  C  830  1  0.19852400  0.29976200  0.19250500  1
  C  831  1  0.19611800  0.18448400  0.21127100  1
  C  832  1  0.17125400  0.18361300  0.21509300  1
  C  833  1  0.20571300  0.16935400  0.19788800  1
  C  834  1  0.19102600  0.15410600  0.18860300  1
  C  835  1  0.16599700  0.15384700  0.19184700  1
  C  836  1  0.15644000  0.16895800  0.20523300  1
  C  863  1  0.33627700  0.33404200  0.31681800  1
  C  864  1  0.15900900  0.34776900  0.18843100  1
  C  865  1  0.15049500  0.14142500  0.18051200  1
  C  866  1  0.32526300  0.13067200  0.31165200  1
  C  871  1  0.23354800  0.30653100  0.74673700  1
  C  872  1  0.25231700  0.30719200  0.73346100  1
  C  873  1  0.25856000  0.28646800  0.72837300  1
  C  875  1  0.22848000  0.28538100  0.75109900  1
  C  876  1  0.21052800  0.27844400  0.76477100  1
  C  877  1  0.20567700  0.25671500  0.76897400  1
  C  879  1  0.20632800  0.22097600  0.76833600  1
  C  880  1  0.18845700  0.22739700  0.78155300  1
  C  881  1  0.18850900  0.24920500  0.78235300  1
  C  882  1  0.21224600  0.19963800  0.76344300  1
  C  883  1  0.23080900  0.19414200  0.74972200  1
  C  885  1  0.26091600  0.19525700  0.72702200  1
  C  886  1  0.25516800  0.17410800  0.73072000  1
  C  887  1  0.23747400  0.17343100  0.74498200  1
  C  888  1  0.27899300  0.20213600  0.71345100  1
  C  889  1  0.28405700  0.22386000  0.70937700  1
  C  891  1  0.28290200  0.25956900  0.70963400  1
  C  892  1  0.30022500  0.25320800  0.69589400  1
  C  893  1  0.30141900  0.23141300  0.69618000  1
  C  894  1  0.27673800  0.28088300  0.71433800  1
  C  895  1  0.28933700  0.29772100  0.70430300  1
  C  896  1  0.31420100  0.30093200  0.70691600  1
  C  897  1  0.32625000  0.31765200  0.69724400  1
  C  898  1  0.31366700  0.33234800  0.68524300  1
  C  899  1  0.28874200  0.32925500  0.68289200  1
  C  900  1  0.27695600  0.31204600  0.69182600  1
  C  901  1  0.29225200  0.18624500  0.70266500  1
  C  902  1  0.30743400  0.17149300  0.71235700  1
  C  903  1  0.32079800  0.15645100  0.70145400  1
  C  904  1  0.32004000  0.15627300  0.68039500  1
  C  905  1  0.30429500  0.17054500  0.67076900  1
  C  906  1  0.29029800  0.18491100  0.68169400  1
  C  907  1  0.19835600  0.18274300  0.77224700  1
  C  908  1  0.18488600  0.16874900  0.76016700  1
  C  909  1  0.17249400  0.15142000  0.76841000  1
  C  910  1  0.17199600  0.14791000  0.78924400  1
  C  911  1  0.18495200  0.16224100  0.80142100  1
  C  912  1  0.19820400  0.17903600  0.79306300  1
  C  913  1  0.19582100  0.29424500  0.77429200  1
  C  914  1  0.17097300  0.29515000  0.77044100  1
  C  915  1  0.20547100  0.30932400  0.78768100  1
  C  916  1  0.19083800  0.32463400  0.79690500  1
  C  917  1  0.16581900  0.32492200  0.79363600  1
  C  918  1  0.15619200  0.30982800  0.78029200  1
  C  945  1  0.33583400  0.14476200  0.66863400  1
  C  946  1  0.15890700  0.13094200  0.79701600  1
  C  947  1  0.15040100  0.33744400  0.80488800  1
  C  948  1  0.32483600  0.34821000  0.67416600  1
  N  31  1  0.92170400  0.92072200  0.89876300  1
  N  33  1  0.89306500  0.89568400  0.89030000  1
  N  35  1  0.91309600  0.91339800  0.86550200  1
  N  37  1  0.99137400  0.98238000  0.84754500  1
  N  38  1  0.88368100  0.88708700  0.98491300  1
  N  39  1  0.84512600  0.84901200  0.81574100  1
  N  70  1  0.92184000  0.55827000  0.08751300  1
  N  72  1  0.89313600  0.58335100  0.09542700  1
  N  74  1  0.91316200  0.56563700  0.12059100  1
  N  76  1  0.99260000  0.49564400  0.13386200  1
  N  77  1  0.89310100  0.58366000  0.99919100  1
  N  78  1  0.84535600  0.62983200  0.17000100  1
  N  109  1  0.07721000  0.42072900  0.08684800  1
  N  111  1  0.10585600  0.39570100  0.09528800  1
  N  113  1  0.08584100  0.41339800  0.12010700  1
  N  115  1  0.00756100  0.48238500  0.13797500  1
  N  116  1  0.11526800  0.38710200  0.00070000  1
  N  117  1  0.15398800  0.34908000  0.16977000  1
  N  148  1  0.07710100  0.05827900  0.89808000  1
  N  150  1  0.10580800  0.08335800  0.89017600  1
  N  152  1  0.08578400  0.06564300  0.86500200  1
  N  154  1  0.00626500  0.99558100  0.85199500  1
  N  155  1  0.10580200  0.08364300  0.98641600  1
  N  156  1  0.15356600  0.12986600  0.81561500  1
  N  187  1  0.07672200  0.05830800  0.08682200  1
  N  189  1  0.10520000  0.08348200  0.09545300  1
  N  191  1  0.08504500  0.06564200  0.12009900  1
  N  193  1  0.00713000  0.99630200  0.13793800  1
  N  194  1  0.11535400  0.09203800  0.00077800  1
  N  195  1  0.15666900  0.12392600  0.17212000  1
  N  226  1  0.07744400  0.42015200  0.89815200  1
  N  228  1  0.10599900  0.39492100  0.89014300  1
  N  230  1  0.08579800  0.41278400  0.86510900  1
  N  232  1  0.00654600  0.48329400  0.85291000  1
  N  233  1  0.10555700  0.39572400  0.98654200  1
  N  234  1  0.15690700  0.35483700  0.81326100  1
  N  265  1  0.92221900  0.55829900  0.89877500  1
  N  267  1  0.89373800  0.58346500  0.89014900  1
  N  269  1  0.91388800  0.56563200  0.86549700  1
  N  271  1  0.99180000  0.49630200  0.84768800  1
  N  272  1  0.88356300  0.59204000  0.98481600  1
  N  273  1  0.84225500  0.62392500  0.81349300  1
  N  304  1  0.92149000  0.92014200  0.08746100  1
  N  306  1  0.89293400  0.89490900  0.09546500  1
  N  308  1  0.91313300  0.91277300  0.12050400  1
  N  310  1  0.99241500  0.98331400  0.13261200  1
  N  311  1  0.89339400  0.89572600  0.99906400  1
  N  312  1  0.84202400  0.85480600  0.17234400  1
  N  343  1  0.42203500  0.42100700  0.39904600  1
  N  345  1  0.39359100  0.39590700  0.39031300  1
  N  347  1  0.41374200  0.41371100  0.36571100  1
  N  349  1  0.49093100  0.48232700  0.34719400  1
  N  350  1  0.38330100  0.38710500  0.48485200  1
  N  351  1  0.34250900  0.35356300  0.31430900  1
  N  382  1  0.42238500  0.05769600  0.58724600  1
  N  384  1  0.39393900  0.08284200  0.59560200  1
  N  386  1  0.41403600  0.06507500  0.62050100  1
  N  388  1  0.49222900  0.99560100  0.63485100  1
  N  389  1  0.39112400  0.08505300  0.49966800  1
  N  390  1  0.34265100  0.12542900  0.67136100  1
  N  421  1  0.57624200  0.92098800  0.58658200  1
  N  423  1  0.60465300  0.89587300  0.59531500  1
  N  425  1  0.58451300  0.91367500  0.61992500  1
  N  427  1  0.50728400  0.98230500  0.63829500  1
  N  428  1  0.61490700  0.88711400  0.50074200  1
  N  429  1  0.65580000  0.85335500  0.67129000  1
  N  460  1  0.57584400  0.55767600  0.39835600  1
  N  462  1  0.60426300  0.58282800  0.38998300  1
  N  464  1  0.58418000  0.56506600  0.36508300  1
  N  466  1  0.50592700  0.49557300  0.35096200  1
  N  467  1  0.60726200  0.58522600  0.48589200  1
  N  468  1  0.65551400  0.62569900  0.31425200  1
  N  499  1  0.57631700  0.55774600  0.58694700  1
  N  501  1  0.60484400  0.58286600  0.59551300  1
  N  503  1  0.58478800  0.56512900  0.62023500  1
  N  505  1  0.50673900  0.49630400  0.63785800  1
  N  506  1  0.61558200  0.59260300  0.50123600  1
  N  507  1  0.65052200  0.62828400  0.67257500  1
  N  538  1  0.57731300  0.92043200  0.39819800  1
  N  540  1  0.60589500  0.89527800  0.39011200  1
  N  542  1  0.58565600  0.91318100  0.36512200  1
  N  544  1  0.50629000  0.98315400  0.35271700  1
  N  545  1  0.60516600  0.89566400  0.48655300  1
  N  546  1  0.65093500  0.85042000  0.31282000  1
  N  577  1  0.42199900  0.05761900  0.39872600  1
  N  579  1  0.39346000  0.08273100  0.39014400  1
  N  581  1  0.41352300  0.06498700  0.36544200  1
  N  583  1  0.49158200  0.99622700  0.34764000  1
  N  584  1  0.38268100  0.09253900  0.48441600  1
  N  585  1  0.34810600  0.12825700  0.31303600  1
  N  616  1  0.42101400  0.42055300  0.58731700  1
  N  618  1  0.39241800  0.39539600  0.59543800  1
  N  620  1  0.41266600  0.41331100  0.62039000  1
  N  622  1  0.49191100  0.48314300  0.63326000  1
  N  623  1  0.39303500  0.39565300  0.49904100  1
  N  624  1  0.34769100  0.35044700  0.67277600  1
  N  628  1  0.75470300  0.70463800  0.73956700  1
  N  632  1  0.78254300  0.73958800  0.76119900  1
  N  638  1  0.75293300  0.77220400  0.73871500  1
  N  644  1  0.72498900  0.73732700  0.71713300  1
  N  710  1  0.75503200  0.77410200  0.24606900  1
  N  714  1  0.78287500  0.73914200  0.22441900  1
  N  720  1  0.75319800  0.70656800  0.24684500  1
  N  726  1  0.72526100  0.74145400  0.26844100  1
  N  792  1  0.24422300  0.20470600  0.24598300  1
  N  796  1  0.21636900  0.23963100  0.22439500  1
  N  802  1  0.24596300  0.27225300  0.24691600  1
  N  808  1  0.27390500  0.23739700  0.26848100  1
  N  874  1  0.24389100  0.27407500  0.73957900  1
  N  878  1  0.21603100  0.23914900  0.76119200  1
  N  884  1  0.24568700  0.20655600  0.73871700  1
  N  890  1  0.27362600  0.24139800  0.71713400  1
