# generated using pymatgen
data_H11C14(NO)4
_symmetry_space_group_name_H-M   'P 1'
_cell_length_a   42.31380000
_cell_length_b   49.36180000
_cell_length_c   55.46640000
_cell_angle_alpha   89.99440000
_cell_angle_beta   89.46340000
_cell_angle_gamma   89.39710000
_symmetry_Int_Tables_number   1
_chemical_formula_structural   H11C14(NO)4
_chemical_formula_sum   'H1056 C1344 N384 O384'
_cell_volume   115840.36191573
_cell_formula_units_Z   96
loop_
 _symmetry_equiv_pos_site_id
 _symmetry_equiv_pos_as_xyz
  1  'x, y, z'
loop_
 _atom_site_type_symbol
 _atom_site_label
 _atom_site_symmetry_multiplicity
 _atom_site_fract_x
 _atom_site_fract_y
 _atom_site_fract_z
 _atom_site_occupancy
  H  7  1  0.09731000  0.12234300  0.89238500  1
  H  16  1  0.08912700  0.14516400  0.82283100  1
  H  19  1  0.14746500  0.13311200  0.81671500  1
  H  20  1  0.17554500  0.15530200  0.82146600  1
  H  21  1  0.10478200  0.05362800  0.87457100  1
  H  22  1  0.12801400  0.07983500  0.87792800  1
  H  23  1  0.03689600  0.04871300  0.80489100  1
  H  24  1  0.03211300  0.07515500  0.78756100  1
  H  25  1  0.20368400  0.17836500  0.90422300  1
  H  26  1  0.18034200  0.16953800  0.92651200  1
  H  37  1  0.91418600  0.84665000  0.89257700  1
  H  46  1  0.92181100  0.82425600  0.82289700  1
  H  49  1  0.86350200  0.83707900  0.81774100  1
  H  50  1  0.83546300  0.81480600  0.82269900  1
  H  51  1  0.90777400  0.91563900  0.87532600  1
  H  52  1  0.88437000  0.88955800  0.87921700  1
  H  53  1  0.97440200  0.92052000  0.80398300  1
  H  54  1  0.97875500  0.89408600  0.78650600  1
  H  55  1  0.80787400  0.79049000  0.90573400  1
  H  56  1  0.83143500  0.79889500  0.92768200  1
  H  67  1  0.09591200  0.84655800  0.58767300  1
  H  76  1  0.08836900  0.82309600  0.65710900  1
  H  79  1  0.14657500  0.83592700  0.66253800  1
  H  80  1  0.17518100  0.81372200  0.65741400  1
  H  81  1  0.10404000  0.91527900  0.60645400  1
  H  82  1  0.12719600  0.88865300  0.60244600  1
  H  83  1  0.03245800  0.91921300  0.67558400  1
  H  84  1  0.02685900  0.89226700  0.69217900  1
  H  85  1  0.20197100  0.78787800  0.57434000  1
  H  86  1  0.17852600  0.79702800  0.55238500  1
  H  97  1  0.91766400  0.12337000  0.58869200  1
  H  106  1  0.92348100  0.14697000  0.65816600  1
  H  109  1  0.86528500  0.13442500  0.66362900  1
  H  110  1  0.83656600  0.15633700  0.65833000  1
  H  111  1  0.90972300  0.05464200  0.60752700  1
  H  112  1  0.88656200  0.08114800  0.60328100  1
  H  113  1  0.97810000  0.05068400  0.67717200  1
  H  114  1  0.98323000  0.07759200  0.69385900  1
  H  115  1  0.81017000  0.17933300  0.57506300  1
  H  116  1  0.83427000  0.17044200  0.55311900  1
  H  127  1  0.91665500  0.84419000  0.08816900  1
  H  136  1  0.92217100  0.82358400  0.15785900  1
  H  139  1  0.86300400  0.83644200  0.16275600  1
  H  140  1  0.83507500  0.81409800  0.15794900  1
  H  141  1  0.90808000  0.91402600  0.10437900  1
  H  142  1  0.88500900  0.88770500  0.10100000  1
  H  143  1  0.97379900  0.92037600  0.17530100  1
  H  144  1  0.97822100  0.89420000  0.19299900  1
  H  145  1  0.81163200  0.78660900  0.07499800  1
  H  146  1  0.83592900  0.79505100  0.05321300  1
  H  157  1  0.09641500  0.12336400  0.08799500  1
  H  166  1  0.09057000  0.14388600  0.15781600  1
  H  169  1  0.14958600  0.13012800  0.16212100  1
  H  170  1  0.17721400  0.15285800  0.15737200  1
  H  171  1  0.10344800  0.05343500  0.10399100  1
  H  172  1  0.12667400  0.07963900  0.10008400  1
  H  173  1  0.03864800  0.04728500  0.17633900  1
  H  174  1  0.03465300  0.07348500  0.19413600  1
  H  175  1  0.19995000  0.18343200  0.07478100  1
  H  176  1  0.17612100  0.17482600  0.05307500  1
  H  187  1  0.91802600  0.12481900  0.39252800  1
  H  196  1  0.92309500  0.14606600  0.32305100  1
  H  199  1  0.86405500  0.13239700  0.31875100  1
  H  200  1  0.83559300  0.15476300  0.32389300  1
  H  201  1  0.90876400  0.05487300  0.37534400  1
  H  202  1  0.88577300  0.08161300  0.37934900  1
  H  203  1  0.97854200  0.04965300  0.30506400  1
  H  204  1  0.98391800  0.07637800  0.28815600  1
  H  205  1  0.81319900  0.18489800  0.40689800  1
  H  206  1  0.83750300  0.17612300  0.42840000  1
  H  217  1  0.09319000  0.84454800  0.39158200  1
  H  226  1  0.08892900  0.82265600  0.32187700  1
  H  229  1  0.14784100  0.83617700  0.31726100  1
  H  230  1  0.17604000  0.81366200  0.32233000  1
  H  231  1  0.10156500  0.91412600  0.37390500  1
  H  232  1  0.12461500  0.88752600  0.37809900  1
  H  233  1  0.03442900  0.91912100  0.30344900  1
  H  234  1  0.02955100  0.89240900  0.28647200  1
  H  235  1  0.19718600  0.78356200  0.40513500  1
  H  236  1  0.17290700  0.79277400  0.42685700  1
  H  247  1  0.59752400  0.62388200  0.89311200  1
  H  256  1  0.58799800  0.64526300  0.82311300  1
  H  259  1  0.64636500  0.63092900  0.81676000  1
  H  260  1  0.67433500  0.65348800  0.82016800  1
  H  261  1  0.60341100  0.55453600  0.87599200  1
  H  262  1  0.62654500  0.58084600  0.87917200  1
  H  263  1  0.53609000  0.54855900  0.80596100  1
  H  264  1  0.53121500  0.57482200  0.78844100  1
  H  265  1  0.70097800  0.68498200  0.90137600  1
  H  266  1  0.67831300  0.67661800  0.92423400  1
  H  277  1  0.41403100  0.34608600  0.89259900  1
  H  286  1  0.42097900  0.32483500  0.82260900  1
  H  289  1  0.36230900  0.33860300  0.81803300  1
  H  290  1  0.33441800  0.31610600  0.82265600  1
  H  291  1  0.40747600  0.41541300  0.87618700  1
  H  292  1  0.38423700  0.38920500  0.87999200  1
  H  293  1  0.47324500  0.42139200  0.80439000  1
  H  294  1  0.47738400  0.39520500  0.78659100  1
  H  295  1  0.30975800  0.28677600  0.90520100  1
  H  296  1  0.33349000  0.29501600  0.92708500  1
  H  307  1  0.59614100  0.34488400  0.58683300  1
  H  316  1  0.58690700  0.32295900  0.65667600  1
  H  319  1  0.64495600  0.33806900  0.66257200  1
  H  320  1  0.67358000  0.31560100  0.65888500  1
  H  321  1  0.60261900  0.41439000  0.60496300  1
  H  322  1  0.62565400  0.38765000  0.60115000  1
  H  323  1  0.53148500  0.41939600  0.67439600  1
  H  324  1  0.52572500  0.39262400  0.69116700  1
  H  325  1  0.70051800  0.28288500  0.57750100  1
  H  326  1  0.67783100  0.29131500  0.55485000  1
  H  337  1  0.41747500  0.62402600  0.58863900  1
  H  346  1  0.42272900  0.64645800  0.65845000  1
  H  349  1  0.36419100  0.63289800  0.66337100  1
  H  350  1  0.33559000  0.65503600  0.65843800  1
  H  351  1  0.40940200  0.55491800  0.60663500  1
  H  352  1  0.38640700  0.58155900  0.60250100  1
  H  353  1  0.47717700  0.54990300  0.67665900  1
  H  354  1  0.48215500  0.57657700  0.69367100  1
  H  355  1  0.31182700  0.68295900  0.57557000  1
  H  356  1  0.33611300  0.67432900  0.55368500  1
  H  367  1  0.41651700  0.34343800  0.08811100  1
  H  376  1  0.42146000  0.32404800  0.15812200  1
  H  379  1  0.36189400  0.33800300  0.16243700  1
  H  380  1  0.33414400  0.31537900  0.15807000  1
  H  381  1  0.40784400  0.41362100  0.10345200  1
  H  382  1  0.38496900  0.38714900  0.10017800  1
  H  383  1  0.47279900  0.42111600  0.17480100  1
  H  384  1  0.47711100  0.39517100  0.19278600  1
  H  385  1  0.31377600  0.28248000  0.07586900  1
  H  386  1  0.33823700  0.29066900  0.05412100  1
  H  397  1  0.59654500  0.62496600  0.08727800  1
  H  406  1  0.58925400  0.64392300  0.15750200  1
  H  409  1  0.64815800  0.62792200  0.16209600  1
  H  410  1  0.67578700  0.65088800  0.15876900  1
  H  411  1  0.60197200  0.55430000  0.10259200  1
  H  412  1  0.62507500  0.58062500  0.09886400  1
  H  413  1  0.53762500  0.54706300  0.17518500  1
  H  414  1  0.53355200  0.57307300  0.19318800  1
  H  415  1  0.69821500  0.68838500  0.07819400  1
  H  416  1  0.67514200  0.68046200  0.05578000  1
  H  427  1  0.41779200  0.62557200  0.39256600  1
  H  436  1  0.42249400  0.64558800  0.32277500  1
  H  439  1  0.36315800  0.63093500  0.31896700  1
  H  440  1  0.33483600  0.65355000  0.32364000  1
  H  441  1  0.40842600  0.55523400  0.37623500  1
  H  442  1  0.38564900  0.58213600  0.38012000  1
  H  443  1  0.47745300  0.54882100  0.30552600  1
  H  444  1  0.48275700  0.57531000  0.28830400  1
  H  445  1  0.31458900  0.68807000  0.40583200  1
  H  446  1  0.33899600  0.67964000  0.42736200  1
  H  457  1  0.59337700  0.34273700  0.39229600  1
  H  466  1  0.58740900  0.32257800  0.32219100  1
  H  469  1  0.64604900  0.33851400  0.31709500  1
  H  470  1  0.67437900  0.31580300  0.32059900  1
  H  471  1  0.59996600  0.41322400  0.37534800  1
  H  472  1  0.62290900  0.38650400  0.37933200  1
  H  473  1  0.53313600  0.41930600  0.30468900  1
  H  474  1  0.52815200  0.39278600  0.28749800  1
  H  475  1  0.69637300  0.27929700  0.40148400  1
  H  476  1  0.67284100  0.28757400  0.42397000  1
  H  488  1  0.17407700  0.11332000  0.95818300  1
  H  492  1  0.05054800  0.16070200  0.97192300  1
  H  493  1  0.15043200  0.08089800  0.00853800  1
  H  494  1  0.08656700  0.18284500  0.02265400  1
  H  496  1  0.12220800  0.10908000  0.04683400  1
  H  498  1  0.08617000  0.13844400  0.93330000  1
  H  506  1  0.83922100  0.85624300  0.95973500  1
  H  510  1  0.96136700  0.80584600  0.97057500  1
  H  511  1  0.86482800  0.88812600  0.00952500  1
  H  512  1  0.92543400  0.78469900  0.02218900  1
  H  514  1  0.89277400  0.85911700  0.04723000  1
  H  516  1  0.92585200  0.82897200  0.93280500  1
  H  524  1  0.17220800  0.85412300  0.52023600  1
  H  528  1  0.04839300  0.80910400  0.50947400  1
  H  529  1  0.14768700  0.88720100  0.47052700  1
  H  530  1  0.08340900  0.78648500  0.45788600  1
  H  532  1  0.11915000  0.85944300  0.43275800  1
  H  534  1  0.08470800  0.83059300  0.54719400  1
  H  542  1  0.84226000  0.11324300  0.52243200  1
  H  546  1  0.96400000  0.16178600  0.50888300  1
  H  547  1  0.86691500  0.08136800  0.47182100  1
  H  548  1  0.92690700  0.18395500  0.45823900  1
  H  550  1  0.89430900  0.11018600  0.43367600  1
  H  552  1  0.92907200  0.13867500  0.54749000  1
  H  560  1  0.67589600  0.61800800  0.95773800  1
  H  564  1  0.55161800  0.66348200  0.97233600  1
  H  565  1  0.65320600  0.58517600  0.00809500  1
  H  566  1  0.58742900  0.68612700  0.02296000  1
  H  568  1  0.62482800  0.61244500  0.04643700  1
  H  570  1  0.58706000  0.64153400  0.93360200  1
  H  578  1  0.33638800  0.35117700  0.95957200  1
  H  582  1  0.46257800  0.30908100  0.97097500  1
  H  583  1  0.35851800  0.38454100  0.00941700  1
  H  584  1  0.42843300  0.28540600  0.02230100  1
  H  586  1  0.38793300  0.35758300  0.04719100  1
  H  588  1  0.42551700  0.32992500  0.93306300  1
  H  596  1  0.67400400  0.35002000  0.52060800  1
  H  600  1  0.55019000  0.30536800  0.50898800  1
  H  601  1  0.64991700  0.38312800  0.47083900  1
  H  602  1  0.58540300  0.28260700  0.45756000  1
  H  604  1  0.62171300  0.35590000  0.43304300  1
  H  606  1  0.58591200  0.32692900  0.54681900  1
  H  614  1  0.33956900  0.61796000  0.52263800  1
  H  618  1  0.46489300  0.65919000  0.50843200  1
  H  619  1  0.36123100  0.58479100  0.47206100  1
  H  620  1  0.42934300  0.68352000  0.45797300  1
  H  622  1  0.39008300  0.61170200  0.43379800  1
  H  624  1  0.42860400  0.63804900  0.54721400  1
  H  632  1  0.93469600  0.97803500  0.86872600  1
  H  636  1  0.05260500  0.93509500  0.83495200  1
  H  637  1  0.96119700  0.03122700  0.87009300  1
  H  638  1  0.07968300  0.98889100  0.83586800  1
  H  640  1  0.01492400  0.05186800  0.85213900  1
  H  642  1  0.99714500  0.91497800  0.85157600  1
  H  650  1  0.93607900  0.99419900  0.61087200  1
  H  654  1  0.05266600  0.03320900  0.64695800  1
  H  655  1  0.96178800  0.94005500  0.60936400  1
  H  656  1  0.07894400  0.97867100  0.64636500  1
  H  658  1  0.01443000  0.91765100  0.62755300  1
  H  660  1  0.99854800  0.05486000  0.62794400  1
  H  668  1  0.07747700  0.99013700  0.11211700  1
  H  672  1  0.95910800  0.03343800  0.14468600  1
  H  673  1  0.05093900  0.93707400  0.11072000  1
  H  674  1  0.93196900  0.97965200  0.14363300  1
  H  676  1  0.99701300  0.91660400  0.12845800  1
  H  678  1  0.01492800  0.05348500  0.12900200  1
  H  686  1  0.07606900  0.97533600  0.36938200  1
  H  690  1  0.95909400  0.93613500  0.33410700  1
  H  691  1  0.05034900  0.02942400  0.37088200  1
  H  692  1  0.93279200  0.99064500  0.33480100  1
  H  694  1  0.99755300  0.05173300  0.35280200  1
  H  696  1  0.01344300  0.91449500  0.35248800  1
  H  704  1  0.43372300  0.47820000  0.86916200  1
  H  708  1  0.55200500  0.43546500  0.83586400  1
  H  709  1  0.46009100  0.53135300  0.87077900  1
  H  710  1  0.57897100  0.48931400  0.83708400  1
  H  712  1  0.51383500  0.55209500  0.85303500  1
  H  714  1  0.49638500  0.41521200  0.85193800  1
  H  722  1  0.43509600  0.49417400  0.61019200  1
  H  726  1  0.55200700  0.53282600  0.64604600  1
  H  727  1  0.46063100  0.44004100  0.60842000  1
  H  728  1  0.57813600  0.47822400  0.64515000  1
  H  730  1  0.51319900  0.41748300  0.62651400  1
  H  732  1  0.49779700  0.55468600  0.62739600  1
  H  740  1  0.57649900  0.49040600  0.11123200  1
  H  744  1  0.45793500  0.53370300  0.14343100  1
  H  745  1  0.55015800  0.43729700  0.11015900  1
  H  746  1  0.43098500  0.47984200  0.14269600  1
  H  748  1  0.49631200  0.41685000  0.12805000  1
  H  750  1  0.51375700  0.55376200  0.12785700  1
  H  758  1  0.57507600  0.47505300  0.37018000  1
  H  762  1  0.45770300  0.43579700  0.33565900  1
  H  763  1  0.54961400  0.52919100  0.37129100  1
  H  764  1  0.43164900  0.49039200  0.33596500  1
  H  766  1  0.49683600  0.55145900  0.35318700  1
  H  768  1  0.51213400  0.41417600  0.35379700  1
  H  776  1  0.24684900  0.30092200  0.85782400  1
  H  780  1  0.31874500  0.20246700  0.85894100  1
  H  781  1  0.18762700  0.26717100  0.85791500  1
  H  782  1  0.26292100  0.17203500  0.86046300  1
  H  784  1  0.17957000  0.21375100  0.87113500  1
  H  786  1  0.33005300  0.25460500  0.86764100  1
  H  794  1  0.76271800  0.66971400  0.85648100  1
  H  798  1  0.69954200  0.75744400  0.82566300  1
  H  799  1  0.82178800  0.70240700  0.85890200  1
  H  800  1  0.74762800  0.79848600  0.86105100  1
  H  802  1  0.83053700  0.75558200  0.87220300  1
  H  804  1  0.67811600  0.71626900  0.86084100  1
  H  812  1  0.24903400  0.66843400  0.62112500  1
  H  816  1  0.31777700  0.76736800  0.62318400  1
  H  817  1  0.18916700  0.70120700  0.62048700  1
  H  818  1  0.26136900  0.79752500  0.62169100  1
  H  820  1  0.17832100  0.75460600  0.61107000  1
  H  822  1  0.33104000  0.71544400  0.61341400  1
  H  830  1  0.76140100  0.30010800  0.62126200  1
  H  834  1  0.70061000  0.21343900  0.65584300  1
  H  835  1  0.82124300  0.26795200  0.61950300  1
  H  836  1  0.75008900  0.17110300  0.62173100  1
  H  838  1  0.83250600  0.21452100  0.60923600  1
  H  840  1  0.67835000  0.25292100  0.61921800  1
  H  848  1  0.76244400  0.66856000  0.11993700  1
  H  852  1  0.70131000  0.75429200  0.15798900  1
  H  853  1  0.82148100  0.70020600  0.11787100  1
  H  854  1  0.74894800  0.79753600  0.12423500  1
  H  856  1  0.83256800  0.75370300  0.11054500  1
  H  858  1  0.67838300  0.71590400  0.12112100  1
  H  866  1  0.24799800  0.30009600  0.11987000  1
  H  870  1  0.31829000  0.20106700  0.12574200  1
  H  871  1  0.18893300  0.26790100  0.11907300  1
  H  872  1  0.26233100  0.17104400  0.12423500  1
  H  874  1  0.17821600  0.21435900  0.11267600  1
  H  876  1  0.33104800  0.25267500  0.11492100  1
  H  884  1  0.76002100  0.29972500  0.36113300  1
  H  888  1  0.70370300  0.21413900  0.32115800  1
  H  889  1  0.81958200  0.26891300  0.36399800  1
  H  890  1  0.75082500  0.17068600  0.35477400  1
  H  892  1  0.83336100  0.21567400  0.36823900  1
  H  894  1  0.67771700  0.25185100  0.35833500  1
  H  902  1  0.24935400  0.66831100  0.36443300  1
  H  906  1  0.31649100  0.76717000  0.35159200  1
  H  907  1  0.18967200  0.69963800  0.36452300  1
  H  908  1  0.25967400  0.79688400  0.35196700  1
  H  910  1  0.17614600  0.75311100  0.36543300  1
  H  912  1  0.33099000  0.71633700  0.36491000  1
  H  920  1  0.98229200  0.10225900  0.78005700  1
  H  924  1  0.06375200  0.18691700  0.74226900  1
  H  925  1  0.94924500  0.10318400  0.73818500  1
  H  926  1  0.02288200  0.18836200  0.69908400  1
  H  928  1  0.96200700  0.16324500  0.69089700  1
  H  930  1  0.05797400  0.15966100  0.78615300  1
  H  938  1  0.02886100  0.86669600  0.77942800  1
  H  942  1  0.94763800  0.78248300  0.74186500  1
  H  943  1  0.06220900  0.86622700  0.73710300  1
  H  944  1  0.98885700  0.78153900  0.69806700  1
  H  946  1  0.05011200  0.80682000  0.68973700  1
  H  948  1  0.95345600  0.80938200  0.78604900  1
  H  956  1  0.02856700  0.86784000  0.20051500  1
  H  960  1  0.94904100  0.78174200  0.23813400  1
  H  961  1  0.06184800  0.86716600  0.24216900  1
  H  962  1  0.99007400  0.78062200  0.28113500  1
  H  964  1  0.04993000  0.80657200  0.28958400  1
  H  966  1  0.95413800  0.80926700  0.19432400  1
  H  974  1  0.98429100  0.09983100  0.20198100  1
  H  978  1  0.06278500  0.18721000  0.23737700  1
  H  979  1  0.95106800  0.10080600  0.24398000  1
  H  980  1  0.02157700  0.18862200  0.28102500  1
  H  982  1  0.96190000  0.16203500  0.29050900  1
  H  984  1  0.05808000  0.15875700  0.19400500  1
  H  992  1  0.48128200  0.60184800  0.78059500  1
  H  996  1  0.56282600  0.68608900  0.74220900  1
  H  997  1  0.44810900  0.60253700  0.73859200  1
  H  998  1  0.52195300  0.68724300  0.69906100  1
  H  1000  1  0.46086700  0.66235000  0.69123000  1
  H  1002  1  0.55693100  0.65930700  0.78630300  1
  H  1010  1  0.52735600  0.36827900  0.77836600  1
  H  1014  1  0.44687900  0.28269900  0.74217700  1
  H  1015  1  0.56034700  0.36744100  0.73600700  1
  H  1016  1  0.48778200  0.28139900  0.69833200  1
  H  1018  1  0.54843200  0.30706500  0.68930300  1
  H  1020  1  0.45256500  0.31028000  0.78592400  1
  H  1028  1  0.52729200  0.36883100  0.20117300  1
  H  1032  1  0.44777000  0.28240400  0.23814700  1
  H  1033  1  0.56049400  0.36785200  0.24292500  1
  H  1034  1  0.48861100  0.28100400  0.28120000  1
  H  1036  1  0.54844800  0.30686200  0.28989000  1
  H  1038  1  0.45309900  0.31012100  0.19450600  1
  H  1046  1  0.48318400  0.59927300  0.20156600  1
  H  1050  1  0.56166100  0.68654800  0.23720200  1
  H  1051  1  0.45006300  0.60002100  0.24370700  1
  H  1052  1  0.52060800  0.68769200  0.28089500  1
  H  1054  1  0.46099200  0.66114300  0.29029100  1
  H  1056  1  0.55680600  0.65838900  0.19370700  1
  H  1063  1  0.35727200  0.12234300  0.89238500  1
  H  1072  1  0.34908900  0.14516400  0.82283100  1
  H  1075  1  0.40742700  0.13311200  0.81671500  1
  H  1076  1  0.43550700  0.15530200  0.82146600  1
  H  1077  1  0.36474400  0.05362800  0.87457100  1
  H  1078  1  0.38797600  0.07983500  0.87792800  1
  H  1079  1  0.29685800  0.04871300  0.80489100  1
  H  1080  1  0.29207500  0.07515500  0.78756100  1
  H  1081  1  0.46364600  0.17836500  0.90422300  1
  H  1082  1  0.44030400  0.16953800  0.92651200  1
  H  1093  1  0.17414800  0.84665000  0.89257700  1
  H  1102  1  0.18177300  0.82425600  0.82289700  1
  H  1105  1  0.12346400  0.83707900  0.81774100  1
  H  1106  1  0.09542550  0.81480600  0.82269900  1
  H  1107  1  0.16773600  0.91563900  0.87532600  1
  H  1108  1  0.14433200  0.88955800  0.87921700  1
  H  1109  1  0.23436400  0.92052000  0.80398300  1
  H  1110  1  0.23871700  0.89408600  0.78650600  1
  H  1111  1  0.06783650  0.79049000  0.90573400  1
  H  1112  1  0.09139750  0.79889500  0.92768200  1
  H  1123  1  0.35587400  0.84655800  0.58767300  1
  H  1132  1  0.34833100  0.82309600  0.65710900  1
  H  1135  1  0.40653700  0.83592700  0.66253800  1
  H  1136  1  0.43514300  0.81372200  0.65741400  1
  H  1137  1  0.36400200  0.91527900  0.60645400  1
  H  1138  1  0.38715800  0.88865300  0.60244600  1
  H  1139  1  0.29242000  0.91921300  0.67558400  1
  H  1140  1  0.28682100  0.89226700  0.69217900  1
  H  1141  1  0.46193300  0.78787800  0.57434000  1
  H  1142  1  0.43848800  0.79702800  0.55238500  1
  H  1153  1  0.17762600  0.12337000  0.58869200  1
  H  1162  1  0.18344300  0.14697000  0.65816600  1
  H  1165  1  0.12524700  0.13442500  0.66362900  1
  H  1166  1  0.09652850  0.15633700  0.65833000  1
  H  1167  1  0.16968500  0.05464200  0.60752700  1
  H  1168  1  0.14652400  0.08114800  0.60328100  1
  H  1169  1  0.23806200  0.05068400  0.67717200  1
  H  1170  1  0.24319200  0.07759200  0.69385900  1
  H  1171  1  0.07013250  0.17933300  0.57506300  1
  H  1172  1  0.09423250  0.17044200  0.55311900  1
  H  1183  1  0.17661700  0.84419000  0.08816900  1
  H  1192  1  0.18213300  0.82358400  0.15785900  1
  H  1195  1  0.12296600  0.83644200  0.16275600  1
  H  1196  1  0.09503750  0.81409800  0.15794900  1
  H  1197  1  0.16804200  0.91402600  0.10437900  1
  H  1198  1  0.14497100  0.88770500  0.10100000  1
  H  1199  1  0.23376100  0.92037600  0.17530100  1
  H  1200  1  0.23818300  0.89420000  0.19299900  1
  H  1201  1  0.07159450  0.78660900  0.07499800  1
  H  1202  1  0.09589150  0.79505100  0.05321300  1
  H  1213  1  0.35637700  0.12336400  0.08799500  1
  H  1222  1  0.35053200  0.14388600  0.15781600  1
  H  1225  1  0.40954800  0.13012800  0.16212100  1
  H  1226  1  0.43717600  0.15285800  0.15737200  1
  H  1227  1  0.36341000  0.05343500  0.10399100  1
  H  1228  1  0.38663600  0.07963900  0.10008400  1
  H  1229  1  0.29861000  0.04728500  0.17633900  1
  H  1230  1  0.29461500  0.07348500  0.19413600  1
  H  1231  1  0.45991200  0.18343200  0.07478100  1
  H  1232  1  0.43608300  0.17482600  0.05307500  1
  H  1243  1  0.17798800  0.12481900  0.39252800  1
  H  1252  1  0.18305700  0.14606600  0.32305100  1
  H  1255  1  0.12401700  0.13239700  0.31875100  1
  H  1256  1  0.09555550  0.15476300  0.32389300  1
  H  1257  1  0.16872600  0.05487300  0.37534400  1
  H  1258  1  0.14573500  0.08161300  0.37934900  1
  H  1259  1  0.23850400  0.04965300  0.30506400  1
  H  1260  1  0.24388000  0.07637800  0.28815600  1
  H  1261  1  0.07316150  0.18489800  0.40689800  1
  H  1262  1  0.09746550  0.17612300  0.42840000  1
  H  1273  1  0.35315200  0.84454800  0.39158200  1
  H  1282  1  0.34889100  0.82265600  0.32187700  1
  H  1285  1  0.40780300  0.83617700  0.31726100  1
  H  1286  1  0.43600200  0.81366200  0.32233000  1
  H  1287  1  0.36152700  0.91412600  0.37390500  1
  H  1288  1  0.38457700  0.88752600  0.37809900  1
  H  1289  1  0.29439100  0.91912100  0.30344900  1
  H  1290  1  0.28951300  0.89240900  0.28647200  1
  H  1291  1  0.45714800  0.78356200  0.40513500  1
  H  1292  1  0.43286900  0.79277400  0.42685700  1
  H  1303  1  0.85748600  0.62388200  0.89311200  1
  H  1312  1  0.84796000  0.64526300  0.82311300  1
  H  1315  1  0.90632700  0.63092900  0.81676000  1
  H  1316  1  0.93429700  0.65348800  0.82016800  1
  H  1317  1  0.86337300  0.55453600  0.87599200  1
  H  1318  1  0.88650700  0.58084600  0.87917200  1
  H  1319  1  0.79605200  0.54855900  0.80596100  1
  H  1320  1  0.79117700  0.57482200  0.78844100  1
  H  1321  1  0.96094000  0.68498200  0.90137600  1
  H  1322  1  0.93827500  0.67661800  0.92423400  1
  H  1333  1  0.67399300  0.34608600  0.89259900  1
  H  1342  1  0.68094100  0.32483500  0.82260900  1
  H  1345  1  0.62227100  0.33860300  0.81803300  1
  H  1346  1  0.59438000  0.31610600  0.82265600  1
  H  1347  1  0.66743800  0.41541300  0.87618700  1
  H  1348  1  0.64419900  0.38920500  0.87999200  1
  H  1349  1  0.73320700  0.42139200  0.80439000  1
  H  1350  1  0.73734600  0.39520500  0.78659100  1
  H  1351  1  0.56972000  0.28677600  0.90520100  1
  H  1352  1  0.59345200  0.29501600  0.92708500  1
  H  1363  1  0.85610300  0.34488400  0.58683300  1
  H  1372  1  0.84686900  0.32295900  0.65667600  1
  H  1375  1  0.90491800  0.33806900  0.66257200  1
  H  1376  1  0.93354200  0.31560100  0.65888500  1
  H  1377  1  0.86258100  0.41439000  0.60496300  1
  H  1378  1  0.88561600  0.38765000  0.60115000  1
  H  1379  1  0.79144700  0.41939600  0.67439600  1
  H  1380  1  0.78568700  0.39262400  0.69116700  1
  H  1381  1  0.96048000  0.28288500  0.57750100  1
  H  1382  1  0.93779300  0.29131500  0.55485000  1
  H  1393  1  0.67743700  0.62402600  0.58863900  1
  H  1402  1  0.68269100  0.64645800  0.65845000  1
  H  1405  1  0.62415300  0.63289800  0.66337100  1
  H  1406  1  0.59555200  0.65503600  0.65843800  1
  H  1407  1  0.66936400  0.55491800  0.60663500  1
  H  1408  1  0.64636900  0.58155900  0.60250100  1
  H  1409  1  0.73713900  0.54990300  0.67665900  1
  H  1410  1  0.74211700  0.57657700  0.69367100  1
  H  1411  1  0.57178900  0.68295900  0.57557000  1
  H  1412  1  0.59607500  0.67432900  0.55368500  1
  H  1423  1  0.67647900  0.34343800  0.08811100  1
  H  1432  1  0.68142200  0.32404800  0.15812200  1
  H  1435  1  0.62185600  0.33800300  0.16243700  1
  H  1436  1  0.59410600  0.31537900  0.15807000  1
  H  1437  1  0.66780600  0.41362100  0.10345200  1
  H  1438  1  0.64493100  0.38714900  0.10017800  1
  H  1439  1  0.73276100  0.42111600  0.17480100  1
  H  1440  1  0.73707300  0.39517100  0.19278600  1
  H  1441  1  0.57373800  0.28248000  0.07586900  1
  H  1442  1  0.59819900  0.29066900  0.05412100  1
  H  1453  1  0.85650700  0.62496600  0.08727800  1
  H  1462  1  0.84921600  0.64392300  0.15750200  1
  H  1465  1  0.90812000  0.62792200  0.16209600  1
  H  1466  1  0.93574900  0.65088800  0.15876900  1
  H  1467  1  0.86193400  0.55430000  0.10259200  1
  H  1468  1  0.88503700  0.58062500  0.09886400  1
  H  1469  1  0.79758700  0.54706300  0.17518500  1
  H  1470  1  0.79351400  0.57307300  0.19318800  1
  H  1471  1  0.95817700  0.68838500  0.07819400  1
  H  1472  1  0.93510400  0.68046200  0.05578000  1
  H  1483  1  0.67775400  0.62557200  0.39256600  1
  H  1492  1  0.68245600  0.64558800  0.32277500  1
  H  1495  1  0.62312000  0.63093500  0.31896700  1
  H  1496  1  0.59479800  0.65355000  0.32364000  1
  H  1497  1  0.66838800  0.55523400  0.37623500  1
  H  1498  1  0.64561100  0.58213600  0.38012000  1
  H  1499  1  0.73741500  0.54882100  0.30552600  1
  H  1500  1  0.74271900  0.57531000  0.28830400  1
  H  1501  1  0.57455100  0.68807000  0.40583200  1
  H  1502  1  0.59895800  0.67964000  0.42736200  1
  H  1513  1  0.85333900  0.34273700  0.39229600  1
  H  1522  1  0.84737100  0.32257800  0.32219100  1
  H  1525  1  0.90601100  0.33851400  0.31709500  1
  H  1526  1  0.93434100  0.31580300  0.32059900  1
  H  1527  1  0.85992800  0.41322400  0.37534800  1
  H  1528  1  0.88287100  0.38650400  0.37933200  1
  H  1529  1  0.79309800  0.41930600  0.30468900  1
  H  1530  1  0.78811400  0.39278600  0.28749800  1
  H  1531  1  0.95633500  0.27929700  0.40148400  1
  H  1532  1  0.93280300  0.28757400  0.42397000  1
  H  1544  1  0.43403900  0.11332000  0.95818300  1
  H  1548  1  0.31051000  0.16070200  0.97192300  1
  H  1549  1  0.41039400  0.08089800  0.00853800  1
  H  1550  1  0.34652900  0.18284500  0.02265400  1
  H  1552  1  0.38217000  0.10908000  0.04683400  1
  H  1554  1  0.34613200  0.13844400  0.93330000  1
  H  1562  1  0.09918350  0.85624300  0.95973500  1
  H  1566  1  0.22132900  0.80584600  0.97057500  1
  H  1567  1  0.12479000  0.88812600  0.00952500  1
  H  1568  1  0.18539600  0.78469900  0.02218900  1
  H  1570  1  0.15273600  0.85911700  0.04723000  1
  H  1572  1  0.18581400  0.82897200  0.93280500  1
  H  1580  1  0.43217000  0.85412300  0.52023600  1
  H  1584  1  0.30835500  0.80910400  0.50947400  1
  H  1585  1  0.40764900  0.88720100  0.47052700  1
  H  1586  1  0.34337100  0.78648500  0.45788600  1
  H  1588  1  0.37911200  0.85944300  0.43275800  1
  H  1590  1  0.34467000  0.83059300  0.54719400  1
  H  1598  1  0.10222200  0.11324300  0.52243200  1
  H  1602  1  0.22396200  0.16178600  0.50888300  1
  H  1603  1  0.12687700  0.08136800  0.47182100  1
  H  1604  1  0.18686900  0.18395500  0.45823900  1
  H  1606  1  0.15427100  0.11018600  0.43367600  1
  H  1608  1  0.18903400  0.13867500  0.54749000  1
  H  1616  1  0.93585800  0.61800800  0.95773800  1
  H  1620  1  0.81158000  0.66348200  0.97233600  1
  H  1621  1  0.91316800  0.58517600  0.00809500  1
  H  1622  1  0.84739100  0.68612700  0.02296000  1
  H  1624  1  0.88479000  0.61244500  0.04643700  1
  H  1626  1  0.84702200  0.64153400  0.93360200  1
  H  1634  1  0.59635000  0.35117700  0.95957200  1
  H  1638  1  0.72254000  0.30908100  0.97097500  1
  H  1639  1  0.61848000  0.38454100  0.00941700  1
  H  1640  1  0.68839500  0.28540600  0.02230100  1
  H  1642  1  0.64789500  0.35758300  0.04719100  1
  H  1644  1  0.68547900  0.32992500  0.93306300  1
  H  1652  1  0.93396600  0.35002000  0.52060800  1
  H  1656  1  0.81015200  0.30536800  0.50898800  1
  H  1657  1  0.90987900  0.38312800  0.47083900  1
  H  1658  1  0.84536500  0.28260700  0.45756000  1
  H  1660  1  0.88167500  0.35590000  0.43304300  1
  H  1662  1  0.84587400  0.32692900  0.54681900  1
  H  1670  1  0.59953100  0.61796000  0.52263800  1
  H  1674  1  0.72485500  0.65919000  0.50843200  1
  H  1675  1  0.62119300  0.58479100  0.47206100  1
  H  1676  1  0.68930500  0.68352000  0.45797300  1
  H  1678  1  0.65004500  0.61170200  0.43379800  1
  H  1680  1  0.68856600  0.63804900  0.54721400  1
  H  1688  1  0.19465800  0.97803500  0.86872600  1
  H  1692  1  0.31256700  0.93509500  0.83495200  1
  H  1693  1  0.22115900  0.03122700  0.87009300  1
  H  1694  1  0.33964500  0.98889100  0.83586800  1
  H  1696  1  0.27488600  0.05186800  0.85213900  1
  H  1698  1  0.25710700  0.91497800  0.85157600  1
  H  1706  1  0.19604100  0.99419900  0.61087200  1
  H  1710  1  0.31262800  0.03320900  0.64695800  1
  H  1711  1  0.22175000  0.94005500  0.60936400  1
  H  1712  1  0.33890600  0.97867100  0.64636500  1
  H  1714  1  0.27439200  0.91765100  0.62755300  1
  H  1716  1  0.25851000  0.05486000  0.62794400  1
  H  1724  1  0.33743900  0.99013700  0.11211700  1
  H  1728  1  0.21907000  0.03343800  0.14468600  1
  H  1729  1  0.31090100  0.93707400  0.11072000  1
  H  1730  1  0.19193100  0.97965200  0.14363300  1
  H  1732  1  0.25697500  0.91660400  0.12845800  1
  H  1734  1  0.27489000  0.05348500  0.12900200  1
  H  1742  1  0.33603100  0.97533600  0.36938200  1
  H  1746  1  0.21905600  0.93613500  0.33410700  1
  H  1747  1  0.31031100  0.02942400  0.37088200  1
  H  1748  1  0.19275400  0.99064500  0.33480100  1
  H  1750  1  0.25751500  0.05173300  0.35280200  1
  H  1752  1  0.27340500  0.91449500  0.35248800  1
  H  1760  1  0.69368500  0.47820000  0.86916200  1
  H  1764  1  0.81196700  0.43546500  0.83586400  1
  H  1765  1  0.72005300  0.53135300  0.87077900  1
  H  1766  1  0.83893300  0.48931400  0.83708400  1
  H  1768  1  0.77379700  0.55209500  0.85303500  1
  H  1770  1  0.75634700  0.41521200  0.85193800  1
  H  1778  1  0.69505800  0.49417400  0.61019200  1
  H  1782  1  0.81196900  0.53282600  0.64604600  1
  H  1783  1  0.72059300  0.44004100  0.60842000  1
  H  1784  1  0.83809800  0.47822400  0.64515000  1
  H  1786  1  0.77316100  0.41748300  0.62651400  1
  H  1788  1  0.75775900  0.55468600  0.62739600  1
  H  1796  1  0.83646100  0.49040600  0.11123200  1
  H  1800  1  0.71789700  0.53370300  0.14343100  1
  H  1801  1  0.81012000  0.43729700  0.11015900  1
  H  1802  1  0.69094700  0.47984200  0.14269600  1
  H  1804  1  0.75627400  0.41685000  0.12805000  1
  H  1806  1  0.77371900  0.55376200  0.12785700  1
  H  1814  1  0.83503800  0.47505300  0.37018000  1
  H  1818  1  0.71766500  0.43579700  0.33565900  1
  H  1819  1  0.80957600  0.52919100  0.37129100  1
  H  1820  1  0.69161100  0.49039200  0.33596500  1
  H  1822  1  0.75679800  0.55145900  0.35318700  1
  H  1824  1  0.77209600  0.41417600  0.35379700  1
  H  1832  1  0.50681100  0.30092200  0.85782400  1
  H  1836  1  0.57870700  0.20246700  0.85894100  1
  H  1837  1  0.44758900  0.26717100  0.85791500  1
  H  1838  1  0.52288300  0.17203500  0.86046300  1
  H  1840  1  0.43953200  0.21375100  0.87113500  1
  H  1842  1  0.59001500  0.25460500  0.86764100  1
  H  1850  1  0.02268050  0.66971400  0.85648100  1
  H  1854  1  0.95950400  0.75744400  0.82566300  1
  H  1855  1  0.08175050  0.70240700  0.85890200  1
  H  1856  1  0.00759047  0.79848600  0.86105100  1
  H  1858  1  0.09049950  0.75558200  0.87220300  1
  H  1860  1  0.93807800  0.71626900  0.86084100  1
  H  1868  1  0.50899600  0.66843400  0.62112500  1
  H  1872  1  0.57773900  0.76736800  0.62318400  1
  H  1873  1  0.44912900  0.70120700  0.62048700  1
  H  1874  1  0.52133100  0.79752500  0.62169100  1
  H  1876  1  0.43828300  0.75460600  0.61107000  1
  H  1878  1  0.59100200  0.71544400  0.61341400  1
  H  1886  1  0.02136350  0.30010800  0.62126200  1
  H  1890  1  0.96057200  0.21343900  0.65584300  1
  H  1891  1  0.08120550  0.26795200  0.61950300  1
  H  1892  1  0.01005150  0.17110300  0.62173100  1
  H  1894  1  0.09246850  0.21452100  0.60923600  1
  H  1896  1  0.93831200  0.25292100  0.61921800  1
  H  1904  1  0.02240650  0.66856000  0.11993700  1
  H  1908  1  0.96127200  0.75429200  0.15798900  1
  H  1909  1  0.08144350  0.70020600  0.11787100  1
  H  1910  1  0.00891047  0.79753600  0.12423500  1
  H  1912  1  0.09253050  0.75370300  0.11054500  1
  H  1914  1  0.93834500  0.71590400  0.12112100  1
  H  1922  1  0.50796000  0.30009600  0.11987000  1
  H  1926  1  0.57825200  0.20106700  0.12574200  1
  H  1927  1  0.44889500  0.26790100  0.11907300  1
  H  1928  1  0.52229300  0.17104400  0.12423500  1
  H  1930  1  0.43817800  0.21435900  0.11267600  1
  H  1932  1  0.59101000  0.25267500  0.11492100  1
  H  1940  1  0.01998350  0.29972500  0.36113300  1
  H  1944  1  0.96366500  0.21413900  0.32115800  1
  H  1945  1  0.07954450  0.26891300  0.36399800  1
  H  1946  1  0.01078750  0.17068600  0.35477400  1
  H  1948  1  0.09332350  0.21567400  0.36823900  1
  H  1950  1  0.93767900  0.25185100  0.35833500  1
  H  1958  1  0.50931600  0.66831100  0.36443300  1
  H  1962  1  0.57645300  0.76717000  0.35159200  1
  H  1963  1  0.44963400  0.69963800  0.36452300  1
  H  1964  1  0.51963600  0.79688400  0.35196700  1
  H  1966  1  0.43610800  0.75311100  0.36543300  1
  H  1968  1  0.59095200  0.71633700  0.36491000  1
  H  1976  1  0.24225400  0.10225900  0.78005700  1
  H  1980  1  0.32371400  0.18691700  0.74226900  1
  H  1981  1  0.20920700  0.10318400  0.73818500  1
  H  1982  1  0.28284400  0.18836200  0.69908400  1
  H  1984  1  0.22196900  0.16324500  0.69089700  1
  H  1986  1  0.31793600  0.15966100  0.78615300  1
  H  1994  1  0.28882300  0.86669600  0.77942800  1
  H  1998  1  0.20760000  0.78248300  0.74186500  1
  H  1999  1  0.32217100  0.86622700  0.73710300  1
  H  2000  1  0.24881900  0.78153900  0.69806700  1
  H  2002  1  0.31007400  0.80682000  0.68973700  1
  H  2004  1  0.21341800  0.80938200  0.78604900  1
  H  2012  1  0.28852900  0.86784000  0.20051500  1
  H  2016  1  0.20900300  0.78174200  0.23813400  1
  H  2017  1  0.32181000  0.86716600  0.24216900  1
  H  2018  1  0.25003600  0.78062200  0.28113500  1
  H  2020  1  0.30989200  0.80657200  0.28958400  1
  H  2022  1  0.21410000  0.80926700  0.19432400  1
  H  2030  1  0.24425300  0.09983100  0.20198100  1
  H  2034  1  0.32274700  0.18721000  0.23737700  1
  H  2035  1  0.21103000  0.10080600  0.24398000  1
  H  2036  1  0.28153900  0.18862200  0.28102500  1
  H  2038  1  0.22186200  0.16203500  0.29050900  1
  H  2040  1  0.31804200  0.15875700  0.19400500  1
  H  2048  1  0.74124400  0.60184800  0.78059500  1
  H  2052  1  0.82278800  0.68608900  0.74220900  1
  H  2053  1  0.70807100  0.60253700  0.73859200  1
  H  2054  1  0.78191500  0.68724300  0.69906100  1
  H  2056  1  0.72082900  0.66235000  0.69123000  1
  H  2058  1  0.81689300  0.65930700  0.78630300  1
  H  2066  1  0.78731800  0.36827900  0.77836600  1
  H  2070  1  0.70684100  0.28269900  0.74217700  1
  H  2071  1  0.82030900  0.36744100  0.73600700  1
  H  2072  1  0.74774400  0.28139900  0.69833200  1
  H  2074  1  0.80839400  0.30706500  0.68930300  1
  H  2076  1  0.71252700  0.31028000  0.78592400  1
  H  2084  1  0.78725400  0.36883100  0.20117300  1
  H  2088  1  0.70773200  0.28240400  0.23814700  1
  H  2089  1  0.82045600  0.36785200  0.24292500  1
  H  2090  1  0.74857300  0.28100400  0.28120000  1
  H  2092  1  0.80841000  0.30686200  0.28989000  1
  H  2094  1  0.71306100  0.31012100  0.19450600  1
  H  2102  1  0.74314600  0.59927300  0.20156600  1
  H  2106  1  0.82162300  0.68654800  0.23720200  1
  H  2107  1  0.71002500  0.60002100  0.24370700  1
  H  2108  1  0.78057000  0.68769200  0.28089500  1
  H  2110  1  0.72095400  0.66114300  0.29029100  1
  H  2112  1  0.81676800  0.65838900  0.19370700  1
  H  2119  1  0.61723500  0.12234300  0.89238500  1
  H  2128  1  0.60905200  0.14516400  0.82283100  1
  H  2131  1  0.66739000  0.13311200  0.81671500  1
  H  2132  1  0.69547000  0.15530200  0.82146600  1
  H  2133  1  0.62470700  0.05362800  0.87457100  1
  H  2134  1  0.64793900  0.07983500  0.87792800  1
  H  2135  1  0.55682100  0.04871300  0.80489100  1
  H  2136  1  0.55203800  0.07515500  0.78756100  1
  H  2137  1  0.72360900  0.17836500  0.90422300  1
  H  2138  1  0.70026700  0.16953800  0.92651200  1
  H  2149  1  0.43411100  0.84665000  0.89257700  1
  H  2158  1  0.44173600  0.82425600  0.82289700  1
  H  2161  1  0.38342700  0.83707900  0.81774100  1
  H  2162  1  0.35538800  0.81480600  0.82269900  1
  H  2163  1  0.42769900  0.91563900  0.87532600  1
  H  2164  1  0.40429500  0.88955800  0.87921700  1
  H  2165  1  0.49432700  0.92052000  0.80398300  1
  H  2166  1  0.49868000  0.89408600  0.78650600  1
  H  2167  1  0.32779900  0.79049000  0.90573400  1
  H  2168  1  0.35136000  0.79889500  0.92768200  1
  H  2179  1  0.61583700  0.84655800  0.58767300  1
  H  2188  1  0.60829400  0.82309600  0.65710900  1
  H  2191  1  0.66650000  0.83592700  0.66253800  1
  H  2192  1  0.69510600  0.81372200  0.65741400  1
  H  2193  1  0.62396500  0.91527900  0.60645400  1
  H  2194  1  0.64712100  0.88865300  0.60244600  1
  H  2195  1  0.55238300  0.91921300  0.67558400  1
  H  2196  1  0.54678400  0.89226700  0.69217900  1
  H  2197  1  0.72189600  0.78787800  0.57434000  1
  H  2198  1  0.69845100  0.79702800  0.55238500  1
  H  2209  1  0.43758900  0.12337000  0.58869200  1
  H  2218  1  0.44340600  0.14697000  0.65816600  1
  H  2221  1  0.38521000  0.13442500  0.66362900  1
  H  2222  1  0.35649100  0.15633700  0.65833000  1
  H  2223  1  0.42964800  0.05464200  0.60752700  1
  H  2224  1  0.40648700  0.08114800  0.60328100  1
  H  2225  1  0.49802500  0.05068400  0.67717200  1
  H  2226  1  0.50315500  0.07759200  0.69385900  1
  H  2227  1  0.33009500  0.17933300  0.57506300  1
  H  2228  1  0.35419500  0.17044200  0.55311900  1
  H  2239  1  0.43658000  0.84419000  0.08816900  1
  H  2248  1  0.44209600  0.82358400  0.15785900  1
  H  2251  1  0.38292900  0.83644200  0.16275600  1
  H  2252  1  0.35500000  0.81409800  0.15794900  1
  H  2253  1  0.42800500  0.91402600  0.10437900  1
  H  2254  1  0.40493400  0.88770500  0.10100000  1
  H  2255  1  0.49372400  0.92037600  0.17530100  1
  H  2256  1  0.49814600  0.89420000  0.19299900  1
  H  2257  1  0.33155700  0.78660900  0.07499800  1
  H  2258  1  0.35585400  0.79505100  0.05321300  1
  H  2269  1  0.61634000  0.12336400  0.08799500  1
  H  2278  1  0.61049500  0.14388600  0.15781600  1
  H  2281  1  0.66951100  0.13012800  0.16212100  1
  H  2282  1  0.69713900  0.15285800  0.15737200  1
  H  2283  1  0.62337300  0.05343500  0.10399100  1
  H  2284  1  0.64659900  0.07963900  0.10008400  1
  H  2285  1  0.55857300  0.04728500  0.17633900  1
  H  2286  1  0.55457800  0.07348500  0.19413600  1
  H  2287  1  0.71987500  0.18343200  0.07478100  1
  H  2288  1  0.69604600  0.17482600  0.05307500  1
  H  2299  1  0.43795100  0.12481900  0.39252800  1
  H  2308  1  0.44302000  0.14606600  0.32305100  1
  H  2311  1  0.38398000  0.13239700  0.31875100  1
  H  2312  1  0.35551800  0.15476300  0.32389300  1
  H  2313  1  0.42868900  0.05487300  0.37534400  1
  H  2314  1  0.40569800  0.08161300  0.37934900  1
  H  2315  1  0.49846700  0.04965300  0.30506400  1
  H  2316  1  0.50384300  0.07637800  0.28815600  1
  H  2317  1  0.33312400  0.18489800  0.40689800  1
  H  2318  1  0.35742800  0.17612300  0.42840000  1
  H  2329  1  0.61311500  0.84454800  0.39158200  1
  H  2338  1  0.60885400  0.82265600  0.32187700  1
  H  2341  1  0.66776600  0.83617700  0.31726100  1
  H  2342  1  0.69596500  0.81366200  0.32233000  1
  H  2343  1  0.62149000  0.91412600  0.37390500  1
  H  2344  1  0.64454000  0.88752600  0.37809900  1
  H  2345  1  0.55435400  0.91912100  0.30344900  1
  H  2346  1  0.54947600  0.89240900  0.28647200  1
  H  2347  1  0.71711100  0.78356200  0.40513500  1
  H  2348  1  0.69283200  0.79277400  0.42685700  1
  H  2359  1  0.11744900  0.62388200  0.89311200  1
  H  2368  1  0.10792300  0.64526300  0.82311300  1
  H  2371  1  0.16629000  0.63092900  0.81676000  1
  H  2372  1  0.19426000  0.65348800  0.82016800  1
  H  2373  1  0.12333600  0.55453600  0.87599200  1
  H  2374  1  0.14647000  0.58084600  0.87917200  1
  H  2375  1  0.05601490  0.54855900  0.80596100  1
  H  2376  1  0.05113990  0.57482200  0.78844100  1
  H  2377  1  0.22090300  0.68498200  0.90137600  1
  H  2378  1  0.19823800  0.67661800  0.92423400  1
  H  2389  1  0.93395600  0.34608600  0.89259900  1
  H  2398  1  0.94090400  0.32483500  0.82260900  1
  H  2401  1  0.88223400  0.33860300  0.81803300  1
  H  2402  1  0.85434300  0.31610600  0.82265600  1
  H  2403  1  0.92740100  0.41541300  0.87618700  1
  H  2404  1  0.90416200  0.38920500  0.87999200  1
  H  2405  1  0.99317000  0.42139200  0.80439000  1
  H  2406  1  0.99730900  0.39520500  0.78659100  1
  H  2407  1  0.82968300  0.28677600  0.90520100  1
  H  2408  1  0.85341500  0.29501600  0.92708500  1
  H  2419  1  0.11606600  0.34488400  0.58683300  1
  H  2428  1  0.10683200  0.32295900  0.65667600  1
  H  2431  1  0.16488100  0.33806900  0.66257200  1
  H  2432  1  0.19350500  0.31560100  0.65888500  1
  H  2433  1  0.12254400  0.41439000  0.60496300  1
  H  2434  1  0.14557900  0.38765000  0.60115000  1
  H  2435  1  0.05140990  0.41939600  0.67439600  1
  H  2436  1  0.04564990  0.39262400  0.69116700  1
  H  2437  1  0.22044300  0.28288500  0.57750100  1
  H  2438  1  0.19775600  0.29131500  0.55485000  1
  H  2449  1  0.93740000  0.62402600  0.58863900  1
  H  2458  1  0.94265400  0.64645800  0.65845000  1
  H  2461  1  0.88411600  0.63289800  0.66337100  1
  H  2462  1  0.85551500  0.65503600  0.65843800  1
  H  2463  1  0.92932700  0.55491800  0.60663500  1
  H  2464  1  0.90633200  0.58155900  0.60250100  1
  H  2465  1  0.99710200  0.54990300  0.67665900  1
  H  2466  1  0.00207994  0.57657700  0.69367100  1
  H  2467  1  0.83175200  0.68295900  0.57557000  1
  H  2468  1  0.85603800  0.67432900  0.55368500  1
  H  2479  1  0.93644200  0.34343800  0.08811100  1
  H  2488  1  0.94138500  0.32404800  0.15812200  1
  H  2491  1  0.88181900  0.33800300  0.16243700  1
  H  2492  1  0.85406900  0.31537900  0.15807000  1
  H  2493  1  0.92776900  0.41362100  0.10345200  1
  H  2494  1  0.90489400  0.38714900  0.10017800  1
  H  2495  1  0.99272400  0.42111600  0.17480100  1
  H  2496  1  0.99703600  0.39517100  0.19278600  1
  H  2497  1  0.83370100  0.28248000  0.07586900  1
  H  2498  1  0.85816200  0.29066900  0.05412100  1
  H  2509  1  0.11647000  0.62496600  0.08727800  1
  H  2518  1  0.10917900  0.64392300  0.15750200  1
  H  2521  1  0.16808300  0.62792200  0.16209600  1
  H  2522  1  0.19571200  0.65088800  0.15876900  1
  H  2523  1  0.12189700  0.55430000  0.10259200  1
  H  2524  1  0.14500000  0.58062500  0.09886400  1
  H  2525  1  0.05754990  0.54706300  0.17518500  1
  H  2526  1  0.05347690  0.57307300  0.19318800  1
  H  2527  1  0.21814000  0.68838500  0.07819400  1
  H  2528  1  0.19506700  0.68046200  0.05578000  1
  H  2539  1  0.93771700  0.62557200  0.39256600  1
  H  2548  1  0.94241900  0.64558800  0.32277500  1
  H  2551  1  0.88308300  0.63093500  0.31896700  1
  H  2552  1  0.85476100  0.65355000  0.32364000  1
  H  2553  1  0.92835100  0.55523400  0.37623500  1
  H  2554  1  0.90557400  0.58213600  0.38012000  1
  H  2555  1  0.99737800  0.54882100  0.30552600  1
  H  2556  1  0.00268194  0.57531000  0.28830400  1
  H  2557  1  0.83451400  0.68807000  0.40583200  1
  H  2558  1  0.85892100  0.67964000  0.42736200  1
  H  2569  1  0.11330200  0.34273700  0.39229600  1
  H  2578  1  0.10733400  0.32257800  0.32219100  1
  H  2581  1  0.16597400  0.33851400  0.31709500  1
  H  2582  1  0.19430400  0.31580300  0.32059900  1
  H  2583  1  0.11989100  0.41322400  0.37534800  1
  H  2584  1  0.14283400  0.38650400  0.37933200  1
  H  2585  1  0.05306090  0.41930600  0.30468900  1
  H  2586  1  0.04807690  0.39278600  0.28749800  1
  H  2587  1  0.21629800  0.27929700  0.40148400  1
  H  2588  1  0.19276600  0.28757400  0.42397000  1
  H  2600  1  0.69400200  0.11332000  0.95818300  1
  H  2604  1  0.57047300  0.16070200  0.97192300  1
  H  2605  1  0.67035700  0.08089800  0.00853800  1
  H  2606  1  0.60649200  0.18284500  0.02265400  1
  H  2608  1  0.64213300  0.10908000  0.04683400  1
  H  2610  1  0.60609500  0.13844400  0.93330000  1
  H  2618  1  0.35914600  0.85624300  0.95973500  1
  H  2622  1  0.48129200  0.80584600  0.97057500  1
  H  2623  1  0.38475300  0.88812600  0.00952500  1
  H  2624  1  0.44535900  0.78469900  0.02218900  1
  H  2626  1  0.41269900  0.85911700  0.04723000  1
  H  2628  1  0.44577700  0.82897200  0.93280500  1
  H  2636  1  0.69213300  0.85412300  0.52023600  1
  H  2640  1  0.56831800  0.80910400  0.50947400  1
  H  2641  1  0.66761200  0.88720100  0.47052700  1
  H  2642  1  0.60333400  0.78648500  0.45788600  1
  H  2644  1  0.63907500  0.85944300  0.43275800  1
  H  2646  1  0.60463300  0.83059300  0.54719400  1
  H  2654  1  0.36218500  0.11324300  0.52243200  1
  H  2658  1  0.48392500  0.16178600  0.50888300  1
  H  2659  1  0.38684000  0.08136800  0.47182100  1
  H  2660  1  0.44683200  0.18395500  0.45823900  1
  H  2662  1  0.41423400  0.11018600  0.43367600  1
  H  2664  1  0.44899700  0.13867500  0.54749000  1
  H  2672  1  0.19582100  0.61800800  0.95773800  1
  H  2676  1  0.07154290  0.66348200  0.97233600  1
  H  2677  1  0.17313100  0.58517600  0.00809500  1
  H  2678  1  0.10735400  0.68612700  0.02296000  1
  H  2680  1  0.14475300  0.61244500  0.04643700  1
  H  2682  1  0.10698500  0.64153400  0.93360200  1
  H  2690  1  0.85631300  0.35117700  0.95957200  1
  H  2694  1  0.98250300  0.30908100  0.97097500  1
  H  2695  1  0.87844300  0.38454100  0.00941700  1
  H  2696  1  0.94835800  0.28540600  0.02230100  1
  H  2698  1  0.90785800  0.35758300  0.04719100  1
  H  2700  1  0.94544200  0.32992500  0.93306300  1
  H  2708  1  0.19392900  0.35002000  0.52060800  1
  H  2712  1  0.07011490  0.30536800  0.50898800  1
  H  2713  1  0.16984200  0.38312800  0.47083900  1
  H  2714  1  0.10532800  0.28260700  0.45756000  1
  H  2716  1  0.14163800  0.35590000  0.43304300  1
  H  2718  1  0.10583700  0.32692900  0.54681900  1
  H  2726  1  0.85949400  0.61796000  0.52263800  1
  H  2730  1  0.98481800  0.65919000  0.50843200  1
  H  2731  1  0.88115600  0.58479100  0.47206100  1
  H  2732  1  0.94926800  0.68352000  0.45797300  1
  H  2734  1  0.91000800  0.61170200  0.43379800  1
  H  2736  1  0.94852900  0.63804900  0.54721400  1
  H  2744  1  0.45462100  0.97803500  0.86872600  1
  H  2748  1  0.57253000  0.93509500  0.83495200  1
  H  2749  1  0.48112200  0.03122700  0.87009300  1
  H  2750  1  0.59960800  0.98889100  0.83586800  1
  H  2752  1  0.53484900  0.05186800  0.85213900  1
  H  2754  1  0.51707000  0.91497800  0.85157600  1
  H  2762  1  0.45600400  0.99419900  0.61087200  1
  H  2766  1  0.57259100  0.03320900  0.64695800  1
  H  2767  1  0.48171300  0.94005500  0.60936400  1
  H  2768  1  0.59886900  0.97867100  0.64636500  1
  H  2770  1  0.53435500  0.91765100  0.62755300  1
  H  2772  1  0.51847300  0.05486000  0.62794400  1
  H  2780  1  0.59740200  0.99013700  0.11211700  1
  H  2784  1  0.47903300  0.03343800  0.14468600  1
  H  2785  1  0.57086400  0.93707400  0.11072000  1
  H  2786  1  0.45189400  0.97965200  0.14363300  1
  H  2788  1  0.51693800  0.91660400  0.12845800  1
  H  2790  1  0.53485300  0.05348500  0.12900200  1
  H  2798  1  0.59599400  0.97533600  0.36938200  1
  H  2802  1  0.47901900  0.93613500  0.33410700  1
  H  2803  1  0.57027400  0.02942400  0.37088200  1
  H  2804  1  0.45271700  0.99064500  0.33480100  1
  H  2806  1  0.51747800  0.05173300  0.35280200  1
  H  2808  1  0.53336800  0.91449500  0.35248800  1
  H  2816  1  0.95364800  0.47820000  0.86916200  1
  H  2820  1  0.07192990  0.43546500  0.83586400  1
  H  2821  1  0.98001600  0.53135300  0.87077900  1
  H  2822  1  0.09889590  0.48931400  0.83708400  1
  H  2824  1  0.03375990  0.55209500  0.85303500  1
  H  2826  1  0.01630990  0.41521200  0.85193800  1
  H  2834  1  0.95502100  0.49417400  0.61019200  1
  H  2838  1  0.07193190  0.53282600  0.64604600  1
  H  2839  1  0.98055600  0.44004100  0.60842000  1
  H  2840  1  0.09806090  0.47822400  0.64515000  1
  H  2842  1  0.03312390  0.41748300  0.62651400  1
  H  2844  1  0.01772190  0.55468600  0.62739600  1
  H  2852  1  0.09642390  0.49040600  0.11123200  1
  H  2856  1  0.97786000  0.53370300  0.14343100  1
  H  2857  1  0.07008290  0.43729700  0.11015900  1
  H  2858  1  0.95091000  0.47984200  0.14269600  1
  H  2860  1  0.01623690  0.41685000  0.12805000  1
  H  2862  1  0.03368190  0.55376200  0.12785700  1
  H  2870  1  0.09500090  0.47505300  0.37018000  1
  H  2874  1  0.97762800  0.43579700  0.33565900  1
  H  2875  1  0.06953890  0.52919100  0.37129100  1
  H  2876  1  0.95157400  0.49039200  0.33596500  1
  H  2878  1  0.01676090  0.55145900  0.35318700  1
  H  2880  1  0.03205890  0.41417600  0.35379700  1
  H  2888  1  0.76677400  0.30092200  0.85782400  1
  H  2892  1  0.83867000  0.20246700  0.85894100  1
  H  2893  1  0.70755200  0.26717100  0.85791500  1
  H  2894  1  0.78284600  0.17203500  0.86046300  1
  H  2896  1  0.69949500  0.21375100  0.87113500  1
  H  2898  1  0.84997800  0.25460500  0.86764100  1
  H  2906  1  0.28264300  0.66971400  0.85648100  1
  H  2910  1  0.21946700  0.75744400  0.82566300  1
  H  2911  1  0.34171300  0.70240700  0.85890200  1
  H  2912  1  0.26755300  0.79848600  0.86105100  1
  H  2914  1  0.35046200  0.75558200  0.87220300  1
  H  2916  1  0.19804100  0.71626900  0.86084100  1
  H  2924  1  0.76895900  0.66843400  0.62112500  1
  H  2928  1  0.83770200  0.76736800  0.62318400  1
  H  2929  1  0.70909200  0.70120700  0.62048700  1
  H  2930  1  0.78129400  0.79752500  0.62169100  1
  H  2932  1  0.69824600  0.75460600  0.61107000  1
  H  2934  1  0.85096500  0.71544400  0.61341400  1
  H  2942  1  0.28132600  0.30010800  0.62126200  1
  H  2946  1  0.22053500  0.21343900  0.65584300  1
  H  2947  1  0.34116800  0.26795200  0.61950300  1
  H  2948  1  0.27001400  0.17110300  0.62173100  1
  H  2950  1  0.35243100  0.21452100  0.60923600  1
  H  2952  1  0.19827500  0.25292100  0.61921800  1
  H  2960  1  0.28236900  0.66856000  0.11993700  1
  H  2964  1  0.22123500  0.75429200  0.15798900  1
  H  2965  1  0.34140600  0.70020600  0.11787100  1
  H  2966  1  0.26887300  0.79753600  0.12423500  1
  H  2968  1  0.35249300  0.75370300  0.11054500  1
  H  2970  1  0.19830800  0.71590400  0.12112100  1
  H  2978  1  0.76792300  0.30009600  0.11987000  1
  H  2982  1  0.83821500  0.20106700  0.12574200  1
  H  2983  1  0.70885800  0.26790100  0.11907300  1
  H  2984  1  0.78225600  0.17104400  0.12423500  1
  H  2986  1  0.69814100  0.21435900  0.11267600  1
  H  2988  1  0.85097300  0.25267500  0.11492100  1
  H  2996  1  0.27994600  0.29972500  0.36113300  1
  H  3000  1  0.22362800  0.21413900  0.32115800  1
  H  3001  1  0.33950700  0.26891300  0.36399800  1
  H  3002  1  0.27075000  0.17068600  0.35477400  1
  H  3004  1  0.35328600  0.21567400  0.36823900  1
  H  3006  1  0.19764200  0.25185100  0.35833500  1
  H  3014  1  0.76927900  0.66831100  0.36443300  1
  H  3018  1  0.83641600  0.76717000  0.35159200  1
  H  3019  1  0.70959700  0.69963800  0.36452300  1
  H  3020  1  0.77959900  0.79688400  0.35196700  1
  H  3022  1  0.69607100  0.75311100  0.36543300  1
  H  3024  1  0.85091500  0.71633700  0.36491000  1
  H  3032  1  0.50221700  0.10225900  0.78005700  1
  H  3036  1  0.58367700  0.18691700  0.74226900  1
  H  3037  1  0.46917000  0.10318400  0.73818500  1
  H  3038  1  0.54280700  0.18836200  0.69908400  1
  H  3040  1  0.48193200  0.16324500  0.69089700  1
  H  3042  1  0.57789900  0.15966100  0.78615300  1
  H  3050  1  0.54878600  0.86669600  0.77942800  1
  H  3054  1  0.46756300  0.78248300  0.74186500  1
  H  3055  1  0.58213400  0.86622700  0.73710300  1
  H  3056  1  0.50878200  0.78153900  0.69806700  1
  H  3058  1  0.57003700  0.80682000  0.68973700  1
  H  3060  1  0.47338100  0.80938200  0.78604900  1
  H  3068  1  0.54849200  0.86784000  0.20051500  1
  H  3072  1  0.46896600  0.78174200  0.23813400  1
  H  3073  1  0.58177300  0.86716600  0.24216900  1
  H  3074  1  0.50999900  0.78062200  0.28113500  1
  H  3076  1  0.56985500  0.80657200  0.28958400  1
  H  3078  1  0.47406300  0.80926700  0.19432400  1
  H  3086  1  0.50421600  0.09983100  0.20198100  1
  H  3090  1  0.58271000  0.18721000  0.23737700  1
  H  3091  1  0.47099300  0.10080600  0.24398000  1
  H  3092  1  0.54150200  0.18862200  0.28102500  1
  H  3094  1  0.48182500  0.16203500  0.29050900  1
  H  3096  1  0.57800500  0.15875700  0.19400500  1
  H  3104  1  0.00120694  0.60184800  0.78059500  1
  H  3108  1  0.08275090  0.68608900  0.74220900  1
  H  3109  1  0.96803400  0.60253700  0.73859200  1
  H  3110  1  0.04187790  0.68724300  0.69906100  1
  H  3112  1  0.98079200  0.66235000  0.69123000  1
  H  3114  1  0.07685590  0.65930700  0.78630300  1
  H  3122  1  0.04728090  0.36827900  0.77836600  1
  H  3126  1  0.96680400  0.28269900  0.74217700  1
  H  3127  1  0.08027190  0.36744100  0.73600700  1
  H  3128  1  0.00770694  0.28139900  0.69833200  1
  H  3130  1  0.06835690  0.30706500  0.68930300  1
  H  3132  1  0.97249000  0.31028000  0.78592400  1
  H  3140  1  0.04721690  0.36883100  0.20117300  1
  H  3144  1  0.96769500  0.28240400  0.23814700  1
  H  3145  1  0.08041890  0.36785200  0.24292500  1
  H  3146  1  0.00853594  0.28100400  0.28120000  1
  H  3148  1  0.06837290  0.30686200  0.28989000  1
  H  3150  1  0.97302400  0.31012100  0.19450600  1
  H  3158  1  0.00310894  0.59927300  0.20156600  1
  H  3162  1  0.08158590  0.68654800  0.23720200  1
  H  3163  1  0.96998800  0.60002100  0.24370700  1
  H  3164  1  0.04053290  0.68769200  0.28089500  1
  H  3166  1  0.98091700  0.66114300  0.29029100  1
  H  3168  1  0.07673090  0.65838900  0.19370700  1
  C  1  1  0.12312000  0.13057200  0.86053100  1
  C  2  1  0.11616600  0.13272000  0.88548000  1
  C  3  1  0.13570600  0.14649500  0.90178700  1
  C  4  1  0.16264300  0.16055100  0.89302500  1
  C  5  1  0.16804600  0.16275800  0.86757700  1
  C  6  1  0.14929400  0.14645700  0.85160200  1
  C  9  1  0.10193600  0.11326900  0.84640900  1
  C  10  1  0.09361100  0.08576800  0.85269300  1
  C  11  1  0.06949000  0.07145400  0.83988500  1
  C  12  1  0.05696800  0.08321700  0.81842100  1
  C  13  1  0.06376800  0.11065100  0.81270000  1
  C  14  1  0.08520000  0.12528200  0.82701800  1
  C  31  1  0.88816400  0.83887800  0.86112000  1
  C  32  1  0.89527800  0.83637400  0.88590600  1
  C  33  1  0.87585200  0.82234200  0.90239700  1
  C  34  1  0.84884400  0.80841700  0.89396800  1
  C  35  1  0.84324300  0.80660700  0.86859800  1
  C  36  1  0.86190100  0.82315400  0.85248700  1
  C  39  1  0.90941000  0.85618100  0.84675500  1
  C  40  1  0.91810200  0.88357900  0.85300400  1
  C  41  1  0.94208900  0.89782600  0.83965000  1
  C  42  1  0.95420600  0.88607500  0.81787600  1
  C  43  1  0.94725100  0.85867200  0.81231600  1
  C  44  1  0.92586800  0.84411900  0.82702200  1
  C  61  1  0.12194100  0.83801400  0.61907700  1
  C  62  1  0.11489200  0.83595900  0.59425200  1
  C  63  1  0.13451000  0.82192300  0.57765700  1
  C  64  1  0.16155700  0.80756000  0.58605900  1
  C  65  1  0.16735200  0.80593900  0.61140500  1
  C  66  1  0.14850900  0.82232400  0.62767500  1
  C  69  1  0.10058000  0.85517000  0.63360400  1
  C  70  1  0.09245900  0.88288200  0.62781400  1
  C  71  1  0.06813500  0.89717200  0.64104400  1
  C  72  1  0.05485200  0.88510400  0.66218300  1
  C  73  1  0.06216200  0.85760500  0.66764400  1
  C  74  1  0.08395100  0.84299600  0.65303200  1
  C  91  1  0.89079200  0.13187200  0.62009600  1
  C  92  1  0.89839000  0.13381400  0.59524400  1
  C  93  1  0.87881600  0.14734600  0.57857300  1
  C  94  1  0.85127000  0.16135100  0.58686900  1
  C  95  1  0.84514700  0.16350400  0.61222000  1
  C  96  1  0.86388600  0.14749100  0.62860400  1
  C  99  1  0.91186400  0.11481900  0.63469800  1
  C  100  1  0.92027600  0.08711300  0.62894100  1
  C  101  1  0.94413300  0.07285800  0.64233200  1
  C  102  1  0.95657800  0.08490800  0.66358700  1
  C  103  1  0.94923300  0.11244600  0.66892000  1
  C  104  1  0.92794700  0.12704400  0.65416300  1
  C  121  1  0.88909300  0.83750200  0.11953500  1
  C  122  1  0.89709800  0.83456000  0.09484500  1
  C  123  1  0.87828100  0.82020600  0.07845100  1
  C  124  1  0.85146500  0.80578800  0.08692400  1
  C  125  1  0.84458400  0.80489500  0.11224400  1
  C  126  1  0.86251600  0.82192100  0.12820200  1
  C  129  1  0.90986800  0.85509400  0.13372100  1
  C  130  1  0.91843100  0.88244200  0.12710600  1
  C  131  1  0.94215900  0.89703900  0.14009600  1
  C  132  1  0.95421500  0.88562400  0.16186300  1
  C  133  1  0.94742800  0.85824000  0.16778400  1
  C  134  1  0.92617900  0.84340400  0.15347200  1
  C  151  1  0.12357100  0.12985600  0.11920800  1
  C  152  1  0.11581100  0.13304400  0.09461100  1
  C  153  1  0.13454900  0.14789800  0.07824500  1
  C  154  1  0.16093600  0.16262300  0.08671200  1
  C  155  1  0.16774200  0.16294200  0.11195500  1
  C  156  1  0.14995400  0.14544100  0.12783000  1
  C  159  1  0.10261800  0.11228000  0.13352900  1
  C  160  1  0.09376300  0.08501100  0.12699900  1
  C  161  1  0.07013100  0.07050200  0.14050500  1
  C  162  1  0.05839500  0.08195700  0.16252500  1
  C  163  1  0.06527100  0.10933400  0.16824000  1
  C  164  1  0.08647600  0.12406800  0.15353500  1
  C  181  1  0.89029500  0.13177000  0.36160400  1
  C  182  1  0.89833600  0.13463300  0.38616000  1
  C  183  1  0.87937100  0.14922300  0.40279600  1
  C  184  1  0.85245700  0.16393100  0.39463400  1
  C  185  1  0.84528600  0.16428400  0.36946100  1
  C  186  1  0.86335000  0.14716800  0.35324900  1
  C  189  1  0.91129500  0.11434100  0.34705000  1
  C  190  1  0.91962400  0.08676000  0.35316900  1
  C  191  1  0.94360500  0.07220400  0.33979300  1
  C  192  1  0.95654300  0.08398000  0.31839500  1
  C  193  1  0.94925900  0.11143600  0.31275400  1
  C  194  1  0.92757600  0.12622400  0.32731300  1
  C  211  1  0.12099600  0.83716800  0.36033600  1
  C  212  1  0.11282700  0.83457900  0.38503000  1
  C  213  1  0.13157500  0.81998400  0.40154100  1
  C  214  1  0.15838700  0.80501500  0.39319200  1
  C  215  1  0.16576100  0.80450700  0.36796100  1
  C  216  1  0.14795200  0.82160200  0.35182600  1
  C  219  1  0.10017900  0.85449400  0.34578300  1
  C  220  1  0.09158200  0.88208200  0.35183000  1
  C  221  1  0.06798100  0.89655200  0.33834400  1
  C  222  1  0.05579200  0.88474600  0.31688500  1
  C  223  1  0.06315300  0.85725900  0.31135700  1
  C  224  1  0.08438600  0.84252800  0.32605400  1
  C  241  1  0.62232700  0.63118200  0.86065300  1
  C  242  1  0.61602700  0.63421800  0.88562300  1
  C  243  1  0.63549300  0.64922500  0.90114400  1
  C  244  1  0.66167700  0.66365700  0.89149200  1
  C  245  1  0.66718700  0.66385100  0.86600900  1
  C  246  1  0.64842000  0.64652600  0.85091900  1
  C  249  1  0.60073300  0.61370100  0.84707700  1
  C  250  1  0.59237800  0.58631300  0.85367500  1
  C  251  1  0.56836900  0.57179000  0.84091500  1
  C  252  1  0.55589000  0.58327000  0.81930800  1
  C  253  1  0.56258600  0.61065900  0.81336700  1
  C  254  1  0.58398500  0.62546400  0.82756300  1
  C  271  1  0.38780500  0.33885100  0.86114900  1
  C  272  1  0.39517900  0.33581000  0.88584300  1
  C  273  1  0.37617300  0.32108300  0.90213800  1
  C  274  1  0.34941600  0.30691400  0.89354600  1
  C  275  1  0.34313700  0.30627200  0.86822700  1
  C  276  1  0.36139300  0.32343400  0.85238500  1
  C  279  1  0.40885400  0.35641300  0.84689800  1
  C  280  1  0.41755900  0.38372200  0.85339700  1
  C  281  1  0.44131100  0.39819600  0.83999900  1
  C  282  1  0.45322500  0.38674600  0.81803100  1
  C  283  1  0.44628600  0.35940200  0.81223500  1
  C  284  1  0.42507800  0.34464100  0.82692200  1
  C  301  1  0.62105900  0.33741000  0.61893100  1
  C  302  1  0.61481300  0.33443200  0.59405500  1
  C  303  1  0.63464200  0.31936500  0.57829600  1
  C  304  1  0.66109200  0.30491400  0.58768000  1
  C  305  1  0.66666667  0.30502500  0.61308000  1
  C  306  1  0.64751700  0.32231200  0.62842000  1
  C  309  1  0.59916400  0.35471600  0.63283400  1
  C  310  1  0.59107100  0.38233300  0.62672900  1
  C  311  1  0.56684000  0.39683900  0.63988300  1
  C  312  1  0.55353800  0.38505000  0.66114900  1
  C  313  1  0.56067000  0.35757800  0.66680900  1
  C  314  1  0.58243200  0.34278300  0.65233800  1
  C  331  1  0.39045100  0.63197700  0.62007100  1
  C  332  1  0.39826100  0.63446400  0.59529600  1
  C  333  1  0.37905500  0.64869200  0.57882000  1
  C  334  1  0.35173800  0.66292000  0.58729600  1
  C  335  1  0.34499600  0.66390800  0.61262100  1
  C  336  1  0.36338900  0.64726600  0.62872800  1
  C  339  1  0.41135900  0.61465600  0.63454300  1
  C  340  1  0.41976700  0.58703300  0.62852100  1
  C  341  1  0.44341600  0.57255200  0.64193200  1
  C  342  1  0.45572900  0.58431100  0.66336700  1
  C  343  1  0.44839000  0.61178600  0.66895800  1
  C  344  1  0.42723400  0.62658900  0.65425100  1
  C  361  1  0.38883200  0.33731000  0.11952400  1
  C  362  1  0.39708600  0.33375000  0.09494400  1
  C  363  1  0.37873100  0.31855700  0.07884400  1
  C  364  1  0.35218900  0.30392400  0.08754600  1
  C  365  1  0.34460700  0.30431400  0.11276500  1
  C  366  1  0.36211600  0.32205100  0.12836800  1
  C  369  1  0.40941300  0.35519000  0.13354900  1
  C  370  1  0.41797500  0.38244200  0.12666600  1
  C  371  1  0.44146800  0.39728100  0.13968500  1
  C  372  1  0.45336600  0.38617100  0.16162900  1
  C  373  1  0.44659900  0.35885400  0.16780000  1
  C  374  1  0.42550600  0.34380500  0.15353700  1
  C  391  1  0.62271400  0.63035800  0.11911700  1
  C  392  1  0.61567300  0.63447600  0.09450100  1
  C  393  1  0.63457900  0.65032800  0.07898100  1
  C  394  1  0.66034700  0.66514900  0.08844300  1
  C  395  1  0.66698900  0.66373300  0.11366100  1
  C  396  1  0.64901400  0.64535100  0.12858600  1
  C  399  1  0.60127000  0.61265200  0.13285900  1
  C  400  1  0.59239900  0.58549900  0.12601500  1
  C  401  1  0.56887100  0.57077900  0.13945200  1
  C  402  1  0.55715100  0.58194400  0.16159800  1
  C  403  1  0.56391300  0.60927400  0.16754100  1
  C  404  1  0.58508200  0.62418900  0.15296400  1
  C  421  1  0.39000800  0.63194500  0.36156000  1
  C  422  1  0.39821100  0.63540300  0.38602100  1
  C  423  1  0.37956400  0.65070900  0.40235400  1
  C  424  1  0.35284500  0.66550600  0.39392900  1
  C  425  1  0.34519300  0.66478400  0.36884600  1
  C  426  1  0.36296200  0.64703300  0.35300200  1
  C  429  1  0.41086700  0.61423200  0.34719400  1
  C  430  1  0.41914800  0.58673300  0.35358600  1
  C  431  1  0.44289700  0.57192200  0.34019700  1
  C  432  1  0.45569700  0.58337600  0.31860800  1
  C  433  1  0.44849700  0.61078300  0.31272100  1
  C  434  1  0.42698200  0.62580100  0.32723200  1
  C  451  1  0.62009800  0.33662200  0.36034200  1
  C  452  1  0.61278200  0.33301900  0.38507500  1
  C  453  1  0.63191300  0.31749200  0.40069000  1
  C  454  1  0.65820900  0.30258300  0.39126300  1
  C  455  1  0.66518600  0.30376100  0.36600700  1
  C  456  1  0.64697900  0.32172600  0.35088500  1
  C  459  1  0.59865700  0.35407500  0.34645700  1
  C  460  1  0.59005600  0.38154800  0.35284800  1
  C  461  1  0.56652700  0.39622800  0.33945800  1
  C  462  1  0.55430400  0.38471900  0.31787800  1
  C  463  1  0.56153800  0.35727500  0.31211400  1
  C  464  1  0.58277000  0.34235700  0.32664900  1
  C  481  1  0.11882100  0.13182900  0.01578100  1
  C  482  1  0.13794000  0.11639800  0.99963200  1
  C  483  1  0.13518000  0.11971700  0.97440300  1
  C  484  1  0.11217900  0.13764300  0.96467300  1
  C  485  1  0.09263900  0.15267600  0.98084100  1
  C  486  1  0.09646600  0.15033500  0.00609700  1
  C  495  1  0.12170200  0.12794100  0.04049300  1
  C  497  1  0.10786400  0.13971000  0.93988300  1
  C  499  1  0.89486600  0.83649100  0.01599400  1
  C  500  1  0.87597900  0.85236400  0.00030100  1
  C  501  1  0.87817700  0.84894100  0.97501900  1
  C  502  1  0.90038600  0.83043000  0.96477000  1
  C  503  1  0.91971300  0.81495000  0.98047900  1
  C  504  1  0.91641800  0.81742500  0.00581600  1
  C  513  1  0.89239700  0.84032100  0.04076100  1
  C  515  1  0.90422000  0.82824400  0.93989100  1
  C  517  1  0.11579000  0.83694800  0.46399400  1
  C  518  1  0.13525800  0.85193800  0.47969500  1
  C  519  1  0.13300700  0.84855400  0.50497800  1
  C  520  1  0.11019800  0.83100600  0.51524000  1
  C  521  1  0.09030900  0.81642500  0.49953500  1
  C  522  1  0.09362400  0.81881300  0.47419600  1
  C  531  1  0.11843400  0.84063800  0.43920900  1
  C  533  1  0.10630700  0.82894600  0.54012500  1
  C  535  1  0.89667000  0.13261000  0.46490900  1
  C  536  1  0.87817500  0.11687400  0.48097800  1
  C  537  1  0.88091400  0.12001900  0.50621500  1
  C  538  1  0.90330500  0.13806400  0.51599400  1
  C  539  1  0.92223300  0.15340800  0.49990200  1
  C  540  1  0.91839800  0.15122900  0.47464500  1
  C  549  1  0.89376800  0.12897100  0.44019700  1
  C  551  1  0.90743300  0.14011900  0.54077900  1
  C  553  1  0.62087200  0.63572900  0.01577400  1
  C  554  1  0.64014800  0.62063000  0.99947100  1
  C  555  1  0.63713100  0.62397200  0.97425500  1
  C  556  1  0.61371900  0.64158200  0.96464200  1
  C  557  1  0.59401300  0.65626700  0.98095800  1
  C  558  1  0.59808100  0.65392100  0.00620400  1
  C  567  1  0.62370500  0.63145000  0.04047300  1
  C  569  1  0.60886600  0.64332200  0.93986500  1
  C  571  1  0.39313300  0.33500600  0.01610700  1
  C  572  1  0.37299700  0.34957900  0.00031900  1
  C  573  1  0.37571300  0.34636800  0.97503800  1
  C  574  1  0.39960700  0.32941600  0.96484500  1
  C  575  1  0.42014000  0.31526100  0.98064300  1
  C  576  1  0.41642600  0.31746200  0.00597800  1
  C  585  1  0.39015600  0.33877200  0.04088400  1
  C  587  1  0.40394700  0.32769200  0.93996000  1
  C  589  1  0.61815700  0.33285000  0.46391500  1
  C  590  1  0.63751300  0.34777200  0.47976000  1
  C  591  1  0.63504200  0.34437200  0.50503900  1
  C  592  1  0.61210100  0.32687800  0.51520100  1
  C  593  1  0.59230800  0.31237700  0.49935400  1
  C  594  1  0.59584500  0.31477300  0.47402100  1
  C  603  1  0.62066700  0.33695900  0.43913700  1
  C  605  1  0.60767900  0.32513100  0.54008700  1
  C  607  1  0.39497100  0.63415300  0.46480900  1
  C  608  1  0.37536800  0.61958000  0.48100400  1
  C  609  1  0.37854900  0.62255500  0.50622900  1
  C  610  1  0.40241900  0.63922200  0.51590900  1
  C  611  1  0.42241600  0.65338900  0.49969700  1
  C  612  1  0.41822200  0.65143600  0.47445000  1
  C  621  1  0.39167700  0.63051900  0.44010000  1
  C  623  1  0.40703100  0.64086100  0.54069100  1
  C  625  1  0.02134700  0.01044100  0.85363400  1
  C  626  1  0.99288900  0.00414800  0.86637500  1
  C  627  1  0.97922400  0.97787700  0.86575100  1
  C  628  1  0.99318900  0.95652300  0.85212700  1
  C  629  1  0.02173900  0.96268600  0.83954200  1
  C  630  1  0.03532500  0.98892400  0.84010800  1
  C  639  1  0.03180000  0.03766800  0.85169300  1
  C  641  1  0.98107700  0.92987100  0.85129100  1
  C  643  1  0.02121300  0.95896600  0.62724100  1
  C  644  1  0.99362100  0.96616200  0.61401300  1
  C  645  1  0.98040900  0.99279400  0.61465300  1
  C  646  1  0.99407100  0.01344800  0.62875900  1
  C  647  1  0.02175500  0.00644000  0.64182200  1
  C  648  1  0.03485000  0.97982500  0.64127300  1
  C  657  1  0.03122600  0.93153700  0.62886900  1
  C  659  1  0.98249700  0.04031800  0.62940100  1
  C  661  1  0.99051500  0.95798200  0.12643800  1
  C  662  1  0.01921100  0.96419400  0.11397400  1
  C  663  1  0.03290400  0.99046100  0.11463100  1
  C  664  1  0.01874000  0.01191500  0.12802000  1
  C  665  1  0.98999100  0.00580800  0.14037000  1
  C  666  1  0.97638300  0.97957800  0.13977100  1
  C  675  1  0.98007200  0.93075100  0.12846300  1
  C  677  1  0.03094400  0.03854600  0.12900900  1
  C  679  1  0.99073100  0.01043900  0.35350100  1
  C  680  1  0.01846900  0.00328200  0.36656500  1
  C  681  1  0.03169200  0.97664900  0.36590600  1
  C  682  1  0.01787700  0.95592700  0.35196000  1
  C  683  1  0.99005000  0.96291000  0.33905400  1
  C  684  1  0.97694300  0.98952700  0.33961800  1
  C  693  1  0.98068800  0.03787100  0.35182800  1
  C  695  1  0.02950100  0.92905200  0.35123300  1
  C  697  1  0.52044000  0.51070200  0.85463900  1
  C  698  1  0.49188000  0.50433400  0.86721000  1
  C  699  1  0.47827800  0.47804300  0.86644700  1
  C  700  1  0.49241800  0.45675300  0.85284600  1
  C  701  1  0.52105900  0.46299700  0.84041900  1
  C  702  1  0.53458600  0.48925200  0.84112800  1
  C  711  1  0.53078900  0.53795800  0.85275500  1
  C  713  1  0.48032000  0.43010900  0.85181200  1
  C  715  1  0.52023900  0.45875400  0.62610700  1
  C  716  1  0.49258300  0.46605800  0.61300500  1
  C  717  1  0.47945400  0.49271400  0.61378500  1
  C  718  1  0.49327000  0.51326900  0.62791500  1
  C  719  1  0.52100600  0.50614800  0.64086400  1
  C  720  1  0.53402300  0.47951200  0.64017400  1
  C  729  1  0.53010600  0.43128900  0.62767200  1
  C  731  1  0.48173500  0.54013900  0.62874300  1
  C  733  1  0.48963900  0.45818300  0.12566100  1
  C  734  1  0.51833100  0.46436400  0.11317900  1
  C  735  1  0.53192100  0.49067200  0.11367500  1
  C  736  1  0.51764400  0.51219500  0.12690500  1
  C  737  1  0.48890700  0.50611400  0.13927900  1
  C  738  1  0.47540100  0.47984300  0.13884100  1
  C  747  1  0.47931400  0.43094500  0.12787500  1
  C  749  1  0.52979600  0.53884100  0.12780900  1
  C  751  1  0.48980300  0.51020500  0.35431400  1
  C  752  1  0.51758300  0.50310700  0.36735000  1
  C  753  1  0.53067300  0.47642400  0.36688300  1
  C  754  1  0.51666000  0.45560300  0.35318000  1
  C  755  1  0.48879300  0.46253100  0.34030000  1
  C  756  1  0.47582000  0.48919300  0.34067100  1
  C  765  1  0.47989700  0.53764300  0.35241800  1
  C  767  1  0.52822000  0.42871500  0.35256400  1
  C  769  1  0.22523400  0.21975300  0.85867000  1
  C  770  1  0.22549600  0.24799200  0.86442000  1
  C  771  1  0.25358800  0.26366800  0.86393100  1
  C  772  1  0.28340200  0.25221900  0.85741200  1
  C  773  1  0.28312500  0.22419900  0.85110200  1
  C  774  1  0.25498200  0.20847300  0.85161700  1
  C  783  1  0.19726400  0.20417800  0.86269000  1
  C  785  1  0.31247300  0.26594100  0.86120100  1
  C  787  1  0.78514600  0.75037800  0.85946300  1
  C  788  1  0.78397000  0.72208400  0.86494900  1
  C  789  1  0.75567200  0.70675300  0.86349200  1
  C  790  1  0.72654500  0.71869700  0.85634600  1
  C  791  1  0.72787000  0.74672800  0.85010400  1
  C  792  1  0.75605400  0.76218000  0.85197300  1
  C  801  1  0.81326000  0.76550000  0.86382000  1
  C  803  1  0.69701600  0.70488800  0.85694700  1
  C  805  1  0.22492100  0.74935300  0.62145700  1
  C  806  1  0.22636300  0.72130900  0.61512100  1
  C  807  1  0.25492000  0.70585900  0.61582500  1
  C  808  1  0.28388500  0.71747300  0.62308900  1
  C  809  1  0.28243200  0.74528200  0.62994500  1
  C  810  1  0.25381200  0.76076700  0.62924800  1
  C  819  1  0.19653600  0.76463500  0.61774800  1
  C  821  1  0.31346500  0.70405700  0.61961300  1
  C  823  1  0.78620200  0.21960900  0.62098800  1
  C  824  1  0.78427000  0.24759800  0.61451600  1
  C  825  1  0.75547900  0.26274800  0.61567300  1
  C  826  1  0.72675200  0.25082900  0.62347800  1
  C  827  1  0.72882100  0.22316000  0.63076000  1
  C  828  1  0.75751100  0.20786400  0.62918600  1
  C  837  1  0.81483700  0.20461900  0.61710300  1
  C  839  1  0.69692300  0.26439400  0.62278400  1
  C  841  1  0.78599400  0.74900500  0.12153600  1
  C  842  1  0.78422300  0.72124700  0.11429900  1
  C  843  1  0.75571900  0.70613400  0.11555200  1
  C  844  1  0.72697000  0.71774500  0.12427800  1
  C  845  1  0.72885400  0.74521600  0.13214800  1
  C  846  1  0.75724700  0.76049400  0.13048200  1
  C  855  1  0.81451900  0.76394200  0.11784500  1
  C  857  1  0.69729100  0.70418800  0.12379200  1
  C  859  1  0.22509700  0.21926800  0.12217100  1
  C  860  1  0.22636100  0.24707600  0.11501700  1
  C  861  1  0.25464500  0.26246900  0.11573200  1
  C  862  1  0.28365500  0.25116300  0.12387800  1
  C  863  1  0.28240600  0.22352900  0.13135200  1
  C  864  1  0.25405800  0.20809400  0.13063400  1
  C  873  1  0.19680500  0.20405200  0.11879000  1
  C  875  1  0.31320400  0.26442100  0.12054800  1
  C  877  1  0.78615400  0.21959600  0.35902400  1
  C  878  1  0.78317200  0.24717400  0.36661400  1
  C  879  1  0.75425900  0.26206100  0.36505600  1
  C  880  1  0.72645200  0.25026500  0.35573100  1
  C  881  1  0.72957200  0.22296600  0.34755700  1
  C  882  1  0.75836600  0.20792100  0.34949100  1
  C  891  1  0.81506300  0.20502200  0.36252500  1
  C  893  1  0.69643600  0.26356800  0.35576000  1
  C  895  1  0.22398000  0.74849900  0.35781000  1
  C  896  1  0.22611400  0.72133800  0.36657600  1
  C  897  1  0.25490900  0.70618700  0.36627200  1
  C  898  1  0.28341200  0.71722500  0.35701500  1
  C  899  1  0.28129500  0.74419300  0.34793900  1
  C  900  1  0.25242400  0.75937400  0.34822200  1
  C  909  1  0.19514000  0.76349500  0.36043400  1
  C  911  1  0.31327800  0.70434400  0.36029700  1
  C  913  1  0.98676900  0.14593400  0.71932600  1
  C  914  1  0.97612500  0.13340400  0.74087300  1
  C  915  1  0.99533900  0.13274800  0.76168300  1
  C  916  1  0.02594600  0.14436100  0.76145200  1
  C  917  1  0.03641100  0.15700800  0.73986400  1
  C  918  1  0.01711100  0.15781600  0.71912600  1
  C  927  1  0.96838600  0.14590600  0.69860300  1
  C  929  1  0.04554600  0.14350100  0.78167300  1
  C  931  1  0.02473200  0.82371600  0.71835600  1
  C  932  1  0.03533000  0.83597200  0.73988300  1
  C  933  1  0.01602400  0.83638900  0.76091300  1
  C  934  1  0.98540300  0.82481100  0.76089700  1
  C  935  1  0.97501600  0.81239100  0.73933900  1
  C  936  1  0.99440800  0.81181800  0.71837800  1
  C  945  1  0.04317000  0.82406100  0.69743600  1
  C  947  1  0.96566900  0.82562700  0.78129000  1
  C  949  1  0.02525400  0.82377200  0.26107000  1
  C  950  1  0.03551000  0.83658500  0.23954400  1
  C  951  1  0.01615700  0.83708800  0.21880500  1
  C  952  1  0.98579000  0.82502500  0.21907700  1
  C  953  1  0.97572900  0.81207500  0.24063100  1
  C  954  1  0.99516500  0.81143000  0.26129900  1
  C  963  1  0.04377800  0.82388800  0.28173200  1
  C  965  1  0.96608000  0.82565900  0.19891100  1
  C  967  1  0.98711200  0.14483000  0.26192500  1
  C  968  1  0.97699700  0.13161900  0.24070400  1
  C  969  1  0.99637200  0.13096700  0.21971500  1
  C  970  1  0.02660500  0.14326400  0.21945900  1
  C  971  1  0.03648200  0.15668400  0.24068400  1
  C  972  1  0.01701600  0.15748200  0.26160200  1
  C  981  1  0.96864500  0.14471700  0.28284800  1
  C  983  1  0.04636600  0.14235700  0.19907500  1
  C  985  1  0.48575800  0.64505000  0.71957500  1
  C  986  1  0.47508200  0.63269900  0.74119400  1
  C  987  1  0.49429200  0.63218200  0.76201100  1
  C  988  1  0.52491800  0.64375700  0.76171900  1
  C  989  1  0.53542700  0.65619400  0.74004400  1
  C  990  1  0.51613600  0.65686300  0.71929700  1
  C  999  1  0.46734100  0.64500000  0.69887300  1
  C  1001  1  0.54448000  0.64311000  0.78196800  1
  C  1003  1  0.52325800  0.32429200  0.71787500  1
  C  1004  1  0.53381600  0.33700800  0.73920400  1
  C  1005  1  0.51462600  0.33760100  0.76029300  1
  C  1006  1  0.48415400  0.32573800  0.76054200  1
  C  1007  1  0.47380700  0.31286100  0.73918400  1
  C  1008  1  0.49308800  0.31211200  0.71816700  1
  C  1017  1  0.54160500  0.32439700  0.69690100  1
  C  1019  1  0.46457900  0.32658300  0.78102900  1
  C  1021  1  0.52383200  0.32431300  0.26147600  1
  C  1022  1  0.53417300  0.33729300  0.24005400  1
  C  1023  1  0.51491100  0.33793900  0.21926800  1
  C  1024  1  0.48455600  0.32585500  0.21939400  1
  C  1025  1  0.47440400  0.31275200  0.24084800  1
  C  1026  1  0.49374700  0.31196500  0.26156400  1
  C  1035  1  0.54228000  0.32425200  0.28217200  1
  C  1037  1  0.46498900  0.32652200  0.19914900  1
  C  1039  1  0.48614200  0.64396700  0.26169000  1
  C  1040  1  0.47596100  0.63084800  0.24044400  1
  C  1041  1  0.49525700  0.63032600  0.21941200  1
  C  1042  1  0.52547000  0.64266300  0.21913800  1
  C  1043  1  0.53542100  0.65596700  0.24039900  1
  C  1044  1  0.51603400  0.65664000  0.26136000  1
  C  1053  1  0.46772700  0.64381900  0.28263200  1
  C  1055  1  0.54512900  0.64193600  0.19869400  1
  C  1057  1  0.38308200  0.13057200  0.86053100  1
  C  1058  1  0.37612800  0.13272000  0.88548000  1
  C  1059  1  0.39566800  0.14649500  0.90178700  1
  C  1060  1  0.42260500  0.16055100  0.89302500  1
  C  1061  1  0.42800800  0.16275800  0.86757700  1
  C  1062  1  0.40925600  0.14645700  0.85160200  1
  C  1065  1  0.36189800  0.11326900  0.84640900  1
  C  1066  1  0.35357300  0.08576800  0.85269300  1
  C  1067  1  0.32945200  0.07145400  0.83988500  1
  C  1068  1  0.31693000  0.08321700  0.81842100  1
  C  1069  1  0.32373000  0.11065100  0.81270000  1
  C  1070  1  0.34516200  0.12528200  0.82701800  1
  C  1087  1  0.14812600  0.83887800  0.86112000  1
  C  1088  1  0.15524000  0.83637400  0.88590600  1
  C  1089  1  0.13581400  0.82234200  0.90239700  1
  C  1090  1  0.10880600  0.80841700  0.89396800  1
  C  1091  1  0.10320500  0.80660700  0.86859800  1
  C  1092  1  0.12186300  0.82315400  0.85248700  1
  C  1095  1  0.16937200  0.85618100  0.84675500  1
  C  1096  1  0.17806400  0.88357900  0.85300400  1
  C  1097  1  0.20205100  0.89782600  0.83965000  1
  C  1098  1  0.21416800  0.88607500  0.81787600  1
  C  1099  1  0.20721300  0.85867200  0.81231600  1
  C  1100  1  0.18583000  0.84411900  0.82702200  1
  C  1117  1  0.38190300  0.83801400  0.61907700  1
  C  1118  1  0.37485400  0.83595900  0.59425200  1
  C  1119  1  0.39447200  0.82192300  0.57765700  1
  C  1120  1  0.42151900  0.80756000  0.58605900  1
  C  1121  1  0.42731400  0.80593900  0.61140500  1
  C  1122  1  0.40847100  0.82232400  0.62767500  1
  C  1125  1  0.36054200  0.85517000  0.63360400  1
  C  1126  1  0.35242100  0.88288200  0.62781400  1
  C  1127  1  0.32809700  0.89717200  0.64104400  1
  C  1128  1  0.31481400  0.88510400  0.66218300  1
  C  1129  1  0.32212400  0.85760500  0.66764400  1
  C  1130  1  0.34391300  0.84299600  0.65303200  1
  C  1147  1  0.15075400  0.13187200  0.62009600  1
  C  1148  1  0.15835200  0.13381400  0.59524400  1
  C  1149  1  0.13877800  0.14734600  0.57857300  1
  C  1150  1  0.11123200  0.16135100  0.58686900  1
  C  1151  1  0.10510900  0.16350400  0.61222000  1
  C  1152  1  0.12384800  0.14749100  0.62860400  1
  C  1155  1  0.17182600  0.11481900  0.63469800  1
  C  1156  1  0.18023800  0.08711300  0.62894100  1
  C  1157  1  0.20409500  0.07285800  0.64233200  1
  C  1158  1  0.21654000  0.08490800  0.66358700  1
  C  1159  1  0.20919500  0.11244600  0.66892000  1
  C  1160  1  0.18790900  0.12704400  0.65416300  1
  C  1177  1  0.14905500  0.83750200  0.11953500  1
  C  1178  1  0.15706000  0.83456000  0.09484500  1
  C  1179  1  0.13824300  0.82020600  0.07845100  1
  C  1180  1  0.11142700  0.80578800  0.08692400  1
  C  1181  1  0.10454600  0.80489500  0.11224400  1
  C  1182  1  0.12247800  0.82192100  0.12820200  1
  C  1185  1  0.16983000  0.85509400  0.13372100  1
  C  1186  1  0.17839300  0.88244200  0.12710600  1
  C  1187  1  0.20212100  0.89703900  0.14009600  1
  C  1188  1  0.21417700  0.88562400  0.16186300  1
  C  1189  1  0.20739000  0.85824000  0.16778400  1
  C  1190  1  0.18614100  0.84340400  0.15347200  1
  C  1207  1  0.38353300  0.12985600  0.11920800  1
  C  1208  1  0.37577300  0.13304400  0.09461100  1
  C  1209  1  0.39451100  0.14789800  0.07824500  1
  C  1210  1  0.42089800  0.16262300  0.08671200  1
  C  1211  1  0.42770400  0.16294200  0.11195500  1
  C  1212  1  0.40991600  0.14544100  0.12783000  1
  C  1215  1  0.36258000  0.11228000  0.13352900  1
  C  1216  1  0.35372500  0.08501100  0.12699900  1
  C  1217  1  0.33009300  0.07050200  0.14050500  1
  C  1218  1  0.31835700  0.08195700  0.16252500  1
  C  1219  1  0.32523300  0.10933400  0.16824000  1
  C  1220  1  0.34643800  0.12406800  0.15353500  1
  C  1237  1  0.15025700  0.13177000  0.36160400  1
  C  1238  1  0.15829800  0.13463300  0.38616000  1
  C  1239  1  0.13933300  0.14922300  0.40279600  1
  C  1240  1  0.11241900  0.16393100  0.39463400  1
  C  1241  1  0.10524800  0.16428400  0.36946100  1
  C  1242  1  0.12331200  0.14716800  0.35324900  1
  C  1245  1  0.17125700  0.11434100  0.34705000  1
  C  1246  1  0.17958600  0.08676000  0.35316900  1
  C  1247  1  0.20356700  0.07220400  0.33979300  1
  C  1248  1  0.21650500  0.08398000  0.31839500  1
  C  1249  1  0.20922100  0.11143600  0.31275400  1
  C  1250  1  0.18753800  0.12622400  0.32731300  1
  C  1267  1  0.38095800  0.83716800  0.36033600  1
  C  1268  1  0.37278900  0.83457900  0.38503000  1
  C  1269  1  0.39153700  0.81998400  0.40154100  1
  C  1270  1  0.41834900  0.80501500  0.39319200  1
  C  1271  1  0.42572300  0.80450700  0.36796100  1
  C  1272  1  0.40791400  0.82160200  0.35182600  1
  C  1275  1  0.36014100  0.85449400  0.34578300  1
  C  1276  1  0.35154400  0.88208200  0.35183000  1
  C  1277  1  0.32794300  0.89655200  0.33834400  1
  C  1278  1  0.31575400  0.88474600  0.31688500  1
  C  1279  1  0.32311500  0.85725900  0.31135700  1
  C  1280  1  0.34434800  0.84252800  0.32605400  1
  C  1297  1  0.88228900  0.63118200  0.86065300  1
  C  1298  1  0.87598900  0.63421800  0.88562300  1
  C  1299  1  0.89545500  0.64922500  0.90114400  1
  C  1300  1  0.92163900  0.66365700  0.89149200  1
  C  1301  1  0.92714900  0.66385100  0.86600900  1
  C  1302  1  0.90838200  0.64652600  0.85091900  1
  C  1305  1  0.86069500  0.61370100  0.84707700  1
  C  1306  1  0.85234000  0.58631300  0.85367500  1
  C  1307  1  0.82833100  0.57179000  0.84091500  1
  C  1308  1  0.81585200  0.58327000  0.81930800  1
  C  1309  1  0.82254800  0.61065900  0.81336700  1
  C  1310  1  0.84394700  0.62546400  0.82756300  1
  C  1327  1  0.64776700  0.33885100  0.86114900  1
  C  1328  1  0.65514100  0.33581000  0.88584300  1
  C  1329  1  0.63613500  0.32108300  0.90213800  1
  C  1330  1  0.60937800  0.30691400  0.89354600  1
  C  1331  1  0.60309900  0.30627200  0.86822700  1
  C  1332  1  0.62135500  0.32343400  0.85238500  1
  C  1335  1  0.66881600  0.35641300  0.84689800  1
  C  1336  1  0.67752100  0.38372200  0.85339700  1
  C  1337  1  0.70127300  0.39819600  0.83999900  1
  C  1338  1  0.71318700  0.38674600  0.81803100  1
  C  1339  1  0.70624800  0.35940200  0.81223500  1
  C  1340  1  0.68504000  0.34464100  0.82692200  1
  C  1357  1  0.88102100  0.33741000  0.61893100  1
  C  1358  1  0.87477500  0.33443200  0.59405500  1
  C  1359  1  0.89460400  0.31936500  0.57829600  1
  C  1360  1  0.92105400  0.30491400  0.58768000  1
  C  1361  1  0.92657900  0.30502500  0.61308000  1
  C  1362  1  0.90747900  0.32231200  0.62842000  1
  C  1365  1  0.85912600  0.35471600  0.63283400  1
  C  1366  1  0.85103300  0.38233300  0.62672900  1
  C  1367  1  0.82680200  0.39683900  0.63988300  1
  C  1368  1  0.81350000  0.38505000  0.66114900  1
  C  1369  1  0.82063200  0.35757800  0.66680900  1
  C  1370  1  0.84239400  0.34278300  0.65233800  1
  C  1387  1  0.65041300  0.63197700  0.62007100  1
  C  1388  1  0.65822300  0.63446400  0.59529600  1
  C  1389  1  0.63901700  0.64869200  0.57882000  1
  C  1390  1  0.61170000  0.66292000  0.58729600  1
  C  1391  1  0.60495800  0.66390800  0.61262100  1
  C  1392  1  0.62335100  0.64726600  0.62872800  1
  C  1395  1  0.67132100  0.61465600  0.63454300  1
  C  1396  1  0.67972900  0.58703300  0.62852100  1
  C  1397  1  0.70337800  0.57255200  0.64193200  1
  C  1398  1  0.71569100  0.58431100  0.66336700  1
  C  1399  1  0.70835200  0.61178600  0.66895800  1
  C  1400  1  0.68719600  0.62658900  0.65425100  1
  C  1417  1  0.64879400  0.33731000  0.11952400  1
  C  1418  1  0.65704800  0.33375000  0.09494400  1
  C  1419  1  0.63869300  0.31855700  0.07884400  1
  C  1420  1  0.61215100  0.30392400  0.08754600  1
  C  1421  1  0.60456900  0.30431400  0.11276500  1
  C  1422  1  0.62207800  0.32205100  0.12836800  1
  C  1425  1  0.66937500  0.35519000  0.13354900  1
  C  1426  1  0.67793700  0.38244200  0.12666600  1
  C  1427  1  0.70143000  0.39728100  0.13968500  1
  C  1428  1  0.71332800  0.38617100  0.16162900  1
  C  1429  1  0.70656100  0.35885400  0.16780000  1
  C  1430  1  0.68546800  0.34380500  0.15353700  1
  C  1447  1  0.88267600  0.63035800  0.11911700  1
  C  1448  1  0.87563500  0.63447600  0.09450100  1
  C  1449  1  0.89454100  0.65032800  0.07898100  1
  C  1450  1  0.92030900  0.66514900  0.08844300  1
  C  1451  1  0.92695100  0.66373300  0.11366100  1
  C  1452  1  0.90897600  0.64535100  0.12858600  1
  C  1455  1  0.86123200  0.61265200  0.13285900  1
  C  1456  1  0.85236100  0.58549900  0.12601500  1
  C  1457  1  0.82883300  0.57077900  0.13945200  1
  C  1458  1  0.81711300  0.58194400  0.16159800  1
  C  1459  1  0.82387500  0.60927400  0.16754100  1
  C  1460  1  0.84504400  0.62418900  0.15296400  1
  C  1477  1  0.64997000  0.63194500  0.36156000  1
  C  1478  1  0.65817300  0.63540300  0.38602100  1
  C  1479  1  0.63952600  0.65070900  0.40235400  1
  C  1480  1  0.61280700  0.66550600  0.39392900  1
  C  1481  1  0.60515500  0.66478400  0.36884600  1
  C  1482  1  0.62292400  0.64703300  0.35300200  1
  C  1485  1  0.67082900  0.61423200  0.34719400  1
  C  1486  1  0.67911000  0.58673300  0.35358600  1
  C  1487  1  0.70285900  0.57192200  0.34019700  1
  C  1488  1  0.71565900  0.58337600  0.31860800  1
  C  1489  1  0.70845900  0.61078300  0.31272100  1
  C  1490  1  0.68694400  0.62580100  0.32723200  1
  C  1507  1  0.88006000  0.33662200  0.36034200  1
  C  1508  1  0.87274400  0.33301900  0.38507500  1
  C  1509  1  0.89187500  0.31749200  0.40069000  1
  C  1510  1  0.91817100  0.30258300  0.39126300  1
  C  1511  1  0.92514800  0.30376100  0.36600700  1
  C  1512  1  0.90694100  0.32172600  0.35088500  1
  C  1515  1  0.85861900  0.35407500  0.34645700  1
  C  1516  1  0.85001800  0.38154800  0.35284800  1
  C  1517  1  0.82648900  0.39622800  0.33945800  1
  C  1518  1  0.81426600  0.38471900  0.31787800  1
  C  1519  1  0.82150000  0.35727500  0.31211400  1
  C  1520  1  0.84273200  0.34235700  0.32664900  1
  C  1537  1  0.37878300  0.13182900  0.01578100  1
  C  1538  1  0.39790200  0.11639800  0.99963200  1
  C  1539  1  0.39514200  0.11971700  0.97440300  1
  C  1540  1  0.37214100  0.13764300  0.96467300  1
  C  1541  1  0.35260100  0.15267600  0.98084100  1
  C  1542  1  0.35642800  0.15033500  0.00609700  1
  C  1551  1  0.38166400  0.12794100  0.04049300  1
  C  1553  1  0.36782600  0.13971000  0.93988300  1
  C  1555  1  0.15482800  0.83649100  0.01599400  1
  C  1556  1  0.13594100  0.85236400  0.00030100  1
  C  1557  1  0.13813900  0.84894100  0.97501900  1
  C  1558  1  0.16034800  0.83043000  0.96477000  1
  C  1559  1  0.17967500  0.81495000  0.98047900  1
  C  1560  1  0.17638000  0.81742500  0.00581600  1
  C  1569  1  0.15235900  0.84032100  0.04076100  1
  C  1571  1  0.16418200  0.82824400  0.93989100  1
  C  1573  1  0.37575200  0.83694800  0.46399400  1
  C  1574  1  0.39522000  0.85193800  0.47969500  1
  C  1575  1  0.39296900  0.84855400  0.50497800  1
  C  1576  1  0.37016000  0.83100600  0.51524000  1
  C  1577  1  0.35027100  0.81642500  0.49953500  1
  C  1578  1  0.35358600  0.81881300  0.47419600  1
  C  1587  1  0.37839600  0.84063800  0.43920900  1
  C  1589  1  0.36626900  0.82894600  0.54012500  1
  C  1591  1  0.15663200  0.13261000  0.46490900  1
  C  1592  1  0.13813700  0.11687400  0.48097800  1
  C  1593  1  0.14087600  0.12001900  0.50621500  1
  C  1594  1  0.16326700  0.13806400  0.51599400  1
  C  1595  1  0.18219500  0.15340800  0.49990200  1
  C  1596  1  0.17836000  0.15122900  0.47464500  1
  C  1605  1  0.15373000  0.12897100  0.44019700  1
  C  1607  1  0.16739500  0.14011900  0.54077900  1
  C  1609  1  0.88083400  0.63572900  0.01577400  1
  C  1610  1  0.90011000  0.62063000  0.99947100  1
  C  1611  1  0.89709300  0.62397200  0.97425500  1
  C  1612  1  0.87368100  0.64158200  0.96464200  1
  C  1613  1  0.85397500  0.65626700  0.98095800  1
  C  1614  1  0.85804300  0.65392100  0.00620400  1
  C  1623  1  0.88366700  0.63145000  0.04047300  1
  C  1625  1  0.86882800  0.64332200  0.93986500  1
  C  1627  1  0.65309500  0.33500600  0.01610700  1
  C  1628  1  0.63295900  0.34957900  0.00031900  1
  C  1629  1  0.63567500  0.34636800  0.97503800  1
  C  1630  1  0.65956900  0.32941600  0.96484500  1
  C  1631  1  0.68010200  0.31526100  0.98064300  1
  C  1632  1  0.67638800  0.31746200  0.00597800  1
  C  1641  1  0.65011800  0.33877200  0.04088400  1
  C  1643  1  0.66390900  0.32769200  0.93996000  1
  C  1645  1  0.87811900  0.33285000  0.46391500  1
  C  1646  1  0.89747500  0.34777200  0.47976000  1
  C  1647  1  0.89500400  0.34437200  0.50503900  1
  C  1648  1  0.87206300  0.32687800  0.51520100  1
  C  1649  1  0.85227000  0.31237700  0.49935400  1
  C  1650  1  0.85580700  0.31477300  0.47402100  1
  C  1659  1  0.88062900  0.33695900  0.43913700  1
  C  1661  1  0.86764100  0.32513100  0.54008700  1
  C  1663  1  0.65493300  0.63415300  0.46480900  1
  C  1664  1  0.63533000  0.61958000  0.48100400  1
  C  1665  1  0.63851100  0.62255500  0.50622900  1
  C  1666  1  0.66238100  0.63922200  0.51590900  1
  C  1667  1  0.68237800  0.65338900  0.49969700  1
  C  1668  1  0.67818400  0.65143600  0.47445000  1
  C  1677  1  0.65163900  0.63051900  0.44010000  1
  C  1679  1  0.66699300  0.64086100  0.54069100  1
  C  1681  1  0.28130900  0.01044100  0.85363400  1
  C  1682  1  0.25285100  0.00414800  0.86637500  1
  C  1683  1  0.23918600  0.97787700  0.86575100  1
  C  1684  1  0.25315100  0.95652300  0.85212700  1
  C  1685  1  0.28170100  0.96268600  0.83954200  1
  C  1686  1  0.29528700  0.98892400  0.84010800  1
  C  1695  1  0.29176200  0.03766800  0.85169300  1
  C  1697  1  0.24103900  0.92987100  0.85129100  1
  C  1699  1  0.28117500  0.95896600  0.62724100  1
  C  1700  1  0.25358300  0.96616200  0.61401300  1
  C  1701  1  0.24037100  0.99279400  0.61465300  1
  C  1702  1  0.25403300  0.01344800  0.62875900  1
  C  1703  1  0.28171700  0.00644000  0.64182200  1
  C  1704  1  0.29481200  0.97982500  0.64127300  1
  C  1713  1  0.29118800  0.93153700  0.62886900  1
  C  1715  1  0.24245900  0.04031800  0.62940100  1
  C  1717  1  0.25047700  0.95798200  0.12643800  1
  C  1718  1  0.27917300  0.96419400  0.11397400  1
  C  1719  1  0.29286600  0.99046100  0.11463100  1
  C  1720  1  0.27870200  0.01191500  0.12802000  1
  C  1721  1  0.24995300  0.00580800  0.14037000  1
  C  1722  1  0.23634500  0.97957800  0.13977100  1
  C  1731  1  0.24003400  0.93075100  0.12846300  1
  C  1733  1  0.29090600  0.03854600  0.12900900  1
  C  1735  1  0.25069300  0.01043900  0.35350100  1
  C  1736  1  0.27843100  0.00328200  0.36656500  1
  C  1737  1  0.29165400  0.97664900  0.36590600  1
  C  1738  1  0.27783900  0.95592700  0.35196000  1
  C  1739  1  0.25001200  0.96291000  0.33905400  1
  C  1740  1  0.23690500  0.98952700  0.33961800  1
  C  1749  1  0.24065000  0.03787100  0.35182800  1
  C  1751  1  0.28946300  0.92905200  0.35123300  1
  C  1753  1  0.78040200  0.51070200  0.85463900  1
  C  1754  1  0.75184200  0.50433400  0.86721000  1
  C  1755  1  0.73824000  0.47804300  0.86644700  1
  C  1756  1  0.75238000  0.45675300  0.85284600  1
  C  1757  1  0.78102100  0.46299700  0.84041900  1
  C  1758  1  0.79454800  0.48925200  0.84112800  1
  C  1767  1  0.79075100  0.53795800  0.85275500  1
  C  1769  1  0.74028200  0.43010900  0.85181200  1
  C  1771  1  0.78020100  0.45875400  0.62610700  1
  C  1772  1  0.75254500  0.46605800  0.61300500  1
  C  1773  1  0.73941600  0.49271400  0.61378500  1
  C  1774  1  0.75323200  0.51326900  0.62791500  1
  C  1775  1  0.78096800  0.50614800  0.64086400  1
  C  1776  1  0.79398500  0.47951200  0.64017400  1
  C  1785  1  0.79006800  0.43128900  0.62767200  1
  C  1787  1  0.74169700  0.54013900  0.62874300  1
  C  1789  1  0.74960100  0.45818300  0.12566100  1
  C  1790  1  0.77829300  0.46436400  0.11317900  1
  C  1791  1  0.79188300  0.49067200  0.11367500  1
  C  1792  1  0.77760600  0.51219500  0.12690500  1
  C  1793  1  0.74886900  0.50611400  0.13927900  1
  C  1794  1  0.73536300  0.47984300  0.13884100  1
  C  1803  1  0.73927600  0.43094500  0.12787500  1
  C  1805  1  0.78975800  0.53884100  0.12780900  1
  C  1807  1  0.74976500  0.51020500  0.35431400  1
  C  1808  1  0.77754500  0.50310700  0.36735000  1
  C  1809  1  0.79063500  0.47642400  0.36688300  1
  C  1810  1  0.77662200  0.45560300  0.35318000  1
  C  1811  1  0.74875500  0.46253100  0.34030000  1
  C  1812  1  0.73578200  0.48919300  0.34067100  1
  C  1821  1  0.73985900  0.53764300  0.35241800  1
  C  1823  1  0.78818200  0.42871500  0.35256400  1
  C  1825  1  0.48519600  0.21975300  0.85867000  1
  C  1826  1  0.48545800  0.24799200  0.86442000  1
  C  1827  1  0.51355000  0.26366800  0.86393100  1
  C  1828  1  0.54336400  0.25221900  0.85741200  1
  C  1829  1  0.54308700  0.22419900  0.85110200  1
  C  1830  1  0.51494400  0.20847300  0.85161700  1
  C  1839  1  0.45722600  0.20417800  0.86269000  1
  C  1841  1  0.57243500  0.26594100  0.86120100  1
  C  1843  1  0.04510850  0.75037800  0.85946300  1
  C  1844  1  0.04393250  0.72208400  0.86494900  1
  C  1845  1  0.01563450  0.70675300  0.86349200  1
  C  1846  1  0.98650700  0.71869700  0.85634600  1
  C  1847  1  0.98783200  0.74672800  0.85010400  1
  C  1848  1  0.01601650  0.76218000  0.85197300  1
  C  1857  1  0.07322250  0.76550000  0.86382000  1
  C  1859  1  0.95697800  0.70488800  0.85694700  1
  C  1861  1  0.48488300  0.74935300  0.62145700  1
  C  1862  1  0.48632500  0.72130900  0.61512100  1
  C  1863  1  0.51488200  0.70585900  0.61582500  1
  C  1864  1  0.54384700  0.71747300  0.62308900  1
  C  1865  1  0.54239400  0.74528200  0.62994500  1
  C  1866  1  0.51377400  0.76076700  0.62924800  1
  C  1875  1  0.45649800  0.76463500  0.61774800  1
  C  1877  1  0.57342700  0.70405700  0.61961300  1
  C  1879  1  0.04616450  0.21960900  0.62098800  1
  C  1880  1  0.04423250  0.24759800  0.61451600  1
  C  1881  1  0.01544150  0.26274800  0.61567300  1
  C  1882  1  0.98671400  0.25082900  0.62347800  1
  C  1883  1  0.98878300  0.22316000  0.63076000  1
  C  1884  1  0.01747350  0.20786400  0.62918600  1
  C  1893  1  0.07479950  0.20461900  0.61710300  1
  C  1895  1  0.95688500  0.26439400  0.62278400  1
  C  1897  1  0.04595650  0.74900500  0.12153600  1
  C  1898  1  0.04418550  0.72124700  0.11429900  1
  C  1899  1  0.01568150  0.70613400  0.11555200  1
  C  1900  1  0.98693200  0.71774500  0.12427800  1
  C  1901  1  0.98881600  0.74521600  0.13214800  1
  C  1902  1  0.01720950  0.76049400  0.13048200  1
  C  1911  1  0.07448150  0.76394200  0.11784500  1
  C  1913  1  0.95725300  0.70418800  0.12379200  1
  C  1915  1  0.48505900  0.21926800  0.12217100  1
  C  1916  1  0.48632300  0.24707600  0.11501700  1
  C  1917  1  0.51460700  0.26246900  0.11573200  1
  C  1918  1  0.54361700  0.25116300  0.12387800  1
  C  1919  1  0.54236800  0.22352900  0.13135200  1
  C  1920  1  0.51402000  0.20809400  0.13063400  1
  C  1929  1  0.45676700  0.20405200  0.11879000  1
  C  1931  1  0.57316600  0.26442100  0.12054800  1
  C  1933  1  0.04611650  0.21959600  0.35902400  1
  C  1934  1  0.04313450  0.24717400  0.36661400  1
  C  1935  1  0.01422150  0.26206100  0.36505600  1
  C  1936  1  0.98641400  0.25026500  0.35573100  1
  C  1937  1  0.98953400  0.22296600  0.34755700  1
  C  1938  1  0.01832850  0.20792100  0.34949100  1
  C  1947  1  0.07502550  0.20502200  0.36252500  1
  C  1949  1  0.95639800  0.26356800  0.35576000  1
  C  1951  1  0.48394200  0.74849900  0.35781000  1
  C  1952  1  0.48607600  0.72133800  0.36657600  1
  C  1953  1  0.51487100  0.70618700  0.36627200  1
  C  1954  1  0.54337400  0.71722500  0.35701500  1
  C  1955  1  0.54125700  0.74419300  0.34793900  1
  C  1956  1  0.51238600  0.75937400  0.34822200  1
  C  1965  1  0.45510200  0.76349500  0.36043400  1
  C  1967  1  0.57324000  0.70434400  0.36029700  1
  C  1969  1  0.24673100  0.14593400  0.71932600  1
  C  1970  1  0.23608700  0.13340400  0.74087300  1
  C  1971  1  0.25530100  0.13274800  0.76168300  1
  C  1972  1  0.28590800  0.14436100  0.76145200  1
  C  1973  1  0.29637300  0.15700800  0.73986400  1
  C  1974  1  0.27707300  0.15781600  0.71912600  1
  C  1983  1  0.22834800  0.14590600  0.69860300  1
  C  1985  1  0.30550800  0.14350100  0.78167300  1
  C  1987  1  0.28469400  0.82371600  0.71835600  1
  C  1988  1  0.29529200  0.83597200  0.73988300  1
  C  1989  1  0.27598600  0.83638900  0.76091300  1
  C  1990  1  0.24536500  0.82481100  0.76089700  1
  C  1991  1  0.23497800  0.81239100  0.73933900  1
  C  1992  1  0.25437000  0.81181800  0.71837800  1
  C  2001  1  0.30313200  0.82406100  0.69743600  1
  C  2003  1  0.22563100  0.82562700  0.78129000  1
  C  2005  1  0.28521600  0.82377200  0.26107000  1
  C  2006  1  0.29547200  0.83658500  0.23954400  1
  C  2007  1  0.27611900  0.83708800  0.21880500  1
  C  2008  1  0.24575200  0.82502500  0.21907700  1
  C  2009  1  0.23569100  0.81207500  0.24063100  1
  C  2010  1  0.25512700  0.81143000  0.26129900  1
  C  2019  1  0.30374000  0.82388800  0.28173200  1
  C  2021  1  0.22604200  0.82565900  0.19891100  1
  C  2023  1  0.24707400  0.14483000  0.26192500  1
  C  2024  1  0.23695900  0.13161900  0.24070400  1
  C  2025  1  0.25633400  0.13096700  0.21971500  1
  C  2026  1  0.28656700  0.14326400  0.21945900  1
  C  2027  1  0.29644400  0.15668400  0.24068400  1
  C  2028  1  0.27697800  0.15748200  0.26160200  1
  C  2037  1  0.22860700  0.14471700  0.28284800  1
  C  2039  1  0.30632800  0.14235700  0.19907500  1
  C  2041  1  0.74572000  0.64505000  0.71957500  1
  C  2042  1  0.73504400  0.63269900  0.74119400  1
  C  2043  1  0.75425400  0.63218200  0.76201100  1
  C  2044  1  0.78488000  0.64375700  0.76171900  1
  C  2045  1  0.79538900  0.65619400  0.74004400  1
  C  2046  1  0.77609800  0.65686300  0.71929700  1
  C  2055  1  0.72730300  0.64500000  0.69887300  1
  C  2057  1  0.80444200  0.64311000  0.78196800  1
  C  2059  1  0.78322000  0.32429200  0.71787500  1
  C  2060  1  0.79377800  0.33700800  0.73920400  1
  C  2061  1  0.77458800  0.33760100  0.76029300  1
  C  2062  1  0.74411600  0.32573800  0.76054200  1
  C  2063  1  0.73376900  0.31286100  0.73918400  1
  C  2064  1  0.75305000  0.31211200  0.71816700  1
  C  2073  1  0.80156700  0.32439700  0.69690100  1
  C  2075  1  0.72454100  0.32658300  0.78102900  1
  C  2077  1  0.78379400  0.32431300  0.26147600  1
  C  2078  1  0.79413500  0.33729300  0.24005400  1
  C  2079  1  0.77487300  0.33793900  0.21926800  1
  C  2080  1  0.74451800  0.32585500  0.21939400  1
  C  2081  1  0.73436600  0.31275200  0.24084800  1
  C  2082  1  0.75370900  0.31196500  0.26156400  1
  C  2091  1  0.80224200  0.32425200  0.28217200  1
  C  2093  1  0.72495100  0.32652200  0.19914900  1
  C  2095  1  0.74610400  0.64396700  0.26169000  1
  C  2096  1  0.73592300  0.63084800  0.24044400  1
  C  2097  1  0.75521900  0.63032600  0.21941200  1
  C  2098  1  0.78543200  0.64266300  0.21913800  1
  C  2099  1  0.79538300  0.65596700  0.24039900  1
  C  2100  1  0.77599600  0.65664000  0.26136000  1
  C  2109  1  0.72768900  0.64381900  0.28263200  1
  C  2111  1  0.80509100  0.64193600  0.19869400  1
  C  2113  1  0.64304500  0.13057200  0.86053100  1
  C  2114  1  0.63609100  0.13272000  0.88548000  1
  C  2115  1  0.65563100  0.14649500  0.90178700  1
  C  2116  1  0.68256800  0.16055100  0.89302500  1
  C  2117  1  0.68797100  0.16275800  0.86757700  1
  C  2118  1  0.66921900  0.14645700  0.85160200  1
  C  2121  1  0.62186100  0.11326900  0.84640900  1
  C  2122  1  0.61353600  0.08576800  0.85269300  1
  C  2123  1  0.58941500  0.07145400  0.83988500  1
  C  2124  1  0.57689300  0.08321700  0.81842100  1
  C  2125  1  0.58369300  0.11065100  0.81270000  1
  C  2126  1  0.60512500  0.12528200  0.82701800  1
  C  2143  1  0.40808900  0.83887800  0.86112000  1
  C  2144  1  0.41520300  0.83637400  0.88590600  1
  C  2145  1  0.39577700  0.82234200  0.90239700  1
  C  2146  1  0.36876900  0.80841700  0.89396800  1
  C  2147  1  0.36316800  0.80660700  0.86859800  1
  C  2148  1  0.38182600  0.82315400  0.85248700  1
  C  2151  1  0.42933500  0.85618100  0.84675500  1
  C  2152  1  0.43802700  0.88357900  0.85300400  1
  C  2153  1  0.46201400  0.89782600  0.83965000  1
  C  2154  1  0.47413100  0.88607500  0.81787600  1
  C  2155  1  0.46717600  0.85867200  0.81231600  1
  C  2156  1  0.44579300  0.84411900  0.82702200  1
  C  2173  1  0.64186600  0.83801400  0.61907700  1
  C  2174  1  0.63481700  0.83595900  0.59425200  1
  C  2175  1  0.65443500  0.82192300  0.57765700  1
  C  2176  1  0.68148200  0.80756000  0.58605900  1
  C  2177  1  0.68727700  0.80593900  0.61140500  1
  C  2178  1  0.66843400  0.82232400  0.62767500  1
  C  2181  1  0.62050500  0.85517000  0.63360400  1
  C  2182  1  0.61238400  0.88288200  0.62781400  1
  C  2183  1  0.58806000  0.89717200  0.64104400  1
  C  2184  1  0.57477700  0.88510400  0.66218300  1
  C  2185  1  0.58208700  0.85760500  0.66764400  1
  C  2186  1  0.60387600  0.84299600  0.65303200  1
  C  2203  1  0.41071700  0.13187200  0.62009600  1
  C  2204  1  0.41831500  0.13381400  0.59524400  1
  C  2205  1  0.39874100  0.14734600  0.57857300  1
  C  2206  1  0.37119500  0.16135100  0.58686900  1
  C  2207  1  0.36507200  0.16350400  0.61222000  1
  C  2208  1  0.38381100  0.14749100  0.62860400  1
  C  2211  1  0.43178900  0.11481900  0.63469800  1
  C  2212  1  0.44020100  0.08711300  0.62894100  1
  C  2213  1  0.46405800  0.07285800  0.64233200  1
  C  2214  1  0.47650300  0.08490800  0.66358700  1
  C  2215  1  0.46915800  0.11244600  0.66892000  1
  C  2216  1  0.44787200  0.12704400  0.65416300  1
  C  2233  1  0.40901800  0.83750200  0.11953500  1
  C  2234  1  0.41702300  0.83456000  0.09484500  1
  C  2235  1  0.39820600  0.82020600  0.07845100  1
  C  2236  1  0.37139000  0.80578800  0.08692400  1
  C  2237  1  0.36450900  0.80489500  0.11224400  1
  C  2238  1  0.38244100  0.82192100  0.12820200  1
  C  2241  1  0.42979300  0.85509400  0.13372100  1
  C  2242  1  0.43835600  0.88244200  0.12710600  1
  C  2243  1  0.46208400  0.89703900  0.14009600  1
  C  2244  1  0.47414000  0.88562400  0.16186300  1
  C  2245  1  0.46735300  0.85824000  0.16778400  1
  C  2246  1  0.44610400  0.84340400  0.15347200  1
  C  2263  1  0.64349600  0.12985600  0.11920800  1
  C  2264  1  0.63573600  0.13304400  0.09461100  1
  C  2265  1  0.65447400  0.14789800  0.07824500  1
  C  2266  1  0.68086100  0.16262300  0.08671200  1
  C  2267  1  0.68766700  0.16294200  0.11195500  1
  C  2268  1  0.66987900  0.14544100  0.12783000  1
  C  2271  1  0.62254300  0.11228000  0.13352900  1
  C  2272  1  0.61368800  0.08501100  0.12699900  1
  C  2273  1  0.59005600  0.07050200  0.14050500  1
  C  2274  1  0.57832000  0.08195700  0.16252500  1
  C  2275  1  0.58519600  0.10933400  0.16824000  1
  C  2276  1  0.60640100  0.12406800  0.15353500  1
  C  2293  1  0.41022000  0.13177000  0.36160400  1
  C  2294  1  0.41826100  0.13463300  0.38616000  1
  C  2295  1  0.39929600  0.14922300  0.40279600  1
  C  2296  1  0.37238200  0.16393100  0.39463400  1
  C  2297  1  0.36521100  0.16428400  0.36946100  1
  C  2298  1  0.38327500  0.14716800  0.35324900  1
  C  2301  1  0.43122000  0.11434100  0.34705000  1
  C  2302  1  0.43954900  0.08676000  0.35316900  1
  C  2303  1  0.46353000  0.07220400  0.33979300  1
  C  2304  1  0.47646800  0.08398000  0.31839500  1
  C  2305  1  0.46918400  0.11143600  0.31275400  1
  C  2306  1  0.44750100  0.12622400  0.32731300  1
  C  2323  1  0.64092100  0.83716800  0.36033600  1
  C  2324  1  0.63275200  0.83457900  0.38503000  1
  C  2325  1  0.65150000  0.81998400  0.40154100  1
  C  2326  1  0.67831200  0.80501500  0.39319200  1
  C  2327  1  0.68568600  0.80450700  0.36796100  1
  C  2328  1  0.66787700  0.82160200  0.35182600  1
  C  2331  1  0.62010400  0.85449400  0.34578300  1
  C  2332  1  0.61150700  0.88208200  0.35183000  1
  C  2333  1  0.58790600  0.89655200  0.33834400  1
  C  2334  1  0.57571700  0.88474600  0.31688500  1
  C  2335  1  0.58307800  0.85725900  0.31135700  1
  C  2336  1  0.60431100  0.84252800  0.32605400  1
  C  2353  1  0.14225200  0.63118200  0.86065300  1
  C  2354  1  0.13595200  0.63421800  0.88562300  1
  C  2355  1  0.15541800  0.64922500  0.90114400  1
  C  2356  1  0.18160200  0.66365700  0.89149200  1
  C  2357  1  0.18711200  0.66385100  0.86600900  1
  C  2358  1  0.16834500  0.64652600  0.85091900  1
  C  2361  1  0.12065800  0.61370100  0.84707700  1
  C  2362  1  0.11230300  0.58631300  0.85367500  1
  C  2363  1  0.08829390  0.57179000  0.84091500  1
  C  2364  1  0.07581490  0.58327000  0.81930800  1
  C  2365  1  0.08251090  0.61065900  0.81336700  1
  C  2366  1  0.10391000  0.62546400  0.82756300  1
  C  2383  1  0.90773000  0.33885100  0.86114900  1
  C  2384  1  0.91510400  0.33581000  0.88584300  1
  C  2385  1  0.89609800  0.32108300  0.90213800  1
  C  2386  1  0.86934100  0.30691400  0.89354600  1
  C  2387  1  0.86306200  0.30627200  0.86822700  1
  C  2388  1  0.88131800  0.32343400  0.85238500  1
  C  2391  1  0.92877900  0.35641300  0.84689800  1
  C  2392  1  0.93748400  0.38372200  0.85339700  1
  C  2393  1  0.96123600  0.39819600  0.83999900  1
  C  2394  1  0.97315000  0.38674600  0.81803100  1
  C  2395  1  0.96621100  0.35940200  0.81223500  1
  C  2396  1  0.94500300  0.34464100  0.82692200  1
  C  2413  1  0.14098400  0.33741000  0.61893100  1
  C  2414  1  0.13473800  0.33443200  0.59405500  1
  C  2415  1  0.15456700  0.31936500  0.57829600  1
  C  2416  1  0.18101700  0.30491400  0.58768000  1
  C  2417  1  0.18654200  0.30502500  0.61308000  1
  C  2418  1  0.16744200  0.32231200  0.62842000  1
  C  2421  1  0.11908900  0.35471600  0.63283400  1
  C  2422  1  0.11099600  0.38233300  0.62672900  1
  C  2423  1  0.08676490  0.39683900  0.63988300  1
  C  2424  1  0.07346290  0.38505000  0.66114900  1
  C  2425  1  0.08059490  0.35757800  0.66680900  1
  C  2426  1  0.10235700  0.34278300  0.65233800  1
  C  2443  1  0.91037600  0.63197700  0.62007100  1
  C  2444  1  0.91818600  0.63446400  0.59529600  1
  C  2445  1  0.89898000  0.64869200  0.57882000  1
  C  2446  1  0.87166300  0.66292000  0.58729600  1
  C  2447  1  0.86492100  0.66390800  0.61262100  1
  C  2448  1  0.88331400  0.64726600  0.62872800  1
  C  2451  1  0.93128400  0.61465600  0.63454300  1
  C  2452  1  0.93969200  0.58703300  0.62852100  1
  C  2453  1  0.96334100  0.57255200  0.64193200  1
  C  2454  1  0.97565400  0.58431100  0.66336700  1
  C  2455  1  0.96831500  0.61178600  0.66895800  1
  C  2456  1  0.94715900  0.62658900  0.65425100  1
  C  2473  1  0.90875700  0.33731000  0.11952400  1
  C  2474  1  0.91701100  0.33375000  0.09494400  1
  C  2475  1  0.89865600  0.31855700  0.07884400  1
  C  2476  1  0.87211400  0.30392400  0.08754600  1
  C  2477  1  0.86453200  0.30431400  0.11276500  1
  C  2478  1  0.88204100  0.32205100  0.12836800  1
  C  2481  1  0.92933800  0.35519000  0.13354900  1
  C  2482  1  0.93790000  0.38244200  0.12666600  1
  C  2483  1  0.96139300  0.39728100  0.13968500  1
  C  2484  1  0.97329100  0.38617100  0.16162900  1
  C  2485  1  0.96652400  0.35885400  0.16780000  1
  C  2486  1  0.94543100  0.34380500  0.15353700  1
  C  2503  1  0.14263900  0.63035800  0.11911700  1
  C  2504  1  0.13559800  0.63447600  0.09450100  1
  C  2505  1  0.15450400  0.65032800  0.07898100  1
  C  2506  1  0.18027200  0.66514900  0.08844300  1
  C  2507  1  0.18691400  0.66373300  0.11366100  1
  C  2508  1  0.16893900  0.64535100  0.12858600  1
  C  2511  1  0.12119500  0.61265200  0.13285900  1
  C  2512  1  0.11232400  0.58549900  0.12601500  1
  C  2513  1  0.08879590  0.57077900  0.13945200  1
  C  2514  1  0.07707590  0.58194400  0.16159800  1
  C  2515  1  0.08383790  0.60927400  0.16754100  1
  C  2516  1  0.10500700  0.62418900  0.15296400  1
  C  2533  1  0.90993300  0.63194500  0.36156000  1
  C  2534  1  0.91813600  0.63540300  0.38602100  1
  C  2535  1  0.89948900  0.65070900  0.40235400  1
  C  2536  1  0.87277000  0.66550600  0.39392900  1
  C  2537  1  0.86511800  0.66478400  0.36884600  1
  C  2538  1  0.88288700  0.64703300  0.35300200  1
  C  2541  1  0.93079200  0.61423200  0.34719400  1
  C  2542  1  0.93907300  0.58673300  0.35358600  1
  C  2543  1  0.96282200  0.57192200  0.34019700  1
  C  2544  1  0.97562200  0.58337600  0.31860800  1
  C  2545  1  0.96842200  0.61078300  0.31272100  1
  C  2546  1  0.94690700  0.62580100  0.32723200  1
  C  2563  1  0.14002300  0.33662200  0.36034200  1
  C  2564  1  0.13270700  0.33301900  0.38507500  1
  C  2565  1  0.15183800  0.31749200  0.40069000  1
  C  2566  1  0.17813400  0.30258300  0.39126300  1
  C  2567  1  0.18511100  0.30376100  0.36600700  1
  C  2568  1  0.16690400  0.32172600  0.35088500  1
  C  2571  1  0.11858200  0.35407500  0.34645700  1
  C  2572  1  0.10998100  0.38154800  0.35284800  1
  C  2573  1  0.08645190  0.39622800  0.33945800  1
  C  2574  1  0.07422890  0.38471900  0.31787800  1
  C  2575  1  0.08146290  0.35727500  0.31211400  1
  C  2576  1  0.10269500  0.34235700  0.32664900  1
  C  2593  1  0.63874600  0.13182900  0.01578100  1
  C  2594  1  0.65786500  0.11639800  0.99963200  1
  C  2595  1  0.65510500  0.11971700  0.97440300  1
  C  2596  1  0.63210400  0.13764300  0.96467300  1
  C  2597  1  0.61256400  0.15267600  0.98084100  1
  C  2598  1  0.61639100  0.15033500  0.00609700  1
  C  2607  1  0.64162700  0.12794100  0.04049300  1
  C  2609  1  0.62778900  0.13971000  0.93988300  1
  C  2611  1  0.41479100  0.83649100  0.01599400  1
  C  2612  1  0.39590400  0.85236400  0.00030100  1
  C  2613  1  0.39810200  0.84894100  0.97501900  1
  C  2614  1  0.42031100  0.83043000  0.96477000  1
  C  2615  1  0.43963800  0.81495000  0.98047900  1
  C  2616  1  0.43634300  0.81742500  0.00581600  1
  C  2625  1  0.41232200  0.84032100  0.04076100  1
  C  2627  1  0.42414500  0.82824400  0.93989100  1
  C  2629  1  0.63571500  0.83694800  0.46399400  1
  C  2630  1  0.65518300  0.85193800  0.47969500  1
  C  2631  1  0.65293200  0.84855400  0.50497800  1
  C  2632  1  0.63012300  0.83100600  0.51524000  1
  C  2633  1  0.61023400  0.81642500  0.49953500  1
  C  2634  1  0.61354900  0.81881300  0.47419600  1
  C  2643  1  0.63835900  0.84063800  0.43920900  1
  C  2645  1  0.62623200  0.82894600  0.54012500  1
  C  2647  1  0.41659500  0.13261000  0.46490900  1
  C  2648  1  0.39810000  0.11687400  0.48097800  1
  C  2649  1  0.40083900  0.12001900  0.50621500  1
  C  2650  1  0.42323000  0.13806400  0.51599400  1
  C  2651  1  0.44215800  0.15340800  0.49990200  1
  C  2652  1  0.43832300  0.15122900  0.47464500  1
  C  2661  1  0.41369300  0.12897100  0.44019700  1
  C  2663  1  0.42735800  0.14011900  0.54077900  1
  C  2665  1  0.14079700  0.63572900  0.01577400  1
  C  2666  1  0.16007300  0.62063000  0.99947100  1
  C  2667  1  0.15705600  0.62397200  0.97425500  1
  C  2668  1  0.13364400  0.64158200  0.96464200  1
  C  2669  1  0.11393800  0.65626700  0.98095800  1
  C  2670  1  0.11800600  0.65392100  0.00620400  1
  C  2679  1  0.14363000  0.63145000  0.04047300  1
  C  2681  1  0.12879100  0.64332200  0.93986500  1
  C  2683  1  0.91305800  0.33500600  0.01610700  1
  C  2684  1  0.89292200  0.34957900  0.00031900  1
  C  2685  1  0.89563800  0.34636800  0.97503800  1
  C  2686  1  0.91953200  0.32941600  0.96484500  1
  C  2687  1  0.94006500  0.31526100  0.98064300  1
  C  2688  1  0.93635100  0.31746200  0.00597800  1
  C  2697  1  0.91008100  0.33877200  0.04088400  1
  C  2699  1  0.92387200  0.32769200  0.93996000  1
  C  2701  1  0.13808200  0.33285000  0.46391500  1
  C  2702  1  0.15743800  0.34777200  0.47976000  1
  C  2703  1  0.15496700  0.34437200  0.50503900  1
  C  2704  1  0.13202600  0.32687800  0.51520100  1
  C  2705  1  0.11223300  0.31237700  0.49935400  1
  C  2706  1  0.11577000  0.31477300  0.47402100  1
  C  2715  1  0.14059200  0.33695900  0.43913700  1
  C  2717  1  0.12760400  0.32513100  0.54008700  1
  C  2719  1  0.91489600  0.63415300  0.46480900  1
  C  2720  1  0.89529300  0.61958000  0.48100400  1
  C  2721  1  0.89847400  0.62255500  0.50622900  1
  C  2722  1  0.92234400  0.63922200  0.51590900  1
  C  2723  1  0.94234100  0.65338900  0.49969700  1
  C  2724  1  0.93814700  0.65143600  0.47445000  1
  C  2733  1  0.91160200  0.63051900  0.44010000  1
  C  2735  1  0.92695600  0.64086100  0.54069100  1
  C  2737  1  0.54127200  0.01044100  0.85363400  1
  C  2738  1  0.51281400  0.00414800  0.86637500  1
  C  2739  1  0.49914900  0.97787700  0.86575100  1
  C  2740  1  0.51311400  0.95652300  0.85212700  1
  C  2741  1  0.54166400  0.96268600  0.83954200  1
  C  2742  1  0.55525000  0.98892400  0.84010800  1
  C  2751  1  0.55172500  0.03766800  0.85169300  1
  C  2753  1  0.50100200  0.92987100  0.85129100  1
  C  2755  1  0.54113800  0.95896600  0.62724100  1
  C  2756  1  0.51354600  0.96616200  0.61401300  1
  C  2757  1  0.50033400  0.99279400  0.61465300  1
  C  2758  1  0.51399600  0.01344800  0.62875900  1
  C  2759  1  0.54168000  0.00644000  0.64182200  1
  C  2760  1  0.55477500  0.97982500  0.64127300  1
  C  2769  1  0.55115100  0.93153700  0.62886900  1
  C  2771  1  0.50242200  0.04031800  0.62940100  1
  C  2773  1  0.51044000  0.95798200  0.12643800  1
  C  2774  1  0.53913600  0.96419400  0.11397400  1
  C  2775  1  0.55282900  0.99046100  0.11463100  1
  C  2776  1  0.53866500  0.01191500  0.12802000  1
  C  2777  1  0.50991600  0.00580800  0.14037000  1
  C  2778  1  0.49630800  0.97957800  0.13977100  1
  C  2787  1  0.49999700  0.93075100  0.12846300  1
  C  2789  1  0.55086900  0.03854600  0.12900900  1
  C  2791  1  0.51065600  0.01043900  0.35350100  1
  C  2792  1  0.53839400  0.00328200  0.36656500  1
  C  2793  1  0.55161700  0.97664900  0.36590600  1
  C  2794  1  0.53780200  0.95592700  0.35196000  1
  C  2795  1  0.50997500  0.96291000  0.33905400  1
  C  2796  1  0.49686800  0.98952700  0.33961800  1
  C  2805  1  0.50061300  0.03787100  0.35182800  1
  C  2807  1  0.54942600  0.92905200  0.35123300  1
  C  2809  1  0.04036490  0.51070200  0.85463900  1
  C  2810  1  0.01180490  0.50433400  0.86721000  1
  C  2811  1  0.99820300  0.47804300  0.86644700  1
  C  2812  1  0.01234290  0.45675300  0.85284600  1
  C  2813  1  0.04098390  0.46299700  0.84041900  1
  C  2814  1  0.05451090  0.48925200  0.84112800  1
  C  2823  1  0.05071390  0.53795800  0.85275500  1
  C  2825  1  0.00024494  0.43010900  0.85181200  1
  C  2827  1  0.04016390  0.45875400  0.62610700  1
  C  2828  1  0.01250790  0.46605800  0.61300500  1
  C  2829  1  0.99937900  0.49271400  0.61378500  1
  C  2830  1  0.01319490  0.51326900  0.62791500  1
  C  2831  1  0.04093090  0.50614800  0.64086400  1
  C  2832  1  0.05394790  0.47951200  0.64017400  1
  C  2841  1  0.05003090  0.43128900  0.62767200  1
  C  2843  1  0.00165994  0.54013900  0.62874300  1
  C  2845  1  0.00956394  0.45818300  0.12566100  1
  C  2846  1  0.03825590  0.46436400  0.11317900  1
  C  2847  1  0.05184590  0.49067200  0.11367500  1
  C  2848  1  0.03756890  0.51219500  0.12690500  1
  C  2849  1  0.00883194  0.50611400  0.13927900  1
  C  2850  1  0.99532600  0.47984300  0.13884100  1
  C  2859  1  0.99923900  0.43094500  0.12787500  1
  C  2861  1  0.04972090  0.53884100  0.12780900  1
  C  2863  1  0.00972794  0.51020500  0.35431400  1
  C  2864  1  0.03750790  0.50310700  0.36735000  1
  C  2865  1  0.05059790  0.47642400  0.36688300  1
  C  2866  1  0.03658490  0.45560300  0.35318000  1
  C  2867  1  0.00871794  0.46253100  0.34030000  1
  C  2868  1  0.99574500  0.48919300  0.34067100  1
  C  2877  1  0.99982200  0.53764300  0.35241800  1
  C  2879  1  0.04814490  0.42871500  0.35256400  1
  C  2881  1  0.74515900  0.21975300  0.85867000  1
  C  2882  1  0.74542100  0.24799200  0.86442000  1
  C  2883  1  0.77351300  0.26366800  0.86393100  1
  C  2884  1  0.80332700  0.25221900  0.85741200  1
  C  2885  1  0.80305000  0.22419900  0.85110200  1
  C  2886  1  0.77490700  0.20847300  0.85161700  1
  C  2895  1  0.71718900  0.20417800  0.86269000  1
  C  2897  1  0.83239800  0.26594100  0.86120100  1
  C  2899  1  0.30507100  0.75037800  0.85946300  1
  C  2900  1  0.30389500  0.72208400  0.86494900  1
  C  2901  1  0.27559700  0.70675300  0.86349200  1
  C  2902  1  0.24647000  0.71869700  0.85634600  1
  C  2903  1  0.24779500  0.74672800  0.85010400  1
  C  2904  1  0.27597900  0.76218000  0.85197300  1
  C  2913  1  0.33318500  0.76550000  0.86382000  1
  C  2915  1  0.21694100  0.70488800  0.85694700  1
  C  2917  1  0.74484600  0.74935300  0.62145700  1
  C  2918  1  0.74628800  0.72130900  0.61512100  1
  C  2919  1  0.77484500  0.70585900  0.61582500  1
  C  2920  1  0.80381000  0.71747300  0.62308900  1
  C  2921  1  0.80235700  0.74528200  0.62994500  1
  C  2922  1  0.77373700  0.76076700  0.62924800  1
  C  2931  1  0.71646100  0.76463500  0.61774800  1
  C  2933  1  0.83339000  0.70405700  0.61961300  1
  C  2935  1  0.30612700  0.21960900  0.62098800  1
  C  2936  1  0.30419500  0.24759800  0.61451600  1
  C  2937  1  0.27540400  0.26274800  0.61567300  1
  C  2938  1  0.24667700  0.25082900  0.62347800  1
  C  2939  1  0.24874600  0.22316000  0.63076000  1
  C  2940  1  0.27743600  0.20786400  0.62918600  1
  C  2949  1  0.33476200  0.20461900  0.61710300  1
  C  2951  1  0.21684800  0.26439400  0.62278400  1
  C  2953  1  0.30591900  0.74900500  0.12153600  1
  C  2954  1  0.30414800  0.72124700  0.11429900  1
  C  2955  1  0.27564400  0.70613400  0.11555200  1
  C  2956  1  0.24689500  0.71774500  0.12427800  1
  C  2957  1  0.24877900  0.74521600  0.13214800  1
  C  2958  1  0.27717200  0.76049400  0.13048200  1
  C  2967  1  0.33444400  0.76394200  0.11784500  1
  C  2969  1  0.21721600  0.70418800  0.12379200  1
  C  2971  1  0.74502200  0.21926800  0.12217100  1
  C  2972  1  0.74628600  0.24707600  0.11501700  1
  C  2973  1  0.77457000  0.26246900  0.11573200  1
  C  2974  1  0.80358000  0.25116300  0.12387800  1
  C  2975  1  0.80233100  0.22352900  0.13135200  1
  C  2976  1  0.77398300  0.20809400  0.13063400  1
  C  2985  1  0.71673000  0.20405200  0.11879000  1
  C  2987  1  0.83312900  0.26442100  0.12054800  1
  C  2989  1  0.30607900  0.21959600  0.35902400  1
  C  2990  1  0.30309700  0.24717400  0.36661400  1
  C  2991  1  0.27418400  0.26206100  0.36505600  1
  C  2992  1  0.24637700  0.25026500  0.35573100  1
  C  2993  1  0.24949700  0.22296600  0.34755700  1
  C  2994  1  0.27829100  0.20792100  0.34949100  1
  C  3003  1  0.33498800  0.20502200  0.36252500  1
  C  3005  1  0.21636100  0.26356800  0.35576000  1
  C  3007  1  0.74390500  0.74849900  0.35781000  1
  C  3008  1  0.74603900  0.72133800  0.36657600  1
  C  3009  1  0.77483400  0.70618700  0.36627200  1
  C  3010  1  0.80333700  0.71722500  0.35701500  1
  C  3011  1  0.80122000  0.74419300  0.34793900  1
  C  3012  1  0.77234900  0.75937400  0.34822200  1
  C  3021  1  0.71506500  0.76349500  0.36043400  1
  C  3023  1  0.83320300  0.70434400  0.36029700  1
  C  3025  1  0.50669400  0.14593400  0.71932600  1
  C  3026  1  0.49605000  0.13340400  0.74087300  1
  C  3027  1  0.51526400  0.13274800  0.76168300  1
  C  3028  1  0.54587100  0.14436100  0.76145200  1
  C  3029  1  0.55633600  0.15700800  0.73986400  1
  C  3030  1  0.53703600  0.15781600  0.71912600  1
  C  3039  1  0.48831100  0.14590600  0.69860300  1
  C  3041  1  0.56547100  0.14350100  0.78167300  1
  C  3043  1  0.54465700  0.82371600  0.71835600  1
  C  3044  1  0.55525500  0.83597200  0.73988300  1
  C  3045  1  0.53594900  0.83638900  0.76091300  1
  C  3046  1  0.50532800  0.82481100  0.76089700  1
  C  3047  1  0.49494100  0.81239100  0.73933900  1
  C  3048  1  0.51433300  0.81181800  0.71837800  1
  C  3057  1  0.56309500  0.82406100  0.69743600  1
  C  3059  1  0.48559400  0.82562700  0.78129000  1
  C  3061  1  0.54517900  0.82377200  0.26107000  1
  C  3062  1  0.55543500  0.83658500  0.23954400  1
  C  3063  1  0.53608200  0.83708800  0.21880500  1
  C  3064  1  0.50571500  0.82502500  0.21907700  1
  C  3065  1  0.49565400  0.81207500  0.24063100  1
  C  3066  1  0.51509000  0.81143000  0.26129900  1
  C  3075  1  0.56370300  0.82388800  0.28173200  1
  C  3077  1  0.48600500  0.82565900  0.19891100  1
  C  3079  1  0.50703700  0.14483000  0.26192500  1
  C  3080  1  0.49692200  0.13161900  0.24070400  1
  C  3081  1  0.51629700  0.13096700  0.21971500  1
  C  3082  1  0.54653000  0.14326400  0.21945900  1
  C  3083  1  0.55640700  0.15668400  0.24068400  1
  C  3084  1  0.53694100  0.15748200  0.26160200  1
  C  3093  1  0.48857000  0.14471700  0.28284800  1
  C  3095  1  0.56629100  0.14235700  0.19907500  1
  C  3097  1  0.00568294  0.64505000  0.71957500  1
  C  3098  1  0.99500700  0.63269900  0.74119400  1
  C  3099  1  0.01421690  0.63218200  0.76201100  1
  C  3100  1  0.04484290  0.64375700  0.76171900  1
  C  3101  1  0.05535190  0.65619400  0.74004400  1
  C  3102  1  0.03606090  0.65686300  0.71929700  1
  C  3111  1  0.98726600  0.64500000  0.69887300  1
  C  3113  1  0.06440490  0.64311000  0.78196800  1
  C  3115  1  0.04318290  0.32429200  0.71787500  1
  C  3116  1  0.05374090  0.33700800  0.73920400  1
  C  3117  1  0.03455090  0.33760100  0.76029300  1
  C  3118  1  0.00407894  0.32573800  0.76054200  1
  C  3119  1  0.99373200  0.31286100  0.73918400  1
  C  3120  1  0.01301290  0.31211200  0.71816700  1
  C  3129  1  0.06152990  0.32439700  0.69690100  1
  C  3131  1  0.98450400  0.32658300  0.78102900  1
  C  3133  1  0.04375690  0.32431300  0.26147600  1
  C  3134  1  0.05409790  0.33729300  0.24005400  1
  C  3135  1  0.03483590  0.33793900  0.21926800  1
  C  3136  1  0.00448094  0.32585500  0.21939400  1
  C  3137  1  0.99432900  0.31275200  0.24084800  1
  C  3138  1  0.01367190  0.31196500  0.26156400  1
  C  3147  1  0.06220490  0.32425200  0.28217200  1
  C  3149  1  0.98491400  0.32652200  0.19914900  1
  C  3151  1  0.00606694  0.64396700  0.26169000  1
  C  3152  1  0.99588600  0.63084800  0.24044400  1
  C  3153  1  0.01518190  0.63032600  0.21941200  1
  C  3154  1  0.04539490  0.64266300  0.21913800  1
  C  3155  1  0.05534590  0.65596700  0.24039900  1
  C  3156  1  0.03595890  0.65664000  0.26136000  1
  C  3165  1  0.98765200  0.64381900  0.28263200  1
  C  3167  1  0.06505390  0.64193600  0.19869400  1
  N  8  1  0.18337400  0.17125900  0.90919500  1
  N  15  1  0.03921200  0.06811500  0.80294600  1
  N  17  1  0.15751400  0.14545600  0.82780900  1
  N  18  1  0.10936900  0.07234100  0.87049100  1
  N  27  1  0.04882600  0.12152300  0.79383000  1
  N  28  1  0.06001900  0.04589600  0.84596900  1
  N  29  1  0.19300300  0.17826000  0.85984300  1
  N  30  1  0.13142100  0.14386700  0.92560200  1
  N  38  1  0.82823200  0.79750600  0.91040500  1
  N  45  1  0.97185500  0.90114000  0.80204600  1
  N  47  1  0.85353900  0.82454100  0.82885100  1
  N  48  1  0.90289500  0.89698700  0.87129200  1
  N  57  1  0.96220800  0.84769200  0.79332500  1
  N  58  1  0.95244700  0.92313000  0.84564400  1
  N  59  1  0.81818400  0.79134600  0.86102000  1
  N  60  1  0.88030600  0.82474800  0.92614900  1
  N  68  1  0.18195400  0.79593600  0.56965900  1
  N  75  1  0.03567200  0.89985300  0.67745200  1
  N  77  1  0.15692500  0.82356900  0.65130500  1
  N  78  1  0.10843000  0.89635400  0.61008200  1
  N  87  1  0.04828400  0.84685300  0.68707300  1
  N  88  1  0.05896600  0.92288400  0.63534000  1
  N  89  1  0.19268700  0.79077300  0.61882100  1
  N  90  1  0.13007500  0.82449200  0.55390100  1
  N  98  1  0.83070700  0.17207900  0.57039100  1
  N  105  1  0.97516200  0.07009200  0.67897000  1
  N  107  1  0.85500700  0.14649800  0.65226600  1
  N  108  1  0.90504000  0.07354700  0.61111900  1
  N  117  1  0.96292100  0.12323500  0.68821700  1
  N  118  1  0.95430100  0.04738400  0.63652400  1
  N  119  1  0.81959100  0.17869200  0.61958000  1
  N  120  1  0.88363700  0.14455700  0.55484800  1
  N  128  1  0.83199400  0.79393800  0.07047100  1
  N  135  1  0.97154600  0.90099000  0.17741400  1
  N  137  1  0.85330000  0.82379300  0.15174500  1
  N  138  1  0.90330400  0.89542800  0.10874600  1
  N  147  1  0.96241500  0.84757500  0.18672400  1
  N  148  1  0.95173200  0.92253200  0.13384700  1
  N  149  1  0.81902700  0.78994300  0.11969900  1
  N  150  1  0.88492200  0.82062100  0.05481000  1
  N  158  1  0.18005300  0.17539400  0.07029900  1
  N  165  1  0.04114400  0.06665100  0.17842400  1
  N  167  1  0.15910300  0.14316300  0.15123300  1
  N  168  1  0.10845800  0.07199400  0.10825900  1
  N  177  1  0.05020900  0.12018300  0.18725300  1
  N  178  1  0.05968600  0.04525400  0.13438400  1
  N  179  1  0.19312900  0.17788200  0.11934400  1
  N  180  1  0.12806500  0.14775400  0.05465500  1
  N  188  1  0.83324200  0.17664200  0.41122000  1
  N  195  1  0.97540200  0.06900300  0.30306800  1
  N  197  1  0.85402300  0.14506600  0.32988200  1
  N  198  1  0.90420300  0.07369400  0.37141900  1
  N  207  1  0.96322700  0.12202100  0.29329100  1
  N  208  1  0.95282800  0.04652600  0.34563500  1
  N  209  1  0.81939300  0.17890600  0.36230000  1
  N  210  1  0.88609700  0.14882200  0.42633000  1
  N  218  1  0.17727400  0.79212200  0.40963500  1
  N  225  1  0.03739600  0.89973500  0.30150000  1
  N  227  1  0.15761500  0.82352100  0.32839300  1
  N  228  1  0.10638500  0.89530700  0.37006300  1
  N  237  1  0.04939300  0.84659100  0.29202300  1
  N  238  1  0.05777400  0.92199500  0.34427000  1
  N  239  1  0.19169100  0.78968800  0.36085400  1
  N  240  1  0.12482300  0.82055500  0.42515300  1
  N  248  1  0.68157500  0.67667400  0.90686600  1
  N  255  1  0.53829000  0.56795300  0.80389400  1
  N  257  1  0.65641700  0.64403000  0.82714400  1
  N  258  1  0.60802700  0.57318200  0.87169100  1
  N  267  1  0.54769300  0.62128900  0.79436200  1
  N  268  1  0.55901100  0.54624500  0.84711900  1
  N  269  1  0.69204600  0.67837800  0.85692200  1
  N  270  1  0.63199400  0.64731100  0.92511600  1
  N  278  1  0.32968400  0.29463900  0.90983900  1
  N  285  1  0.47067600  0.40204000  0.80225400  1
  N  287  1  0.35253900  0.32569200  0.82890400  1
  N  288  1  0.40258800  0.39681600  0.87197100  1
  N  297  1  0.46114600  0.34863800  0.79309100  1
  N  298  1  0.45166900  0.42343100  0.84617900  1
  N  299  1  0.31741700  0.29193700  0.86067600  1
  N  300  1  0.38055300  0.32317800  0.92593800  1
  N  308  1  0.68118700  0.29157200  0.57215800  1
  N  315  1  0.53452900  0.40003300  0.67636500  1
  N  317  1  0.65545600  0.32500500  0.65207500  1
  N  318  1  0.60701000  0.39552200  0.60881600  1
  N  327  1  0.54680200  0.34707100  0.68635300  1
  N  328  1  0.55784100  0.42255200  0.63406300  1
  N  329  1  0.69176400  0.29082900  0.62197600  1
  N  330  1  0.63107100  0.32118400  0.55436500  1
  N  338  1  0.33197500  0.67493900  0.57093800  1
  N  345  1  0.47419500  0.56928100  0.67866700  1
  N  347  1  0.35407900  0.64536400  0.65225400  1
  N  348  1  0.40472600  0.57377400  0.61042100  1
  N  357  1  0.46204100  0.62235500  0.68838200  1
  N  358  1  0.45355100  0.54713800  0.63592900  1
  N  359  1  0.31875400  0.67807400  0.62002200  1
  N  360  1  0.38376200  0.64618300  0.55503900  1
  N  368  1  0.33366300  0.29064500  0.07132300  1
  N  375  1  0.47054200  0.40175900  0.17710600  1
  N  377  1  0.35240600  0.32491100  0.15172500  1
  N  378  1  0.40306800  0.39508400  0.10801900  1
  N  387  1  0.46147600  0.34841000  0.18689400  1
  N  388  1  0.45098000  0.42272000  0.13324500  1
  N  389  1  0.31836900  0.29038900  0.12024900  1
  N  390  1  0.38544000  0.31866600  0.05519800  1
  N  398  1  0.67905200  0.67967100  0.07300600  1
  N  405  1  0.54003000  0.56641800  0.17741000  1
  N  407  1  0.65777900  0.64164300  0.15196100  1
  N  408  1  0.60700500  0.57278900  0.10707800  1
  N  417  1  0.54891400  0.61987800  0.18669200  1
  N  418  1  0.55852500  0.54555000  0.13320900  1
  N  419  1  0.69215400  0.67774900  0.12253500  1
  N  420  1  0.62874200  0.65101900  0.05525500  1
  N  428  1  0.33427900  0.67929800  0.41025100  1
  N  435  1  0.47436000  0.56815100  0.30334100  1
  N  437  1  0.35328500  0.64401700  0.32979700  1
  N  438  1  0.40389800  0.57400600  0.37210800  1
  N  447  1  0.46241300  0.62113300  0.29312900  1
  N  448  1  0.45203500  0.54629900  0.34625000  1
  N  449  1  0.31869800  0.67842500  0.36159500  1
  N  450  1  0.38630200  0.65064100  0.42590500  1
  N  458  1  0.67702100  0.28820800  0.40672100  1
  N  465  1  0.53600700  0.39992900  0.30259200  1
  N  467  1  0.65605700  0.32514700  0.32742800  1
  N  468  1  0.60481200  0.39447200  0.37126600  1
  N  477  1  0.54782300  0.34686000  0.29264900  1
  N  478  1  0.55645100  0.42165400  0.34551200  1
  N  479  1  0.69087100  0.28992600  0.35717200  1
  N  480  1  0.62592800  0.31718300  0.42446100  1
  N  1064  1  0.44333600  0.17125900  0.90919500  1
  N  1071  1  0.29917400  0.06811500  0.80294600  1
  N  1073  1  0.41747600  0.14545600  0.82780900  1
  N  1074  1  0.36933100  0.07234100  0.87049100  1
  N  1083  1  0.30878800  0.12152300  0.79383000  1
  N  1084  1  0.31998100  0.04589600  0.84596900  1
  N  1085  1  0.45296500  0.17826000  0.85984300  1
  N  1086  1  0.39138300  0.14386700  0.92560200  1
  N  1094  1  0.08819450  0.79750600  0.91040500  1
  N  1101  1  0.23181700  0.90114000  0.80204600  1
  N  1103  1  0.11350100  0.82454100  0.82885100  1
  N  1104  1  0.16285700  0.89698700  0.87129200  1
  N  1113  1  0.22217000  0.84769200  0.79332500  1
  N  1114  1  0.21240900  0.92313000  0.84564400  1
  N  1115  1  0.07814650  0.79134600  0.86102000  1
  N  1116  1  0.14026800  0.82474800  0.92614900  1
  N  1124  1  0.44191600  0.79593600  0.56965900  1
  N  1131  1  0.29563400  0.89985300  0.67745200  1
  N  1133  1  0.41688700  0.82356900  0.65130500  1
  N  1134  1  0.36839200  0.89635400  0.61008200  1
  N  1143  1  0.30824600  0.84685300  0.68707300  1
  N  1144  1  0.31892800  0.92288400  0.63534000  1
  N  1145  1  0.45264900  0.79077300  0.61882100  1
  N  1146  1  0.39003700  0.82449200  0.55390100  1
  N  1154  1  0.09066950  0.17207900  0.57039100  1
  N  1161  1  0.23512400  0.07009200  0.67897000  1
  N  1163  1  0.11496900  0.14649800  0.65226600  1
  N  1164  1  0.16500200  0.07354700  0.61111900  1
  N  1173  1  0.22288300  0.12323500  0.68821700  1
  N  1174  1  0.21426300  0.04738400  0.63652400  1
  N  1175  1  0.07955350  0.17869200  0.61958000  1
  N  1176  1  0.14359900  0.14455700  0.55484800  1
  N  1184  1  0.09195650  0.79393800  0.07047100  1
  N  1191  1  0.23150800  0.90099000  0.17741400  1
  N  1193  1  0.11326200  0.82379300  0.15174500  1
  N  1194  1  0.16326600  0.89542800  0.10874600  1
  N  1203  1  0.22237700  0.84757500  0.18672400  1
  N  1204  1  0.21169400  0.92253200  0.13384700  1
  N  1205  1  0.07898950  0.78994300  0.11969900  1
  N  1206  1  0.14488400  0.82062100  0.05481000  1
  N  1214  1  0.44001500  0.17539400  0.07029900  1
  N  1221  1  0.30110600  0.06665100  0.17842400  1
  N  1223  1  0.41906500  0.14316300  0.15123300  1
  N  1224  1  0.36842000  0.07199400  0.10825900  1
  N  1233  1  0.31017100  0.12018300  0.18725300  1
  N  1234  1  0.31964800  0.04525400  0.13438400  1
  N  1235  1  0.45309100  0.17788200  0.11934400  1
  N  1236  1  0.38802700  0.14775400  0.05465500  1
  N  1244  1  0.09320450  0.17664200  0.41122000  1
  N  1251  1  0.23536400  0.06900300  0.30306800  1
  N  1253  1  0.11398500  0.14506600  0.32988200  1
  N  1254  1  0.16416500  0.07369400  0.37141900  1
  N  1263  1  0.22318900  0.12202100  0.29329100  1
  N  1264  1  0.21279000  0.04652600  0.34563500  1
  N  1265  1  0.07935550  0.17890600  0.36230000  1
  N  1266  1  0.14605900  0.14882200  0.42633000  1
  N  1274  1  0.43723600  0.79212200  0.40963500  1
  N  1281  1  0.29735800  0.89973500  0.30150000  1
  N  1283  1  0.41757700  0.82352100  0.32839300  1
  N  1284  1  0.36634700  0.89530700  0.37006300  1
  N  1293  1  0.30935500  0.84659100  0.29202300  1
  N  1294  1  0.31773600  0.92199500  0.34427000  1
  N  1295  1  0.45165300  0.78968800  0.36085400  1
  N  1296  1  0.38478500  0.82055500  0.42515300  1
  N  1304  1  0.94153700  0.67667400  0.90686600  1
  N  1311  1  0.79825200  0.56795300  0.80389400  1
  N  1313  1  0.91637900  0.64403000  0.82714400  1
  N  1314  1  0.86798900  0.57318200  0.87169100  1
  N  1323  1  0.80765500  0.62128900  0.79436200  1
  N  1324  1  0.81897300  0.54624500  0.84711900  1
  N  1325  1  0.95200800  0.67837800  0.85692200  1
  N  1326  1  0.89195600  0.64731100  0.92511600  1
  N  1334  1  0.58964600  0.29463900  0.90983900  1
  N  1341  1  0.73063800  0.40204000  0.80225400  1
  N  1343  1  0.61250100  0.32569200  0.82890400  1
  N  1344  1  0.66255000  0.39681600  0.87197100  1
  N  1353  1  0.72110800  0.34863800  0.79309100  1
  N  1354  1  0.71163100  0.42343100  0.84617900  1
  N  1355  1  0.57737900  0.29193700  0.86067600  1
  N  1356  1  0.64051500  0.32317800  0.92593800  1
  N  1364  1  0.94114900  0.29157200  0.57215800  1
  N  1371  1  0.79449100  0.40003300  0.67636500  1
  N  1373  1  0.91541800  0.32500500  0.65207500  1
  N  1374  1  0.86697200  0.39552200  0.60881600  1
  N  1383  1  0.80676400  0.34707100  0.68635300  1
  N  1384  1  0.81780300  0.42255200  0.63406300  1
  N  1385  1  0.95172600  0.29082900  0.62197600  1
  N  1386  1  0.89103300  0.32118400  0.55436500  1
  N  1394  1  0.59193700  0.67493900  0.57093800  1
  N  1401  1  0.73415700  0.56928100  0.67866700  1
  N  1403  1  0.61404100  0.64536400  0.65225400  1
  N  1404  1  0.66468800  0.57377400  0.61042100  1
  N  1413  1  0.72200300  0.62235500  0.68838200  1
  N  1414  1  0.71351300  0.54713800  0.63592900  1
  N  1415  1  0.57871600  0.67807400  0.62002200  1
  N  1416  1  0.64372400  0.64618300  0.55503900  1
  N  1424  1  0.59362500  0.29064500  0.07132300  1
  N  1431  1  0.73050400  0.40175900  0.17710600  1
  N  1433  1  0.61236800  0.32491100  0.15172500  1
  N  1434  1  0.66303000  0.39508400  0.10801900  1
  N  1443  1  0.72143800  0.34841000  0.18689400  1
  N  1444  1  0.71094200  0.42272000  0.13324500  1
  N  1445  1  0.57833100  0.29038900  0.12024900  1
  N  1446  1  0.64540200  0.31866600  0.05519800  1
  N  1454  1  0.93901400  0.67967100  0.07300600  1
  N  1461  1  0.79999200  0.56641800  0.17741000  1
  N  1463  1  0.91774100  0.64164300  0.15196100  1
  N  1464  1  0.86696700  0.57278900  0.10707800  1
  N  1473  1  0.80887600  0.61987800  0.18669200  1
  N  1474  1  0.81848700  0.54555000  0.13320900  1
  N  1475  1  0.95211600  0.67774900  0.12253500  1
  N  1476  1  0.88870400  0.65101900  0.05525500  1
  N  1484  1  0.59424100  0.67929800  0.41025100  1
  N  1491  1  0.73432200  0.56815100  0.30334100  1
  N  1493  1  0.61324700  0.64401700  0.32979700  1
  N  1494  1  0.66386000  0.57400600  0.37210800  1
  N  1503  1  0.72237500  0.62113300  0.29312900  1
  N  1504  1  0.71199700  0.54629900  0.34625000  1
  N  1505  1  0.57866000  0.67842500  0.36159500  1
  N  1506  1  0.64626400  0.65064100  0.42590500  1
  N  1514  1  0.93698300  0.28820800  0.40672100  1
  N  1521  1  0.79596900  0.39992900  0.30259200  1
  N  1523  1  0.91601900  0.32514700  0.32742800  1
  N  1524  1  0.86477400  0.39447200  0.37126600  1
  N  1533  1  0.80778500  0.34686000  0.29264900  1
  N  1534  1  0.81641300  0.42165400  0.34551200  1
  N  1535  1  0.95083300  0.28992600  0.35717200  1
  N  1536  1  0.88589000  0.31718300  0.42446100  1
  N  2120  1  0.70329900  0.17125900  0.90919500  1
  N  2127  1  0.55913700  0.06811500  0.80294600  1
  N  2129  1  0.67743900  0.14545600  0.82780900  1
  N  2130  1  0.62929400  0.07234100  0.87049100  1
  N  2139  1  0.56875100  0.12152300  0.79383000  1
  N  2140  1  0.57994400  0.04589600  0.84596900  1
  N  2141  1  0.71292800  0.17826000  0.85984300  1
  N  2142  1  0.65134600  0.14386700  0.92560200  1
  N  2150  1  0.34815700  0.79750600  0.91040500  1
  N  2157  1  0.49178000  0.90114000  0.80204600  1
  N  2159  1  0.37346400  0.82454100  0.82885100  1
  N  2160  1  0.42282000  0.89698700  0.87129200  1
  N  2169  1  0.48213300  0.84769200  0.79332500  1
  N  2170  1  0.47237200  0.92313000  0.84564400  1
  N  2171  1  0.33810900  0.79134600  0.86102000  1
  N  2172  1  0.40023100  0.82474800  0.92614900  1
  N  2180  1  0.70187900  0.79593600  0.56965900  1
  N  2187  1  0.55559700  0.89985300  0.67745200  1
  N  2189  1  0.67685000  0.82356900  0.65130500  1
  N  2190  1  0.62835500  0.89635400  0.61008200  1
  N  2199  1  0.56820900  0.84685300  0.68707300  1
  N  2200  1  0.57889100  0.92288400  0.63534000  1
  N  2201  1  0.71261200  0.79077300  0.61882100  1
  N  2202  1  0.65000000  0.82449200  0.55390100  1
  N  2210  1  0.35063200  0.17207900  0.57039100  1
  N  2217  1  0.49508700  0.07009200  0.67897000  1
  N  2219  1  0.37493200  0.14649800  0.65226600  1
  N  2220  1  0.42496500  0.07354700  0.61111900  1
  N  2229  1  0.48284600  0.12323500  0.68821700  1
  N  2230  1  0.47422600  0.04738400  0.63652400  1
  N  2231  1  0.33951600  0.17869200  0.61958000  1
  N  2232  1  0.40356200  0.14455700  0.55484800  1
  N  2240  1  0.35191900  0.79393800  0.07047100  1
  N  2247  1  0.49147100  0.90099000  0.17741400  1
  N  2249  1  0.37322500  0.82379300  0.15174500  1
  N  2250  1  0.42322900  0.89542800  0.10874600  1
  N  2259  1  0.48234000  0.84757500  0.18672400  1
  N  2260  1  0.47165700  0.92253200  0.13384700  1
  N  2261  1  0.33895200  0.78994300  0.11969900  1
  N  2262  1  0.40484700  0.82062100  0.05481000  1
  N  2270  1  0.69997800  0.17539400  0.07029900  1
  N  2277  1  0.56106900  0.06665100  0.17842400  1
  N  2279  1  0.67902800  0.14316300  0.15123300  1
  N  2280  1  0.62838300  0.07199400  0.10825900  1
  N  2289  1  0.57013400  0.12018300  0.18725300  1
  N  2290  1  0.57961100  0.04525400  0.13438400  1
  N  2291  1  0.71305400  0.17788200  0.11934400  1
  N  2292  1  0.64799000  0.14775400  0.05465500  1
  N  2300  1  0.35316700  0.17664200  0.41122000  1
  N  2307  1  0.49532700  0.06900300  0.30306800  1
  N  2309  1  0.37394800  0.14506600  0.32988200  1
  N  2310  1  0.42412800  0.07369400  0.37141900  1
  N  2319  1  0.48315200  0.12202100  0.29329100  1
  N  2320  1  0.47275300  0.04652600  0.34563500  1
  N  2321  1  0.33931800  0.17890600  0.36230000  1
  N  2322  1  0.40602200  0.14882200  0.42633000  1
  N  2330  1  0.69719900  0.79212200  0.40963500  1
  N  2337  1  0.55732100  0.89973500  0.30150000  1
  N  2339  1  0.67754000  0.82352100  0.32839300  1
  N  2340  1  0.62631000  0.89530700  0.37006300  1
  N  2349  1  0.56931800  0.84659100  0.29202300  1
  N  2350  1  0.57769900  0.92199500  0.34427000  1
  N  2351  1  0.71161600  0.78968800  0.36085400  1
  N  2352  1  0.64474800  0.82055500  0.42515300  1
  N  2360  1  0.20150000  0.67667400  0.90686600  1
  N  2367  1  0.05821490  0.56795300  0.80389400  1
  N  2369  1  0.17634200  0.64403000  0.82714400  1
  N  2370  1  0.12795200  0.57318200  0.87169100  1
  N  2379  1  0.06761790  0.62128900  0.79436200  1
  N  2380  1  0.07893590  0.54624500  0.84711900  1
  N  2381  1  0.21197100  0.67837800  0.85692200  1
  N  2382  1  0.15191900  0.64731100  0.92511600  1
  N  2390  1  0.84960900  0.29463900  0.90983900  1
  N  2397  1  0.99060100  0.40204000  0.80225400  1
  N  2399  1  0.87246400  0.32569200  0.82890400  1
  N  2400  1  0.92251300  0.39681600  0.87197100  1
  N  2409  1  0.98107100  0.34863800  0.79309100  1
  N  2410  1  0.97159400  0.42343100  0.84617900  1
  N  2411  1  0.83734200  0.29193700  0.86067600  1
  N  2412  1  0.90047800  0.32317800  0.92593800  1
  N  2420  1  0.20111200  0.29157200  0.57215800  1
  N  2427  1  0.05445390  0.40003300  0.67636500  1
  N  2429  1  0.17538100  0.32500500  0.65207500  1
  N  2430  1  0.12693500  0.39552200  0.60881600  1
  N  2439  1  0.06672690  0.34707100  0.68635300  1
  N  2440  1  0.07776590  0.42255200  0.63406300  1
  N  2441  1  0.21168900  0.29082900  0.62197600  1
  N  2442  1  0.15099600  0.32118400  0.55436500  1
  N  2450  1  0.85190000  0.67493900  0.57093800  1
  N  2457  1  0.99412000  0.56928100  0.67866700  1
  N  2459  1  0.87400400  0.64536400  0.65225400  1
  N  2460  1  0.92465100  0.57377400  0.61042100  1
  N  2469  1  0.98196600  0.62235500  0.68838200  1
  N  2470  1  0.97347600  0.54713800  0.63592900  1
  N  2471  1  0.83867900  0.67807400  0.62002200  1
  N  2472  1  0.90368700  0.64618300  0.55503900  1
  N  2480  1  0.85358800  0.29064500  0.07132300  1
  N  2487  1  0.99046700  0.40175900  0.17710600  1
  N  2489  1  0.87233100  0.32491100  0.15172500  1
  N  2490  1  0.92299300  0.39508400  0.10801900  1
  N  2499  1  0.98140100  0.34841000  0.18689400  1
  N  2500  1  0.97090500  0.42272000  0.13324500  1
  N  2501  1  0.83829400  0.29038900  0.12024900  1
  N  2502  1  0.90536500  0.31866600  0.05519800  1
  N  2510  1  0.19897700  0.67967100  0.07300600  1
  N  2517  1  0.05995490  0.56641800  0.17741000  1
  N  2519  1  0.17770400  0.64164300  0.15196100  1
  N  2520  1  0.12693000  0.57278900  0.10707800  1
  N  2529  1  0.06883890  0.61987800  0.18669200  1
  N  2530  1  0.07844990  0.54555000  0.13320900  1
  N  2531  1  0.21207900  0.67774900  0.12253500  1
  N  2532  1  0.14866700  0.65101900  0.05525500  1
  N  2540  1  0.85420400  0.67929800  0.41025100  1
  N  2547  1  0.99428500  0.56815100  0.30334100  1
  N  2549  1  0.87321000  0.64401700  0.32979700  1
  N  2550  1  0.92382300  0.57400600  0.37210800  1
  N  2559  1  0.98233800  0.62113300  0.29312900  1
  N  2560  1  0.97196000  0.54629900  0.34625000  1
  N  2561  1  0.83862300  0.67842500  0.36159500  1
  N  2562  1  0.90622700  0.65064100  0.42590500  1
  N  2570  1  0.19694600  0.28820800  0.40672100  1
  N  2577  1  0.05593190  0.39992900  0.30259200  1
  N  2579  1  0.17598200  0.32514700  0.32742800  1
  N  2580  1  0.12473700  0.39447200  0.37126600  1
  N  2589  1  0.06774790  0.34686000  0.29264900  1
  N  2590  1  0.07637590  0.42165400  0.34551200  1
  N  2591  1  0.21079600  0.28992600  0.35717200  1
  N  2592  1  0.14585300  0.31718300  0.42446100  1
  O  487  1  0.15370900  0.10401200  0.95965500  1
  O  489  1  0.16032600  0.09883300  0.00810900  1
  O  490  1  0.07062800  0.17053800  0.97232400  1
  O  491  1  0.07691100  0.16491700  0.02096600  1
  O  505  1  0.85990800  0.86506300  0.96070100  1
  O  507  1  0.85431600  0.87045500  0.00929900  1
  O  508  1  0.94095300  0.79653500  0.97145900  1
  O  509  1  0.93569200  0.80236200  0.02024200  1
  O  523  1  0.15184800  0.86384800  0.51928800  1
  O  525  1  0.15754200  0.86907000  0.47069800  1
  O  526  1  0.06847100  0.79892100  0.50855900  1
  O  527  1  0.07382600  0.80460700  0.45977900  1
  O  541  1  0.86295300  0.10410300  0.52091200  1
  O  543  1  0.85637800  0.09921200  0.47242300  1
  O  544  1  0.94356200  0.17143600  0.50849700  1
  O  545  1  0.93730300  0.16613700  0.45981700  1
  O  559  1  0.65572200  0.60843600  0.95941200  1
  O  561  1  0.66281500  0.60323100  0.00779200  1
  O  562  1  0.57144600  0.67369400  0.97257800  1
  O  563  1  0.57820500  0.66804200  0.02117500  1
  O  577  1  0.35620600  0.36132400  0.96067700  1
  O  579  1  0.34969800  0.36619000  0.00921500  1
  O  580  1  0.44311100  0.29839000  0.97169300  1
  O  581  1  0.43694700  0.30376100  0.02046300  1
  O  595  1  0.65367100  0.35975100  0.51943800  1
  O  597  1  0.65979300  0.36500300  0.47090700  1
  O  598  1  0.57019100  0.29505600  0.50825900  1
  O  599  1  0.57596000  0.30077500  0.45951800  1
  O  613  1  0.35950800  0.60767100  0.52100300  1
  O  615  1  0.35215400  0.60320700  0.47258700  1
  O  616  1  0.44527800  0.67004500  0.50817600  1
  O  617  1  0.43823600  0.66512400  0.45952800  1
  O  631  1  0.95263300  0.97311900  0.87905100  1
  O  633  1  0.97816000  0.02352600  0.88007200  1
  O  634  1  0.03592500  0.94358300  0.82519700  1
  O  635  1  0.06122900  0.99343400  0.82594700  1
  O  649  1  0.95468600  0.99856600  0.60090900  1
  O  651  1  0.97940500  0.94742300  0.59980000  1
  O  652  1  0.03548300  0.02506000  0.65646200  1
  O  653  1  0.05988200  0.97441800  0.65585400  1
  O  667  1  0.05975000  0.99510500  0.10160400  1
  O  669  1  0.03416500  0.94472000  0.10052600  1
  O  670  1  0.97563900  0.02494700  0.15458500  1
  O  671  1  0.95027100  0.97513900  0.15372600  1
  O  685  1  0.05759100  0.97094000  0.37947500  1
  O  687  1  0.03285800  0.02209000  0.38060300  1
  O  688  1  0.97619300  0.94426900  0.32450600  1
  O  689  1  0.95175100  0.99489300  0.32518500  1
  O  703  1  0.45155500  0.47322000  0.87956900  1
  O  705  1  0.47696700  0.52366200  0.88084900  1
  O  706  1  0.53538500  0.44397800  0.82606500  1
  O  707  1  0.56058100  0.49384600  0.82708900  1
  O  721  1  0.45364000  0.49859400  0.60017700  1
  O  723  1  0.47820600  0.44740000  0.59880300  1
  O  724  1  0.53484300  0.52465700  0.65555300  1
  O  725  1  0.55910000  0.47398300  0.65467500  1
  O  739  1  0.55879000  0.49527900  0.10066700  1
  O  741  1  0.53338800  0.44481200  0.09988800  1
  O  742  1  0.47447500  0.52531400  0.15338600  1
  O  743  1  0.44929800  0.47544200  0.15281600  1
  O  757  1  0.55665600  0.47078300  0.38038200  1
  O  759  1  0.53215900  0.52202600  0.38115300  1
  O  760  1  0.47477900  0.44379200  0.32594100  1
  O  761  1  0.45058100  0.49448600  0.32626500  1
  O  775  1  0.25175400  0.28972200  0.87199400  1
  O  777  1  0.19864700  0.26077600  0.87240600  1
  O  778  1  0.31067700  0.21158100  0.84443900  1
  O  779  1  0.25728700  0.18176300  0.84560400  1
  O  793  1  0.75658700  0.68039700  0.87077200  1
  O  795  1  0.81012300  0.70881700  0.87325800  1
  O  796  1  0.70111100  0.76012200  0.84317800  1
  O  797  1  0.75459200  0.78901200  0.84629800  1
  O  811  1  0.25438900  0.67998700  0.60726400  1
  O  813  1  0.20040700  0.70857000  0.60637900  1
  O  814  1  0.30918500  0.75787800  0.63735900  1
  O  815  1  0.25478500  0.78726100  0.63605600  1
  O  829  1  0.75562200  0.28876200  0.60744800  1
  O  831  1  0.81006900  0.26064400  0.60550300  1
  O  832  1  0.70242900  0.20995600  0.63842700  1
  O  833  1  0.75690800  0.18133800  0.63594900  1
  O  847  1  0.75603300  0.68043800  0.10657300  1
  O  849  1  0.80992700  0.70843500  0.10437200  1
  O  850  1  0.70246600  0.75827500  0.14063100  1
  O  851  1  0.75644800  0.78676400  0.13800400  1
  O  865  1  0.25391800  0.28802400  0.10643100  1
  O  867  1  0.20045900  0.25957900  0.10544100  1
  O  868  1  0.30915100  0.21106400  0.13952300  1
  O  869  1  0.25524400  0.18185600  0.13820800  1
  O  883  1  0.75328800  0.28765000  0.37427100  1
  O  885  1  0.80794000  0.25994100  0.37713300  1
  O  886  1  0.70408600  0.20987900  0.33847300  1
  O  887  1  0.75898000  0.18184200  0.34144800  1
  O  901  1  0.25509600  0.68134900  0.37701700  1
  O  903  1  0.20065400  0.70946400  0.37733600  1
  O  904  1  0.30756600  0.75619300  0.33856500  1
  O  905  1  0.25251400  0.78493600  0.33896400  1
  O  919  1  0.98327700  0.12196900  0.78243500  1
  O  921  1  0.94666800  0.12251300  0.74213500  1
  O  922  1  0.06599800  0.16757600  0.73827900  1
  O  923  1  0.02891000  0.16907600  0.69853000  1
  O  937  1  0.02798000  0.84694900  0.78162000  1
  O  939  1  0.06477400  0.84686500  0.74089500  1
  O  940  1  0.94542800  0.80185500  0.73801600  1
  O  941  1  0.98271100  0.80080400  0.69781300  1
  O  955  1  0.02790700  0.84812800  0.19805800  1
  O  957  1  0.06475600  0.84786800  0.23821900  1
  O  958  1  0.94639300  0.80101700  0.24224900  1
  O  959  1  0.98373100  0.79982900  0.28186400  1
  O  973  1  0.98478000  0.11950700  0.19926400  1
  O  975  1  0.94790100  0.12003800  0.23992600  1
  O  976  1  0.06566900  0.16803900  0.24174600  1
  O  977  1  0.02826400  0.16950800  0.28186500  1
  O  991  1  0.48219300  0.62158600  0.78282700  1
  O  993  1  0.44559900  0.62187600  0.74252100  1
  O  994  1  0.56503800  0.66666667  0.73839200  1
  O  995  1  0.52795900  0.66794900  0.69863500  1
  O  1009  1  0.52660000  0.34856800  0.78082500  1
  O  1011  1  0.56314600  0.34814900  0.73998300  1
  O  1012  1  0.44436700  0.30199000  0.73810900  1
  O  1013  1  0.48143100  0.30060900  0.69780200  1
  O  1027  1  0.52675700  0.34913100  0.19862000  1
  O  1029  1  0.56342300  0.34858700  0.23886600  1
  O  1030  1  0.44507700  0.30165700  0.24232400  1
  O  1031  1  0.48224300  0.30019900  0.28202800  1
  O  1045  1  0.48359700  0.61896700  0.19894000  1
  O  1047  1  0.44687200  0.61925700  0.23968300  1
  O  1048  1  0.56459600  0.66734700  0.24144600  1
  O  1049  1  0.52733700  0.66858200  0.28164500  1
  O  1543  1  0.41367100  0.10401200  0.95965500  1
  O  1545  1  0.42028800  0.09883300  0.00810900  1
  O  1546  1  0.33059000  0.17053800  0.97232400  1
  O  1547  1  0.33687300  0.16491700  0.02096600  1
  O  1561  1  0.11987000  0.86506300  0.96070100  1
  O  1563  1  0.11427800  0.87045500  0.00929900  1
  O  1564  1  0.20091500  0.79653500  0.97145900  1
  O  1565  1  0.19565400  0.80236200  0.02024200  1
  O  1579  1  0.41181000  0.86384800  0.51928800  1
  O  1581  1  0.41750400  0.86907000  0.47069800  1
  O  1582  1  0.32843300  0.79892100  0.50855900  1
  O  1583  1  0.33378800  0.80460700  0.45977900  1
  O  1597  1  0.12291500  0.10410300  0.52091200  1
  O  1599  1  0.11634000  0.09921200  0.47242300  1
  O  1600  1  0.20352400  0.17143600  0.50849700  1
  O  1601  1  0.19726500  0.16613700  0.45981700  1
  O  1615  1  0.91568400  0.60843600  0.95941200  1
  O  1617  1  0.92277700  0.60323100  0.00779200  1
  O  1618  1  0.83140800  0.67369400  0.97257800  1
  O  1619  1  0.83816700  0.66804200  0.02117500  1
  O  1633  1  0.61616800  0.36132400  0.96067700  1
  O  1635  1  0.60966000  0.36619000  0.00921500  1
  O  1636  1  0.70307300  0.29839000  0.97169300  1
  O  1637  1  0.69690900  0.30376100  0.02046300  1
  O  1651  1  0.91363300  0.35975100  0.51943800  1
  O  1653  1  0.91975500  0.36500300  0.47090700  1
  O  1654  1  0.83015300  0.29505600  0.50825900  1
  O  1655  1  0.83592200  0.30077500  0.45951800  1
  O  1669  1  0.61947000  0.60767100  0.52100300  1
  O  1671  1  0.61211600  0.60320700  0.47258700  1
  O  1672  1  0.70524000  0.67004500  0.50817600  1
  O  1673  1  0.69819800  0.66512400  0.45952800  1
  O  1687  1  0.21259500  0.97311900  0.87905100  1
  O  1689  1  0.23812200  0.02352600  0.88007200  1
  O  1690  1  0.29588700  0.94358300  0.82519700  1
  O  1691  1  0.32119100  0.99343400  0.82594700  1
  O  1705  1  0.21464800  0.99856600  0.60090900  1
  O  1707  1  0.23936700  0.94742300  0.59980000  1
  O  1708  1  0.29544500  0.02506000  0.65646200  1
  O  1709  1  0.31984400  0.97441800  0.65585400  1
  O  1723  1  0.31971200  0.99510500  0.10160400  1
  O  1725  1  0.29412700  0.94472000  0.10052600  1
  O  1726  1  0.23560100  0.02494700  0.15458500  1
  O  1727  1  0.21023300  0.97513900  0.15372600  1
  O  1741  1  0.31755300  0.97094000  0.37947500  1
  O  1743  1  0.29282000  0.02209000  0.38060300  1
  O  1744  1  0.23615500  0.94426900  0.32450600  1
  O  1745  1  0.21171300  0.99489300  0.32518500  1
  O  1759  1  0.71151700  0.47322000  0.87956900  1
  O  1761  1  0.73692900  0.52366200  0.88084900  1
  O  1762  1  0.79534700  0.44397800  0.82606500  1
  O  1763  1  0.82054300  0.49384600  0.82708900  1
  O  1777  1  0.71360200  0.49859400  0.60017700  1
  O  1779  1  0.73816800  0.44740000  0.59880300  1
  O  1780  1  0.79480500  0.52465700  0.65555300  1
  O  1781  1  0.81906200  0.47398300  0.65467500  1
  O  1795  1  0.81875200  0.49527900  0.10066700  1
  O  1797  1  0.79335000  0.44481200  0.09988800  1
  O  1798  1  0.73443700  0.52531400  0.15338600  1
  O  1799  1  0.70926000  0.47544200  0.15281600  1
  O  1813  1  0.81661800  0.47078300  0.38038200  1
  O  1815  1  0.79212100  0.52202600  0.38115300  1
  O  1816  1  0.73474100  0.44379200  0.32594100  1
  O  1817  1  0.71054300  0.49448600  0.32626500  1
  O  1831  1  0.51171600  0.28972200  0.87199400  1
  O  1833  1  0.45860900  0.26077600  0.87240600  1
  O  1834  1  0.57063900  0.21158100  0.84443900  1
  O  1835  1  0.51724900  0.18176300  0.84560400  1
  O  1849  1  0.01654950  0.68039700  0.87077200  1
  O  1851  1  0.07008550  0.70881700  0.87325800  1
  O  1852  1  0.96107300  0.76012200  0.84317800  1
  O  1853  1  0.01455450  0.78901200  0.84629800  1
  O  1867  1  0.51435100  0.67998700  0.60726400  1
  O  1869  1  0.46036900  0.70857000  0.60637900  1
  O  1870  1  0.56914700  0.75787800  0.63735900  1
  O  1871  1  0.51474700  0.78726100  0.63605600  1
  O  1885  1  0.01558450  0.28876200  0.60744800  1
  O  1887  1  0.07003150  0.26064400  0.60550300  1
  O  1888  1  0.96239100  0.20995600  0.63842700  1
  O  1889  1  0.01687050  0.18133800  0.63594900  1
  O  1903  1  0.01599550  0.68043800  0.10657300  1
  O  1905  1  0.06988950  0.70843500  0.10437200  1
  O  1906  1  0.96242800  0.75827500  0.14063100  1
  O  1907  1  0.01641050  0.78676400  0.13800400  1
  O  1921  1  0.51388000  0.28802400  0.10643100  1
  O  1923  1  0.46042100  0.25957900  0.10544100  1
  O  1924  1  0.56911300  0.21106400  0.13952300  1
  O  1925  1  0.51520600  0.18185600  0.13820800  1
  O  1939  1  0.01325050  0.28765000  0.37427100  1
  O  1941  1  0.06790250  0.25994100  0.37713300  1
  O  1942  1  0.96404800  0.20987900  0.33847300  1
  O  1943  1  0.01894250  0.18184200  0.34144800  1
  O  1957  1  0.51505800  0.68134900  0.37701700  1
  O  1959  1  0.46061600  0.70946400  0.37733600  1
  O  1960  1  0.56752800  0.75619300  0.33856500  1
  O  1961  1  0.51247600  0.78493600  0.33896400  1
  O  1975  1  0.24323900  0.12196900  0.78243500  1
  O  1977  1  0.20663000  0.12251300  0.74213500  1
  O  1978  1  0.32596000  0.16757600  0.73827900  1
  O  1979  1  0.28887200  0.16907600  0.69853000  1
  O  1993  1  0.28794200  0.84694900  0.78162000  1
  O  1995  1  0.32473600  0.84686500  0.74089500  1
  O  1996  1  0.20539000  0.80185500  0.73801600  1
  O  1997  1  0.24267300  0.80080400  0.69781300  1
  O  2011  1  0.28786900  0.84812800  0.19805800  1
  O  2013  1  0.32471800  0.84786800  0.23821900  1
  O  2014  1  0.20635500  0.80101700  0.24224900  1
  O  2015  1  0.24369300  0.79982900  0.28186400  1
  O  2029  1  0.24474200  0.11950700  0.19926400  1
  O  2031  1  0.20786300  0.12003800  0.23992600  1
  O  2032  1  0.32563100  0.16803900  0.24174600  1
  O  2033  1  0.28822600  0.16950800  0.28186500  1
  O  2047  1  0.74215500  0.62158600  0.78282700  1
  O  2049  1  0.70556100  0.62187600  0.74252100  1
  O  2050  1  0.82500000  0.66666667  0.73839200  1
  O  2051  1  0.78792100  0.66794900  0.69863500  1
  O  2065  1  0.78656200  0.34856800  0.78082500  1
  O  2067  1  0.82310800  0.34814900  0.73998300  1
  O  2068  1  0.70432900  0.30199000  0.73810900  1
  O  2069  1  0.74139300  0.30060900  0.69780200  1
  O  2083  1  0.78671900  0.34913100  0.19862000  1
  O  2085  1  0.82338500  0.34858700  0.23886600  1
  O  2086  1  0.70503900  0.30165700  0.24232400  1
  O  2087  1  0.74220500  0.30019900  0.28202800  1
  O  2101  1  0.74355900  0.61896700  0.19894000  1
  O  2103  1  0.70683400  0.61925700  0.23968300  1
  O  2104  1  0.82455800  0.66734700  0.24144600  1
  O  2105  1  0.78729900  0.66858200  0.28164500  1
  O  2599  1  0.67363400  0.10401200  0.95965500  1
  O  2601  1  0.68025100  0.09883300  0.00810900  1
  O  2602  1  0.59055300  0.17053800  0.97232400  1
  O  2603  1  0.59683600  0.16491700  0.02096600  1
  O  2617  1  0.37983300  0.86506300  0.96070100  1
  O  2619  1  0.37424100  0.87045500  0.00929900  1
  O  2620  1  0.46087800  0.79653500  0.97145900  1
  O  2621  1  0.45561700  0.80236200  0.02024200  1
  O  2635  1  0.67177300  0.86384800  0.51928800  1
  O  2637  1  0.67746700  0.86907000  0.47069800  1
  O  2638  1  0.58839600  0.79892100  0.50855900  1
  O  2639  1  0.59375100  0.80460700  0.45977900  1
  O  2653  1  0.38287800  0.10410300  0.52091200  1
  O  2655  1  0.37630300  0.09921200  0.47242300  1
  O  2656  1  0.46348700  0.17143600  0.50849700  1
  O  2657  1  0.45722800  0.16613700  0.45981700  1
  O  2671  1  0.17564700  0.60843600  0.95941200  1
  O  2673  1  0.18274000  0.60323100  0.00779200  1
  O  2674  1  0.09137090  0.67369400  0.97257800  1
  O  2675  1  0.09812990  0.66804200  0.02117500  1
  O  2689  1  0.87613100  0.36132400  0.96067700  1
  O  2691  1  0.86962300  0.36619000  0.00921500  1
  O  2692  1  0.96303600  0.29839000  0.97169300  1
  O  2693  1  0.95687200  0.30376100  0.02046300  1
  O  2707  1  0.17359600  0.35975100  0.51943800  1
  O  2709  1  0.17971800  0.36500300  0.47090700  1
  O  2710  1  0.09011590  0.29505600  0.50825900  1
  O  2711  1  0.09588490  0.30077500  0.45951800  1
  O  2725  1  0.87943300  0.60767100  0.52100300  1
  O  2727  1  0.87207900  0.60320700  0.47258700  1
  O  2728  1  0.96520300  0.67004500  0.50817600  1
  O  2729  1  0.95816100  0.66512400  0.45952800  1
  O  2743  1  0.47255800  0.97311900  0.87905100  1
  O  2745  1  0.49808500  0.02352600  0.88007200  1
  O  2746  1  0.55585000  0.94358300  0.82519700  1
  O  2747  1  0.58115400  0.99343400  0.82594700  1
  O  2761  1  0.47461100  0.99856600  0.60090900  1
  O  2763  1  0.49933000  0.94742300  0.59980000  1
  O  2764  1  0.55540800  0.02506000  0.65646200  1
  O  2765  1  0.57980700  0.97441800  0.65585400  1
  O  2779  1  0.57967500  0.99510500  0.10160400  1
  O  2781  1  0.55409000  0.94472000  0.10052600  1
  O  2782  1  0.49556400  0.02494700  0.15458500  1
  O  2783  1  0.47019600  0.97513900  0.15372600  1
  O  2797  1  0.57751600  0.97094000  0.37947500  1
  O  2799  1  0.55278300  0.02209000  0.38060300  1
  O  2800  1  0.49611800  0.94426900  0.32450600  1
  O  2801  1  0.47167600  0.99489300  0.32518500  1
  O  2815  1  0.97148000  0.47322000  0.87956900  1
  O  2817  1  0.99689200  0.52366200  0.88084900  1
  O  2818  1  0.05530990  0.44397800  0.82606500  1
  O  2819  1  0.08050590  0.49384600  0.82708900  1
  O  2833  1  0.97356500  0.49859400  0.60017700  1
  O  2835  1  0.99813100  0.44740000  0.59880300  1
  O  2836  1  0.05476790  0.52465700  0.65555300  1
  O  2837  1  0.07902490  0.47398300  0.65467500  1
  O  2851  1  0.07871490  0.49527900  0.10066700  1
  O  2853  1  0.05331290  0.44481200  0.09988800  1
  O  2854  1  0.99440000  0.52531400  0.15338600  1
  O  2855  1  0.96922300  0.47544200  0.15281600  1
  O  2869  1  0.07658090  0.47078300  0.38038200  1
  O  2871  1  0.05208390  0.52202600  0.38115300  1
  O  2872  1  0.99470400  0.44379200  0.32594100  1
  O  2873  1  0.97050600  0.49448600  0.32626500  1
  O  2887  1  0.77167900  0.28972200  0.87199400  1
  O  2889  1  0.71857200  0.26077600  0.87240600  1
  O  2890  1  0.83060200  0.21158100  0.84443900  1
  O  2891  1  0.77721200  0.18176300  0.84560400  1
  O  2905  1  0.27651200  0.68039700  0.87077200  1
  O  2907  1  0.33004800  0.70881700  0.87325800  1
  O  2908  1  0.22103600  0.76012200  0.84317800  1
  O  2909  1  0.27451700  0.78901200  0.84629800  1
  O  2923  1  0.77431400  0.67998700  0.60726400  1
  O  2925  1  0.72033200  0.70857000  0.60637900  1
  O  2926  1  0.82911000  0.75787800  0.63735900  1
  O  2927  1  0.77471000  0.78726100  0.63605600  1
  O  2941  1  0.27554700  0.28876200  0.60744800  1
  O  2943  1  0.32999400  0.26064400  0.60550300  1
  O  2944  1  0.22235400  0.20995600  0.63842700  1
  O  2945  1  0.27683300  0.18133800  0.63594900  1
  O  2959  1  0.27595800  0.68043800  0.10657300  1
  O  2961  1  0.32985200  0.70843500  0.10437200  1
  O  2962  1  0.22239100  0.75827500  0.14063100  1
  O  2963  1  0.27637300  0.78676400  0.13800400  1
  O  2977  1  0.77384300  0.28802400  0.10643100  1
  O  2979  1  0.72038400  0.25957900  0.10544100  1
  O  2980  1  0.82907600  0.21106400  0.13952300  1
  O  2981  1  0.77516900  0.18185600  0.13820800  1
  O  2995  1  0.27321300  0.28765000  0.37427100  1
  O  2997  1  0.32786500  0.25994100  0.37713300  1
  O  2998  1  0.22401100  0.20987900  0.33847300  1
  O  2999  1  0.27890500  0.18184200  0.34144800  1
  O  3013  1  0.77502100  0.68134900  0.37701700  1
  O  3015  1  0.72057900  0.70946400  0.37733600  1
  O  3016  1  0.82749100  0.75619300  0.33856500  1
  O  3017  1  0.77243900  0.78493600  0.33896400  1
  O  3031  1  0.50320200  0.12196900  0.78243500  1
  O  3033  1  0.46659300  0.12251300  0.74213500  1
  O  3034  1  0.58592300  0.16757600  0.73827900  1
  O  3035  1  0.54883500  0.16907600  0.69853000  1
  O  3049  1  0.54790500  0.84694900  0.78162000  1
  O  3051  1  0.58469900  0.84686500  0.74089500  1
  O  3052  1  0.46535300  0.80185500  0.73801600  1
  O  3053  1  0.50263600  0.80080400  0.69781300  1
  O  3067  1  0.54783200  0.84812800  0.19805800  1
  O  3069  1  0.58468100  0.84786800  0.23821900  1
  O  3070  1  0.46631800  0.80101700  0.24224900  1
  O  3071  1  0.50365600  0.79982900  0.28186400  1
  O  3085  1  0.50470500  0.11950700  0.19926400  1
  O  3087  1  0.46782600  0.12003800  0.23992600  1
  O  3088  1  0.58559400  0.16803900  0.24174600  1
  O  3089  1  0.54818900  0.16950800  0.28186500  1
  O  3103  1  0.00211794  0.62158600  0.78282700  1
  O  3105  1  0.96552400  0.62187600  0.74252100  1
  O  3106  1  0.08496290  0.66666667  0.73839200  1
  O  3107  1  0.04788390  0.66794900  0.69863500  1
  O  3121  1  0.04652490  0.34856800  0.78082500  1
  O  3123  1  0.08307090  0.34814900  0.73998300  1
  O  3124  1  0.96429200  0.30199000  0.73810900  1
  O  3125  1  0.00135594  0.30060900  0.69780200  1
  O  3139  1  0.04668190  0.34913100  0.19862000  1
  O  3141  1  0.08334790  0.34858700  0.23886600  1
  O  3142  1  0.96500200  0.30165700  0.24232400  1
  O  3143  1  0.00216794  0.30019900  0.28202800  1
  O  3157  1  0.00352194  0.61896700  0.19894000  1
  O  3159  1  0.96679700  0.61925700  0.23968300  1
  O  3160  1  0.08452090  0.66734700  0.24144600  1
  O  3161  1  0.04726190  0.66858200  0.28164500  1
