# generated using pymatgen
data_H13(C7N3)2
_symmetry_space_group_name_H-M   'P 1'
_cell_length_a   55.38100000
_cell_length_b   55.38100000
_cell_length_c   55.38100000
_cell_angle_alpha   90.00000000
_cell_angle_beta   90.00000000
_cell_angle_gamma   90.00000000
_symmetry_Int_Tables_number   1
_chemical_formula_structural   H13(C7N3)2
_chemical_formula_sum   'H624 C672 N288'
_cell_volume   169856.58187134
_cell_formula_units_Z   48
loop_
 _symmetry_equiv_pos_site_id
 _symmetry_equiv_pos_as_xyz
  1  'x, y, z'
loop_
 _atom_site_type_symbol
 _atom_site_label
 _atom_site_symmetry_multiplicity
 _atom_site_fract_x
 _atom_site_fract_y
 _atom_site_fract_z
 _atom_site_occupancy
  H  7  1  0.31893000  0.34971200  0.03627400  1
  H  8  1  0.32111500  0.34243100  0.95996200  1
  H  9  1  0.27354800  0.39012400  0.99284000  1
  H  16  1  0.34635000  0.32283400  0.03857300  1
  H  17  1  0.39356600  0.27452700  0.00600300  1
  H  18  1  0.34896600  0.31624000  0.96228100  1
  H  29  1  0.68027400  0.64800200  0.03630200  1
  H  30  1  0.67915500  0.65776800  0.96025300  1
  H  31  1  0.72664200  0.60936900  0.99226700  1
  H  38  1  0.65773600  0.67896500  0.03932100  1
  H  39  1  0.60942500  0.72649800  0.00726400  1
  H  40  1  0.64812600  0.68021800  0.96323400  1
  H  51  1  0.68114500  0.35002600  0.96348700  1
  H  52  1  0.67833900  0.34255900  0.03977400  1
  H  53  1  0.72628100  0.39021100  0.00713300  1
  H  60  1  0.65406900  0.32331800  0.96096800  1
  H  61  1  0.60597100  0.27513900  0.99214800  1
  H  62  1  0.65048100  0.31606700  0.03702800  1
  H  73  1  0.31635400  0.65061400  0.96240000  1
  H  74  1  0.32261000  0.65340600  0.03875700  1
  H  75  1  0.27450200  0.60609500  0.00595400  1
  H  82  1  0.34239500  0.67849200  0.95994900  1
  H  83  1  0.39011000  0.72604300  0.99276700  1
  H  84  1  0.34975000  0.68063400  0.03625600  1
  H  95  1  0.03696400  0.31632100  0.34724900  1
  H  96  1  0.96068800  0.32349300  0.34658400  1
  H  97  1  0.99403000  0.27500700  0.39311300  1
  H  104  1  0.03882500  0.34667800  0.32334300  1
  H  105  1  0.00546000  0.39323700  0.27490300  1
  H  106  1  0.96254100  0.34736800  0.31619700  1
  H  117  1  0.03644700  0.68033200  0.64805400  1
  H  118  1  0.96035900  0.67920000  0.65770900  1
  H  119  1  0.99247900  0.72656100  0.60925700  1
  H  126  1  0.03939100  0.65771400  0.67897200  1
  H  127  1  0.00727700  0.60943100  0.72649400  1
  H  128  1  0.96329700  0.64817700  0.68019800  1
  H  139  1  0.96353500  0.68093000  0.34999900  1
  H  140  1  0.03978700  0.67845400  0.34237300  1
  H  141  1  0.00724100  0.72629200  0.39009200  1
  H  148  1  0.96091000  0.65382500  0.32302700  1
  H  149  1  0.99282200  0.60599100  0.27495700  1
  H  150  1  0.03712600  0.65058000  0.31616400  1
  H  161  1  0.96323200  0.31935700  0.64813200  1
  H  162  1  0.03932100  0.32046200  0.65777900  1
  H  163  1  0.00719100  0.27314400  0.60929200  1
  H  170  1  0.96028500  0.34184600  0.67915800  1
  H  171  1  0.99242300  0.39032100  0.72648300  1
  H  172  1  0.03637200  0.35149000  0.68026000  1
  H  183  1  0.34972400  0.03628400  0.31893600  1
  H  184  1  0.34243300  0.95997100  0.32110600  1
  H  185  1  0.39010800  0.99285200  0.27352700  1
  H  192  1  0.32283200  0.03859200  0.34634600  1
  H  193  1  0.27453100  0.00600600  0.39355700  1
  H  194  1  0.31625100  0.96229700  0.34895500  1
  H  205  1  0.65062900  0.03718200  0.68334200  1
  H  206  1  0.65334400  0.96082300  0.67701700  1
  H  207  1  0.60602900  0.99365800  0.72511100  1
  H  214  1  0.67830800  0.03964700  0.65715400  1
  H  215  1  0.72607500  0.00689100  0.60963800  1
  H  216  1  0.68061600  0.96333500  0.64990300  1
  H  227  1  0.34989800  0.96339300  0.68096400  1
  H  228  1  0.34255600  0.03968800  0.67842300  1
  H  229  1  0.39020800  0.00700100  0.72620700  1
  H  236  1  0.32297200  0.96086500  0.65370700  1
  H  237  1  0.27493700  0.99304400  0.60598400  1
  H  238  1  0.31620900  0.03711600  0.65069000  1
  H  249  1  0.64803800  0.96329700  0.31938200  1
  H  250  1  0.65790000  0.03933300  0.32038000  1
  H  251  1  0.60937800  0.00732900  0.27301600  1
  H  258  1  0.67913900  0.96031400  0.34181200  1
  H  259  1  0.72647100  0.99242800  0.39030300  1
  H  260  1  0.68023600  0.03639500  0.35150700  1
  H  271  1  0.81666900  0.84752500  0.53706500  1
  H  272  1  0.82333000  0.84684800  0.46070500  1
  H  273  1  0.77535400  0.89361800  0.49450500  1
  H  280  1  0.84682800  0.82333400  0.53890300  1
  H  281  1  0.89359800  0.77535200  0.50512400  1
  H  282  1  0.84753200  0.81668200  0.46254500  1
  H  293  1  0.18301700  0.15214000  0.53706600  1
  H  294  1  0.17599200  0.15270200  0.46076200  1
  H  295  1  0.22416000  0.10598900  0.49427600  1
  H  302  1  0.15278500  0.17630500  0.53901300  1
  H  303  1  0.10600600  0.22426400  0.50516000  1
  H  304  1  0.15214200  0.18299900  0.46264200  1
  H  315  1  0.17992000  0.85171900  0.46331400  1
  H  316  1  0.17890600  0.84188600  0.53936900  1
  H  317  1  0.22591500  0.89076500  0.50735800  1
  H  324  1  0.15775600  0.82048500  0.46041200  1
  H  325  1  0.10876400  0.77353000  0.49230900  1
  H  326  1  0.14774700  0.81954600  0.53642500  1
  H  337  1  0.81599000  0.15187000  0.46287000  1
  H  338  1  0.82345100  0.15350500  0.53910000  1
  H  339  1  0.77563500  0.10579100  0.50630500  1
  H  346  1  0.84596600  0.17574500  0.46077100  1
  H  347  1  0.89381700  0.22382600  0.49257800  1
  H  348  1  0.84799100  0.18356500  0.53681900  1
  H  359  1  0.53728700  0.81655000  0.84916100  1
  H  360  1  0.46091900  0.82280700  0.84652600  1
  H  361  1  0.49387300  0.77493800  0.89400300  1
  H  368  1  0.53960700  0.84262600  0.82132100  1
  H  369  1  0.50681100  0.89072700  0.77415800  1
  H  370  1  0.46330700  0.84987600  0.81915200  1
  H  381  1  0.53727000  0.18310600  0.15052400  1
  H  382  1  0.46096500  0.17652300  0.15309400  1
  H  383  1  0.49364400  0.22453900  0.10562100  1
  H  390  1  0.53960300  0.15708600  0.17841300  1
  H  391  1  0.50692600  0.10892600  0.22561300  1
  H  392  1  0.46333500  0.14961100  0.18053800  1
  H  403  1  0.46339000  0.18038400  0.84997100  1
  H  404  1  0.53967200  0.17831500  0.84244700  1
  H  405  1  0.50703300  0.22553900  0.89056100  1
  H  412  1  0.46084900  0.15317200  0.82277200  1
  H  413  1  0.49377000  0.10564100  0.77492600  1
  H  414  1  0.53722200  0.15040400  0.81655900  1
  H  425  1  0.46257200  0.81665800  0.15195600  1
  H  426  1  0.53886100  0.82357200  0.15323300  1
  H  427  1  0.50576200  0.77556900  0.10610000  1
  H  434  1  0.46056200  0.84675200  0.17639900  1
  H  435  1  0.49418900  0.89383800  0.22425200  1
  H  436  1  0.53689500  0.84761700  0.18330800  1
  H  447  1  0.84918400  0.53730100  0.81659700  1
  H  448  1  0.84649400  0.46093400  0.82281800  1
  H  449  1  0.89398300  0.49388600  0.77495500  1
  H  456  1  0.82119300  0.53958400  0.84248000  1
  H  457  1  0.77402100  0.50689500  0.89064000  1
  H  458  1  0.81919200  0.46332500  0.84999100  1
  H  469  1  0.15054200  0.53724000  0.18314600  1
  H  470  1  0.15308100  0.46093900  0.17652800  1
  H  471  1  0.10559500  0.49360400  0.22453400  1
  H  478  1  0.17835000  0.53961200  0.15701500  1
  H  479  1  0.22549600  0.50685800  0.10885200  1
  H  480  1  0.18056400  0.46331200  0.14968600  1
  H  491  1  0.84989500  0.46340800  0.18034000  1
  H  492  1  0.84246000  0.53969500  0.17830100  1
  H  493  1  0.89057900  0.50696900  0.22547200  1
  H  500  1  0.82272000  0.46096100  0.15307900  1
  H  501  1  0.77486400  0.49394700  0.10560300  1
  H  502  1  0.81652700  0.53734100  0.15038300  1
  H  513  1  0.15189200  0.46254600  0.81659000  1
  H  514  1  0.15327400  0.53882000  0.82360900  1
  H  515  1  0.10608900  0.50589300  0.77556900  1
  H  522  1  0.17636300  0.46044300  0.84668000  1
  H  523  1  0.22419200  0.49405400  0.89382200  1
  H  524  1  0.18332400  0.53677400  0.84756600  1
  H  536  1  0.37783500  0.21555800  0.95166300  1
  H  537  1  0.36822500  0.24278500  0.95439900  1
  H  539  1  0.42230200  0.18768500  0.91543600  1
  H  540  1  0.40089300  0.19174300  0.93476200  1
  H  542  1  0.41514700  0.31053000  0.92150700  1
  H  543  1  0.43642600  0.30620000  0.90206700  1
  H  545  1  0.45574300  0.25535500  0.86873200  1
  H  546  1  0.45039200  0.28279200  0.87646400  1
  H  548  1  0.43174900  0.20506500  0.87574900  1
  H  550  1  0.37533200  0.29312600  0.93040500  1
  H  558  1  0.62337400  0.78362600  0.95088000  1
  H  559  1  0.63111100  0.75617200  0.95612500  1
  H  561  1  0.57838700  0.81139900  0.91548300  1
  H  562  1  0.59798600  0.80708500  0.93661800  1
  H  564  1  0.58455900  0.68852400  0.92254900  1
  H  565  1  0.56500600  0.69258700  0.90135200  1
  H  567  1  0.54574300  0.74358300  0.86836200  1
  H  568  1  0.54853600  0.71634600  0.87791400  1
  H  570  1  0.56922900  0.79408800  0.87583600  1
  H  572  1  0.62438000  0.70621500  0.93203400  1
  H  580  1  0.62294200  0.21561900  0.04859600  1
  H  581  1  0.63149200  0.24300600  0.04431700  1
  H  583  1  0.57792300  0.18803900  0.08420500  1
  H  584  1  0.59801300  0.19217000  0.06350100  1
  H  586  1  0.58465700  0.31081400  0.07724000  1
  H  587  1  0.56447500  0.30676700  0.09785500  1
  H  589  1  0.54541800  0.25594100  0.13133600  1
  H  590  1  0.54878900  0.28320900  0.12209200  1
  H  592  1  0.56903800  0.20544000  0.12403700  1
  H  594  1  0.62447000  0.29326800  0.06805600  1
  H  602  1  0.37651700  0.78358900  0.04853200  1
  H  603  1  0.36864600  0.75613600  0.04347800  1
  H  605  1  0.42143700  0.81139300  0.08404700  1
  H  606  1  0.40151100  0.80712600  0.06322200  1
  H  608  1  0.41511500  0.68855900  0.07713800  1
  H  609  1  0.43489400  0.69266800  0.09811600  1
  H  611  1  0.45433100  0.74366100  0.13102800  1
  H  612  1  0.45105100  0.71638200  0.12181100  1
  H  614  1  0.43025900  0.79423600  0.12372500  1
  H  616  1  0.37522200  0.70610600  0.06803700  1
  H  624  1  0.95180800  0.37786600  0.21567100  1
  H  625  1  0.95459200  0.36827000  0.24289400  1
  H  627  1  0.91551500  0.42224900  0.18776800  1
  H  628  1  0.93480200  0.40080900  0.19183300  1
  H  630  1  0.92158200  0.41516600  0.31058800  1
  H  631  1  0.90212800  0.43642600  0.30623700  1
  H  633  1  0.86881400  0.45573200  0.25538300  1
  H  634  1  0.87649800  0.45034700  0.28282600  1
  H  636  1  0.87582700  0.43167800  0.20508800  1
  H  638  1  0.92996300  0.37521000  0.29331000  1
  H  646  1  0.95087800  0.62338300  0.78362200  1
  H  647  1  0.95613600  0.63110900  0.75617000  1
  H  649  1  0.91548500  0.57839300  0.81139700  1
  H  650  1  0.93662700  0.59798400  0.80708100  1
  H  652  1  0.92255600  0.58456100  0.68852300  1
  H  653  1  0.90134800  0.56501800  0.69258500  1
  H  655  1  0.86836900  0.54574300  0.74358500  1
  H  656  1  0.87792500  0.54853200  0.71634800  1
  H  658  1  0.87583400  0.56924900  0.79408400  1
  H  660  1  0.93204800  0.62437400  0.70619800  1
  H  668  1  0.04851700  0.62283900  0.21563500  1
  H  669  1  0.04442700  0.63152700  0.24300600  1
  H  671  1  0.08419600  0.57787100  0.18803900  1
  H  672  1  0.06359100  0.59806400  0.19215600  1
  H  674  1  0.07730200  0.58462600  0.31080500  1
  H  675  1  0.09780000  0.56432700  0.30674000  1
  H  677  1  0.13136300  0.54535800  0.25592300  1
  H  678  1  0.12219700  0.54883000  0.28320300  1
  H  680  1  0.12405000  0.56898900  0.20542400  1
  H  682  1  0.06845400  0.62457800  0.29325400  1
  H  690  1  0.04867400  0.37650400  0.78369200  1
  H  691  1  0.04364300  0.36862800  0.75623000  1
  H  693  1  0.08413400  0.42148400  0.81147800  1
  H  694  1  0.06327600  0.40158700  0.80721100  1
  H  696  1  0.07721200  0.41510400  0.68861600  1
  H  697  1  0.09818600  0.43489200  0.69270500  1
  H  699  1  0.13111100  0.45434300  0.74368800  1
  H  700  1  0.12185300  0.45109500  0.71641700  1
  H  702  1  0.12378600  0.43037500  0.79426500  1
  H  704  1  0.06766200  0.37532000  0.70632800  1
  H  712  1  0.21560300  0.95171900  0.37781000  1
  H  713  1  0.24282100  0.95442000  0.36815700  1
  H  715  1  0.18774500  0.91543600  0.42224000  1
  H  716  1  0.19178600  0.93474600  0.40081400  1
  H  718  1  0.31061500  0.92154500  0.41507300  1
  H  719  1  0.30627600  0.90214400  0.43639300  1
  H  721  1  0.25543400  0.86873200  0.45561100  1
  H  722  1  0.28288600  0.87643500  0.45024400  1
  H  724  1  0.20527400  0.87586100  0.43211400  1
  H  726  1  0.29316300  0.93043700  0.37525500  1
  H  734  1  0.78356600  0.95096300  0.62332300  1
  H  735  1  0.75611800  0.95625100  0.63101900  1
  H  737  1  0.81137900  0.91557900  0.57835100  1
  H  738  1  0.80704300  0.93667100  0.59798800  1
  H  740  1  0.68855500  0.92256100  0.58447100  1
  H  741  1  0.69264000  0.90132500  0.56496600  1
  H  743  1  0.74366400  0.86848100  0.54555300  1
  H  744  1  0.71643100  0.87799200  0.54841300  1
  H  746  1  0.79425200  0.87577100  0.56978000  1
  H  748  1  0.70602900  0.93160800  0.62439200  1
  H  756  1  0.21560800  0.04855100  0.62280000  1
  H  757  1  0.24298600  0.04444700  0.63145300  1
  H  759  1  0.18798100  0.08416200  0.57779500  1
  H  760  1  0.19212300  0.06356600  0.59799200  1
  H  762  1  0.31071600  0.07735800  0.58452500  1
  H  763  1  0.30664600  0.09789000  0.56426500  1
  H  765  1  0.25580200  0.13132200  0.54515600  1
  H  766  1  0.28307300  0.12216200  0.54865500  1
  H  768  1  0.20522400  0.12420200  0.56953200  1
  H  770  1  0.29323000  0.06862200  0.62452800  1
  H  778  1  0.78370100  0.04865500  0.37657300  1
  H  779  1  0.75624400  0.04367900  0.36864100  1
  H  781  1  0.81146200  0.08417900  0.42153100  1
  H  782  1  0.80722400  0.06339000  0.40155800  1
  H  784  1  0.68859800  0.07722400  0.41507200  1
  H  785  1  0.69268300  0.09811800  0.43494500  1
  H  787  1  0.74363500  0.13112800  0.45434900  1
  H  788  1  0.71635500  0.12194200  0.45098600  1
  H  790  1  0.79427400  0.12368200  0.43074500  1
  H  792  1  0.70634100  0.06767600  0.37530500  1
  H  800  1  0.21591000  0.37704200  0.04826600  1
  H  801  1  0.24334300  0.36876700  0.04384700  1
  H  803  1  0.18796300  0.42171500  0.08407500  1
  H  804  1  0.19218500  0.40112300  0.06392500  1
  H  806  1  0.31088100  0.41514200  0.07759900  1
  H  807  1  0.30663200  0.43551400  0.09796800  1
  H  809  1  0.25554100  0.45524800  0.13063800  1
  H  810  1  0.28296900  0.45072800  0.12241200  1
  H  812  1  0.20526000  0.43148000  0.12348100  1
  H  814  1  0.29342500  0.37550800  0.06821400  1
  H  822  1  0.78362400  0.62340300  0.04874500  1
  H  823  1  0.75616700  0.63110800  0.04346200  1
  H  825  1  0.81139900  0.57840000  0.08412100  1
  H  826  1  0.80707900  0.59797500  0.06296200  1
  H  828  1  0.68851900  0.58457200  0.07705300  1
  H  829  1  0.69257800  0.56503400  0.09826600  1
  H  831  1  0.74357000  0.54577300  0.13125500  1
  H  832  1  0.71634300  0.54852000  0.12166500  1
  H  834  1  0.79407500  0.56927400  0.12378200  1
  H  836  1  0.70625400  0.62440300  0.06748200  1
  H  844  1  0.21566000  0.62255200  0.95123200  1
  H  845  1  0.24298700  0.63156100  0.95485000  1
  H  847  1  0.18799600  0.57768300  0.91542700  1
  H  848  1  0.19209500  0.59817200  0.93573500  1
  H  850  1  0.31072900  0.58452900  0.92205900  1
  H  851  1  0.30659600  0.56394400  0.90186100  1
  H  853  1  0.25579100  0.54504400  0.86821200  1
  H  854  1  0.28310200  0.54886800  0.87712300  1
  H  856  1  0.20519100  0.56920700  0.87544800  1
  H  858  1  0.29325700  0.62462900  0.93058700  1
  H  866  1  0.78378600  0.37697900  0.95123200  1
  H  867  1  0.75635600  0.36871600  0.95569300  1
  H  869  1  0.81168400  0.42172400  0.91549600  1
  H  870  1  0.80747100  0.40119100  0.93571000  1
  H  872  1  0.68876500  0.41511500  0.92206800  1
  H  873  1  0.69299200  0.43542900  0.90162600  1
  H  875  1  0.74405600  0.45524600  0.86899200  1
  H  876  1  0.71664200  0.45075400  0.87725000  1
  H  878  1  0.79436900  0.43150000  0.87614300  1
  H  880  1  0.70620000  0.37565600  0.93176800  1
  H  888  1  0.37699400  0.95125100  0.78376800  1
  H  889  1  0.36873800  0.95571900  0.75633600  1
  H  891  1  0.42172200  0.91550300  0.81167800  1
  H  892  1  0.40119100  0.93571700  0.80746000  1
  H  894  1  0.41512800  0.92205000  0.68875400  1
  H  895  1  0.43541800  0.90159700  0.69297500  1
  H  897  1  0.45523700  0.86897800  0.74406700  1
  H  898  1  0.45077200  0.87725900  0.71664600  1
  H  900  1  0.43144700  0.87612800  0.79437700  1
  H  902  1  0.37563400  0.93164500  0.70619300  1
  H  910  1  0.62331300  0.95082700  0.21594400  1
  H  911  1  0.63102100  0.95609100  0.24340100  1
  H  913  1  0.57828600  0.91546100  0.18816500  1
  H  914  1  0.59794100  0.93654400  0.19248300  1
  H  916  1  0.58452100  0.92248500  0.31102200  1
  H  917  1  0.56495000  0.90130800  0.30696100  1
  H  919  1  0.54556400  0.86838400  0.25596800  1
  H  920  1  0.54846600  0.87788500  0.28320300  1
  H  922  1  0.56945100  0.87577400  0.20533700  1
  H  924  1  0.62430900  0.93206600  0.29334400  1
  H  932  1  0.62263400  0.04833600  0.78391600  1
  H  933  1  0.63164900  0.04471100  0.75658900  1
  H  935  1  0.57778300  0.08416100  0.81157000  1
  H  936  1  0.59821700  0.06379600  0.80748000  1
  H  938  1  0.58459000  0.07748500  0.68881700  1
  H  939  1  0.56400900  0.09769400  0.69295200  1
  H  941  1  0.54524100  0.13142600  0.74375100  1
  H  942  1  0.54894600  0.12245000  0.71644000  1
  H  944  1  0.56900300  0.12411400  0.79421200  1
  H  946  1  0.62471900  0.06897600  0.70633000  1
  H  954  1  0.37705300  0.04825900  0.21590800  1
  H  955  1  0.36876500  0.04386000  0.24334100  1
  H  957  1  0.42172400  0.08407300  0.18796000  1
  H  958  1  0.40110700  0.06394900  0.19217800  1
  H  960  1  0.41514900  0.07759400  0.31087200  1
  H  961  1  0.43555900  0.09793500  0.30661200  1
  H  963  1  0.45527100  0.13063200  0.25554400  1
  H  964  1  0.45071200  0.12244100  0.28296500  1
  H  966  1  0.43152700  0.12344300  0.20523600  1
  H  968  1  0.37549500  0.06822400  0.29340500  1
  H  976  1  0.95095500  0.21589500  0.62298900  1
  H  977  1  0.95590800  0.24334700  0.63095200  1
  H  979  1  0.91537100  0.18815500  0.57805900  1
  H  980  1  0.93612700  0.19237600  0.59806700  1
  H  982  1  0.92237200  0.31102900  0.58457000  1
  H  983  1  0.90149600  0.30696100  0.56468400  1
  H  985  1  0.86845600  0.25601000  0.54528600  1
  H  986  1  0.87762700  0.28330300  0.54868600  1
  H  988  1  0.87602000  0.20536100  0.56847100  1
  H  990  1  0.93194000  0.29329200  0.62427500  1
  H  998  1  0.95086500  0.78362200  0.37622600  1
  H  999  1  0.95623500  0.75617800  0.36857400  1
  H  1001  1  0.91554600  0.81140200  0.42125400  1
  H  1002  1  0.93669800  0.80706700  0.40167900  1
  H  1004  1  0.92259400  0.68857000  0.41510200  1
  H  1005  1  0.90129200  0.69263400  0.43453700  1
  H  1007  1  0.86849200  0.74364600  0.45403300  1
  H  1008  1  0.87805700  0.71642400  0.45121900  1
  H  1010  1  0.87576500  0.79424500  0.42984200  1
  H  1012  1  0.93195600  0.70606300  0.37531400  1
  H  1020  1  0.04823900  0.21577600  0.37702300  1
  H  1021  1  0.04452500  0.24310300  0.36807500  1
  H  1023  1  0.08405600  0.18807300  0.42184100  1
  H  1024  1  0.06371400  0.19219000  0.40139200  1
  H  1026  1  0.07745000  0.31076700  0.41512000  1
  H  1027  1  0.09772900  0.30661200  0.43562400  1
  H  1029  1  0.13129800  0.25577500  0.45454000  1
  H  1030  1  0.12235400  0.28308400  0.45080200  1
  H  1032  1  0.12417500  0.20522200  0.43001400  1
  H  1034  1  0.06944800  0.29346900  0.37486700  1
  H  1042  1  0.04834700  0.78376600  0.62261400  1
  H  1043  1  0.04401200  0.75632700  0.63094900  1
  H  1045  1  0.08416200  0.81168000  0.57791600  1
  H  1046  1  0.06399000  0.80748200  0.59849700  1
  H  1048  1  0.07762900  0.68871600  0.58454500  1
  H  1049  1  0.09792700  0.69295900  0.56408300  1
  H  1051  1  0.13072300  0.74402200  0.54447100  1
  H  1052  1  0.12251000  0.71659000  0.54899800  1
  H  1054  1  0.12343500  0.79417100  0.56766700  1
  H  1056  1  0.06778900  0.70640600  0.62409800  1
  H  1064  1  0.62043300  0.78103600  0.04351500  1
  H  1065  1  0.62791500  0.75347400  0.03985000  1
  H  1067  1  0.57946200  0.81157400  0.08119700  1
  H  1068  1  0.60025200  0.80649400  0.06139900  1
  H  1070  1  0.58623300  0.68866900  0.08501400  1
  H  1071  1  0.56436800  0.69443300  0.10345800  1
  H  1073  1  0.54155200  0.74834800  0.12870100  1
  H  1074  1  0.54563100  0.72040400  0.12243700  1
  H  1076  1  0.58019100  0.79421800  0.12453400  1
  H  1078  1  0.59042900  0.71087500  0.04314900  1
  H  1086  1  0.37624400  0.21993800  0.04564200  1
  H  1087  1  0.37016500  0.24801400  0.04160800  1
  H  1089  1  0.42015600  0.18832800  0.07941700  1
  H  1090  1  0.40085200  0.19457400  0.05836600  1
  H  1092  1  0.41987100  0.31042400  0.07895300  1
  H  1093  1  0.44092500  0.30424500  0.09827100  1
  H  1095  1  0.45738600  0.25094000  0.12936300  1
  H  1096  1  0.45356900  0.27895100  0.12295500  1
  H  1098  1  0.41933100  0.20481600  0.12305300  1
  H  1100  1  0.37612000  0.29365600  0.08041500  1
  H  1108  1  0.37778100  0.78133200  0.95465300  1
  H  1109  1  0.37251200  0.75364100  0.96061200  1
  H  1111  1  0.41957500  0.81174200  0.91776200  1
  H  1112  1  0.40032500  0.80638600  0.93895700  1
  H  1114  1  0.41367600  0.68880600  0.91510700  1
  H  1115  1  0.43473700  0.69456100  0.89577400  1
  H  1117  1  0.45645600  0.74820200  0.86935300  1
  H  1118  1  0.45412300  0.72053500  0.87747500  1
  H  1120  1  0.41985800  0.79478600  0.87443600  1
  H  1122  1  0.40918000  0.71093800  0.95670300  1
  H  1130  1  0.62300900  0.21978100  0.95444000  1
  H  1131  1  0.62783000  0.24799800  0.95941100  1
  H  1133  1  0.58526500  0.18781700  0.91396300  1
  H  1134  1  0.60354400  0.19370000  0.93600400  1
  H  1136  1  0.58114100  0.31058100  0.92133500  1
  H  1137  1  0.56195800  0.30580900  0.89984000  1
  H  1139  1  0.54012300  0.25289700  0.87214100  1
  H  1140  1  0.54341900  0.28032900  0.88024700  1
  H  1142  1  0.54328200  0.20972200  0.90948400  1
  H  1144  1  0.62455800  0.29149100  0.91764600  1
  H  1152  1  0.04341200  0.62031700  0.78101800  1
  H  1153  1  0.03989800  0.62794600  0.75347400  1
  H  1155  1  0.08112700  0.57939900  0.81157400  1
  H  1156  1  0.06144500  0.60031200  0.80651100  1
  H  1158  1  0.08506100  0.58621500  0.68867800  1
  H  1159  1  0.10343300  0.56428700  0.69445600  1
  H  1161  1  0.12857100  0.54141300  0.74840800  1
  H  1162  1  0.12251400  0.54565200  0.72043800  1
  H  1164  1  0.12445500  0.58034300  0.79414500  1
  H  1166  1  0.04316700  0.59041500  0.71086200  1
  H  1174  1  0.04563000  0.37627100  0.21991600  1
  H  1175  1  0.04160900  0.37011600  0.24796900  1
  H  1177  1  0.07941400  0.42017800  0.18835100  1
  H  1178  1  0.05835600  0.40087900  0.19457400  1
  H  1180  1  0.07896800  0.41985100  0.31045800  1
  H  1181  1  0.09826100  0.44091600  0.30425200  1
  H  1183  1  0.12932100  0.45739500  0.25094700  1
  H  1184  1  0.12293900  0.45356700  0.27896000  1
  H  1186  1  0.12305100  0.41928400  0.20486300  1
  H  1188  1  0.08001700  0.37604200  0.29381700  1
  H  1196  1  0.95472200  0.37790500  0.78133800  1
  H  1197  1  0.96038500  0.37233100  0.75366600  1
  H  1199  1  0.91777100  0.41962200  0.81174500  1
  H  1200  1  0.93885600  0.40024900  0.80641700  1
  H  1202  1  0.91496100  0.41367200  0.68880100  1
  H  1203  1  0.89580300  0.43488300  0.69457000  1
  H  1205  1  0.86935300  0.45653300  0.74823800  1
  H  1206  1  0.87734400  0.45408300  0.72054800  1
  H  1208  1  0.87442700  0.41987700  0.79480600  1
  H  1210  1  0.95645200  0.40916500  0.71091100  1
  H  1218  1  0.95457200  0.62261400  0.21974800  1
  H  1219  1  0.95859900  0.62867000  0.24780700  1
  H  1221  1  0.91404700  0.58497600  0.18787500  1
  H  1222  1  0.93564000  0.60374600  0.19371400  1
  H  1224  1  0.92083500  0.58155800  0.31070000  1
  H  1225  1  0.90034600  0.56140300  0.30574400  1
  H  1227  1  0.87252200  0.53963200  0.25288800  1
  H  1228  1  0.87936000  0.54416500  0.28047000  1
  H  1230  1  0.90950600  0.54319500  0.20989000  1
  H  1232  1  0.91848900  0.62503700  0.29256800  1
  H  1240  1  0.78100400  0.04352000  0.62059700  1
  H  1241  1  0.75339500  0.03957200  0.62780100  1
  H  1243  1  0.81150300  0.08113000  0.57949300  1
  H  1244  1  0.80643300  0.06118600  0.60014900  1
  H  1246  1  0.68861800  0.08484000  0.58625100  1
  H  1247  1  0.69438700  0.10347500  0.56454200  1
  H  1249  1  0.74834100  0.12858200  0.54162800  1
  H  1250  1  0.72038000  0.12228000  0.54561600  1
  H  1252  1  0.79393200  0.12451100  0.58067500  1
  H  1254  1  0.71085700  0.04285600  0.59042000  1
  H  1262  1  0.21991800  0.04567000  0.37625000  1
  H  1263  1  0.24799300  0.04162700  0.37018100  1
  H  1265  1  0.18829500  0.07947600  0.42012600  1
  H  1266  1  0.19456100  0.05842100  0.40084100  1
  H  1268  1  0.31040400  0.07893300  0.41985500  1
  H  1269  1  0.30425200  0.09824200  0.44092000  1
  H  1271  1  0.25100300  0.12943600  0.45735700  1
  H  1272  1  0.27898900  0.12293200  0.45357200  1
  H  1274  1  0.20465100  0.12316200  0.41980600  1
  H  1276  1  0.29363700  0.08041500  0.37610200  1
  H  1284  1  0.78134900  0.95471100  0.37791800  1
  H  1285  1  0.75367700  0.96035900  0.37234000  1
  H  1287  1  0.81177600  0.91772000  0.41958800  1
  H  1288  1  0.80642600  0.93880000  0.40022000  1
  H  1290  1  0.68881500  0.91496700  0.41364000  1
  H  1291  1  0.69456100  0.89582800  0.43487400  1
  H  1293  1  0.74818600  0.86928800  0.45650100  1
  H  1294  1  0.72051700  0.87735400  0.45407400  1
  H  1296  1  0.79489100  0.87433000  0.42033000  1
  H  1298  1  0.71093300  0.95645200  0.40914700  1
  H  1306  1  0.21974300  0.95456300  0.62263500  1
  H  1307  1  0.24776500  0.95845600  0.62887600  1
  H  1309  1  0.18786600  0.91403800  0.58506800  1
  H  1310  1  0.19371100  0.93568700  0.60376100  1
  H  1312  1  0.31071500  0.92076600  0.58160700  1
  H  1313  1  0.30573300  0.90035000  0.56139600  1
  H  1315  1  0.25291500  0.87237800  0.53979800  1
  H  1316  1  0.28047100  0.87933000  0.54421700  1
  H  1318  1  0.20988800  0.90946300  0.54343700  1
  H  1320  1  0.29279300  0.91875500  0.62512700  1
  H  1328  1  0.78165900  0.62025000  0.95524000  1
  H  1329  1  0.75416400  0.62813900  0.95928100  1
  H  1331  1  0.81184600  0.58569000  0.91127200  1
  H  1332  1  0.80678100  0.60561000  0.93197100  1
  H  1334  1  0.68855300  0.58903500  0.91374400  1
  H  1335  1  0.69343800  0.56733500  0.89490200  1
  H  1337  1  0.74616700  0.53985300  0.87245400  1
  H  1338  1  0.71858200  0.54537300  0.87871800  1
  H  1340  1  0.78854800  0.54348400  0.90929300  1
  H  1342  1  0.71209200  0.59071300  0.95599500  1
  H  1350  1  0.21828800  0.37766900  0.95461700  1
  H  1351  1  0.24596700  0.37253000  0.96071000  1
  H  1353  1  0.18785500  0.41943400  0.91770000  1
  H  1354  1  0.19327200  0.40036400  0.93903800  1
  H  1356  1  0.31083900  0.41365800  0.91517100  1
  H  1357  1  0.30507000  0.43466300  0.89578800  1
  H  1359  1  0.25146100  0.45627000  0.86927600  1
  H  1360  1  0.27908500  0.45416400  0.87762900  1
  H  1362  1  0.20487500  0.41995600  0.87426500  1
  H  1364  1  0.28872300  0.40916500  0.95672300  1
  H  1372  1  0.78135200  0.37788700  0.04492200  1
  H  1373  1  0.75364200  0.37240500  0.03924100  1
  H  1375  1  0.81182500  0.41948600  0.08199800  1
  H  1376  1  0.80645800  0.40020700  0.06083200  1
  H  1378  1  0.68885800  0.41359800  0.08468800  1
  H  1379  1  0.69459700  0.43450100  0.10419600  1
  H  1381  1  0.74820400  0.45635500  0.13048500  1
  H  1382  1  0.72059100  0.45425300  0.12209700  1
  H  1384  1  0.79488900  0.42000100  0.12530200  1
  H  1386  1  0.71121800  0.40932100  0.04295600  1
  H  1394  1  0.21981300  0.62223600  0.04495300  1
  H  1395  1  0.24751800  0.63032800  0.04264100  1
  H  1397  1  0.18802300  0.58466600  0.08550000  1
  H  1398  1  0.19380500  0.60424500  0.06466200  1
  H  1400  1  0.31094600  0.58227000  0.07960500  1
  H  1401  1  0.30559600  0.56084200  0.09862000  1
  H  1403  1  0.25305400  0.53908900  0.12657500  1
  H  1404  1  0.28068800  0.54548800  0.12159600  1
  H  1406  1  0.21022400  0.54311400  0.08999100  1
  H  1408  1  0.29368000  0.62570000  0.08002200  1
  H  1416  1  0.62031900  0.04442200  0.21795400  1
  H  1417  1  0.62805600  0.04022300  0.24545200  1
  H  1419  1  0.58569500  0.08832800  0.18778300  1
  H  1420  1  0.60554700  0.06756600  0.19282800  1
  H  1422  1  0.58895200  0.08582600  0.31108700  1
  H  1423  1  0.56717600  0.10457200  0.30618200  1
  H  1425  1  0.53986000  0.12715500  0.25343100  1
  H  1426  1  0.54538500  0.12093400  0.28102000  1
  H  1428  1  0.54348900  0.09028200  0.21109600  1
  H  1430  1  0.59080700  0.04368700  0.28777400  1
  H  1438  1  0.37787100  0.04484900  0.78132500  1
  H  1439  1  0.37238400  0.03917800  0.75362200  1
  H  1441  1  0.41946500  0.08193700  0.81182100  1
  H  1442  1  0.40018700  0.06077500  0.80643700  1
  H  1444  1  0.41361400  0.08465400  0.68883300  1
  H  1445  1  0.43459300  0.10407000  0.69459900  1
  H  1447  1  0.45637800  0.13037800  0.74822900  1
  H  1448  1  0.45424600  0.12205200  0.72060400  1
  H  1450  1  0.41981900  0.12523700  0.79485100  1
  H  1452  1  0.40930400  0.04293800  0.71121100  1
  H  1460  1  0.37769200  0.95460100  0.21828400  1
  H  1461  1  0.37252800  0.96068800  0.24596500  1
  H  1463  1  0.41950100  0.91772400  0.18789100  1
  H  1464  1  0.40037200  0.93902000  0.19327400  1
  H  1466  1  0.41364900  0.91518100  0.31083700  1
  H  1467  1  0.43466500  0.89579700  0.30509500  1
  H  1469  1  0.45634400  0.86930600  0.25148100  1
  H  1470  1  0.45412100  0.87756400  0.27912300  1
  H  1472  1  0.42006100  0.87429200  0.20487900  1
  H  1474  1  0.40916300  0.95675900  0.28867600  1
  H  1482  1  0.62216400  0.95467300  0.77981600  1
  H  1483  1  0.63035500  0.95691600  0.75213100  1
  H  1485  1  0.58465500  0.91404000  0.81158500  1
  H  1486  1  0.60433300  0.93479100  0.80582300  1
  H  1488  1  0.58231100  0.91995000  0.68865800  1
  H  1489  1  0.56088000  0.90093800  0.69400500  1
  H  1491  1  0.53911900  0.87298800  0.74656800  1
  H  1492  1  0.54544800  0.87802400  0.71892500  1
  H  1494  1  0.54304300  0.90964700  0.78936900  1
  H  1496  1  0.62574300  0.91960900  0.70594900  1
  H  1504  1  0.04444800  0.78163200  0.37914100  1
  H  1505  1  0.04012400  0.75407200  0.37166500  1
  H  1507  1  0.08833000  0.81189000  0.41376300  1
  H  1508  1  0.06734300  0.80681800  0.39416200  1
  H  1510  1  0.08579500  0.68856800  0.41068000  1
  H  1511  1  0.10482600  0.69348300  0.43220000  1
  H  1513  1  0.12732600  0.74617200  0.45959800  1
  H  1514  1  0.12076200  0.71862700  0.45432700  1
  H  1516  1  0.09040600  0.78862500  0.45582700  1
  H  1518  1  0.04348300  0.71211600  0.40892200  1
  H  1526  1  0.04492500  0.21826600  0.62175400  1
  H  1527  1  0.03920400  0.24593400  0.62724400  1
  H  1529  1  0.08197800  0.18779500  0.58016400  1
  H  1530  1  0.06085500  0.19318000  0.59946900  1
  H  1532  1  0.08464500  0.31079800  0.58596800  1
  H  1533  1  0.10384100  0.30503000  0.56479800  1
  H  1535  1  0.13044600  0.25144000  0.54327600  1
  H  1536  1  0.12215100  0.27906300  0.54546500  1
  H  1538  1  0.12533500  0.20467700  0.57927800  1
  H  1540  1  0.04318700  0.28873600  0.59047600  1
  H  1548  1  0.95472400  0.78136800  0.62165900  1
  H  1549  1  0.96035900  0.75370600  0.62726900  1
  H  1551  1  0.91773100  0.81177200  0.57998400  1
  H  1552  1  0.93879100  0.80644000  0.59937700  1
  H  1554  1  0.91497700  0.68881700  0.58595900  1
  H  1555  1  0.89587200  0.69456100  0.56469300  1
  H  1557  1  0.86932600  0.74819500  0.54306500  1
  H  1558  1  0.87733100  0.72051400  0.54554900  1
  H  1560  1  0.87434400  0.79487800  0.57930500  1
  H  1562  1  0.95646800  0.71095400  0.59044200  1
  H  1570  1  0.95529300  0.22035000  0.37739100  1
  H  1571  1  0.95727900  0.24819500  0.36957000  1
  H  1573  1  0.92132600  0.18870500  0.42128300  1
  H  1574  1  0.94091000  0.19448900  0.40031900  1
  H  1576  1  0.91997500  0.31080900  0.41965400  1
  H  1577  1  0.90178900  0.30413700  0.44161700  1
  H  1579  1  0.87237800  0.25060900  0.45945900  1
  H  1580  1  0.87629300  0.27881200  0.45337400  1
  H  1582  1  0.87767400  0.20654200  0.41783600  1
  H  1584  1  0.91945200  0.29404100  0.37617600  1
  C  1  1  0.32427000  0.34207400  0.99855100  1
  C  2  1  0.31373400  0.35391000  0.01920400  1
  C  3  1  0.29563900  0.37195000  0.01744600  1
  C  4  1  0.28734600  0.37785500  0.99440300  1
  C  5  1  0.29745200  0.36773200  0.97336700  1
  C  6  1  0.31513300  0.34970400  0.97570900  1
  C  10  1  0.34325100  0.32352400  0.00000400  1
  C  11  1  0.35260800  0.31594700  0.02275100  1
  C  12  1  0.37087800  0.29844300  0.02478100  1
  C  13  1  0.38041700  0.28748300  0.00417600  1
  C  14  1  0.37271400  0.29451200  0.98118200  1
  C  15  1  0.35409200  0.31201700  0.97936400  1
  C  23  1  0.67561400  0.65686900  0.99879100  1
  C  24  1  0.68594800  0.64458700  0.01920600  1
  C  25  1  0.70427000  0.62690200  0.01709000  1
  C  26  1  0.71269500  0.62144200  0.99400300  1
  C  27  1  0.70245000  0.63181000  0.97316300  1
  C  28  1  0.68480800  0.64981600  0.97580900  1
  C  32  1  0.65696300  0.67553400  0.00075700  1
  C  33  1  0.64985200  0.68467100  0.02375300  1
  C  34  1  0.63177400  0.70223800  0.02640200  1
  C  35  1  0.62155600  0.71259800  0.00553600  1
  C  36  1  0.62705000  0.70423200  0.98243900  1
  C  37  1  0.64471500  0.68589400  0.98033000  1
  C  45  1  0.67552900  0.34225800  0.00117900  1
  C  46  1  0.68620400  0.35412100  0.98060800  1
  C  47  1  0.70428100  0.37212900  0.98244800  1
  C  48  1  0.71246600  0.37797200  0.00552600  1
  C  49  1  0.70220400  0.36786200  0.02650900  1
  C  50  1  0.68450100  0.34984900  0.02408900  1
  C  54  1  0.65651000  0.32378200  0.99950800  1
  C  55  1  0.64747100  0.31638400  0.97661900  1
  C  56  1  0.62927100  0.29892200  0.97401900  1
  C  57  1  0.61910700  0.28801700  0.99436400  1
  C  58  1  0.62661900  0.29476200  0.01756800  1
  C  59  1  0.64539200  0.31209100  0.01986300  1
  C  67  1  0.32354400  0.65635300  0.00014300  1
  C  68  1  0.31211200  0.64551100  0.97948300  1
  C  69  1  0.29464200  0.62689900  0.98128700  1
  C  70  1  0.28754200  0.61919200  0.00422600  1
  C  71  1  0.29838400  0.62873300  0.02488700  1
  C  72  1  0.31587500  0.64704500  0.02291200  1
  C  76  1  0.34206700  0.67532900  0.99855800  1
  C  77  1  0.34968600  0.68445800  0.97569300  1
  C  78  1  0.36774100  0.70210800  0.97330200  1
  C  79  1  0.37784800  0.71223500  0.99432600  1
  C  80  1  0.37195400  0.70391400  0.01735500  1
  C  81  1  0.35391700  0.68584700  0.01918100  1
  C  89  1  0.99917800  0.32390100  0.34257900  1
  C  90  1  0.02000600  0.31235800  0.35302300  1
  C  91  1  0.01848300  0.29501600  0.37185600  1
  C  92  1  0.99562400  0.28793200  0.37988800  1
  C  93  1  0.97483000  0.29873400  0.37059600  1
  C  94  1  0.97657600  0.31631400  0.35233900  1
  C  98  1  0.00032700  0.34270600  0.32377900  1
  C  99  1  0.02293000  0.35245300  0.31619100  1
  C  100  1  0.02466400  0.37073200  0.29863500  1
  C  101  1  0.00386200  0.38002000  0.28783000  1
  C  102  1  0.98098400  0.37198800  0.29487700  1
  C  103  1  0.97949200  0.35315500  0.31223000  1
  C  111  1  0.99891200  0.67566600  0.65687100  1
  C  112  1  0.01935800  0.68600900  0.64461200  1
  C  113  1  0.01730500  0.70434000  0.62691800  1
  C  114  1  0.99419600  0.71269200  0.62142000  1
  C  115  1  0.97330800  0.70244600  0.63172900  1
  C  116  1  0.97593000  0.68485900  0.64979300  1
  C  120  1  0.00083100  0.65699000  0.67552900  1
  C  121  1  0.02381300  0.64984900  0.68467500  1
  C  122  1  0.02643500  0.63176900  0.70224400  1
  C  123  1  0.00555900  0.62156300  0.71259600  1
  C  124  1  0.98246800  0.62707200  0.70421900  1
  C  125  1  0.98038800  0.64474600  0.68587700  1
  C  133  1  0.00119600  0.67546200  0.34218000  1
  C  134  1  0.98064600  0.68606300  0.35408500  1
  C  135  1  0.98255500  0.70413800  0.37209500  1
  C  136  1  0.00561200  0.71242600  0.37790900  1
  C  137  1  0.02655300  0.70224900  0.36768400  1
  C  138  1  0.02409800  0.68451800  0.34971500  1
  C  142  1  0.99950600  0.65646800  0.32369900  1
  C  143  1  0.97665400  0.64731700  0.31620600  1
  C  144  1  0.97434800  0.62903500  0.29875900  1
  C  145  1  0.99482400  0.61912300  0.28789800  1
  C  146  1  0.01790300  0.62675200  0.29475200  1
  C  147  1  0.01999200  0.64547400  0.31211200  1
  C  155  1  0.00076600  0.32400300  0.65695200  1
  C  156  1  0.98032100  0.31367600  0.64469000  1
  C  157  1  0.98238700  0.29537500  0.62697100  1
  C  158  1  0.00548300  0.28700600  0.62146700  1
  C  159  1  0.02636900  0.29725000  0.63177200  1
  C  160  1  0.02375000  0.31482100  0.64985200  1
  C  164  1  0.99883800  0.34267000  0.67561700  1
  C  165  1  0.97585600  0.34977300  0.68479900  1
  C  166  1  0.97323600  0.36786600  0.70235800  1
  C  167  1  0.99412500  0.37815300  0.71261400  1
  C  168  1  0.01721800  0.37264900  0.70424100  1
  C  169  1  0.01928300  0.35493400  0.68593700  1
  C  177  1  0.34207700  0.99856200  0.32426300  1
  C  178  1  0.35391500  0.01921500  0.31373000  1
  C  179  1  0.37194900  0.01745600  0.29563000  1
  C  180  1  0.37784400  0.99441400  0.28732800  1
  C  181  1  0.36772500  0.97337600  0.29743600  1
  C  182  1  0.34970400  0.97572000  0.31512200  1
  C  186  1  0.32353100  0.00002300  0.34324400  1
  C  187  1  0.31595100  0.02276900  0.35260400  1
  C  188  1  0.29844500  0.02479600  0.37087600  1
  C  189  1  0.28748800  0.00418700  0.38041000  1
  C  190  1  0.29452500  0.98120000  0.37270000  1
  C  191  1  0.31202700  0.97938000  0.35408100  1
  C  199  1  0.65630200  0.99943600  0.67609200  1
  C  200  1  0.64548400  0.02010000  0.68752900  1
  C  201  1  0.62686100  0.01829700  0.70497600  1
  C  202  1  0.61911600  0.99537100  0.71206000  1
  C  203  1  0.62868300  0.97470700  0.70125400  1
  C  204  1  0.64698900  0.97667000  0.68375400  1
  C  208  1  0.67527300  0.00102600  0.65757900  1
  C  209  1  0.68434200  0.02390100  0.64993000  1
  C  210  1  0.70200400  0.02630400  0.63190200  1
  C  211  1  0.71224000  0.00530400  0.62186400  1
  C  212  1  0.70393000  0.98226900  0.62774900  1
  C  213  1  0.68582100  0.98041500  0.64574400  1
  C  221  1  0.34219700  0.00107900  0.67548600  1
  C  222  1  0.35405100  0.98048900  0.68610100  1
  C  223  1  0.37207500  0.98232900  0.70418700  1
  C  224  1  0.37795600  0.00539900  0.71240100  1
  C  225  1  0.36784600  0.02639400  0.70219000  1
  C  226  1  0.34982000  0.02397300  0.68451000  1
  C  230  1  0.32370300  0.99945900  0.65647600  1
  C  231  1  0.31617500  0.97664100  0.64724900  1
  C  232  1  0.29873200  0.97444500  0.62894100  1
  C  233  1  0.28789500  0.99497400  0.61911800  1
  C  234  1  0.29478000  0.01801200  0.62680500  1
  C  235  1  0.31214700  0.02000200  0.64553300  1
  C  243  1  0.65693600  0.00080400  0.32399500  1
  C  244  1  0.64462900  0.98038600  0.31368100  1
  C  245  1  0.62691800  0.98249000  0.29537200  1
  C  246  1  0.62147800  0.00558700  0.28693900  1
  C  247  1  0.63188400  0.02642800  0.29715000  1
  C  248  1  0.64990600  0.02378300  0.31477400  1
  C  252  1  0.67560100  0.99886300  0.34266200  1
  C  253  1  0.68478300  0.97587700  0.34975300  1
  C  254  1  0.70234000  0.97324600  0.36785100  1
  C  255  1  0.71259900  0.99413400  0.37813800  1
  C  256  1  0.70423400  0.01723200  0.37263800  1
  C  257  1  0.68592400  0.01930500  0.35493400  1
  C  265  1  0.82404500  0.84287500  0.49923400  1
  C  266  1  0.81263500  0.85333900  0.52014000  1
  C  267  1  0.79536800  0.87225300  0.51877300  1
  C  268  1  0.78827500  0.88035900  0.49595300  1
  C  269  1  0.79890700  0.87110700  0.47504200  1
  C  270  1  0.81635700  0.85268300  0.47665400  1
  C  274  1  0.84286400  0.82404900  0.50037300  1
  C  275  1  0.85266400  0.81635900  0.52295500  1
  C  276  1  0.87111200  0.79893800  0.52457500  1
  C  277  1  0.88033900  0.78827000  0.50366900  1
  C  278  1  0.87224200  0.79536200  0.48084500  1
  C  279  1  0.85333500  0.81263900  0.47947100  1
  C  287  1  0.17554100  0.15679100  0.49927600  1
  C  288  1  0.18700400  0.14633400  0.52012400  1
  C  289  1  0.20423600  0.12740700  0.51863600  1
  C  290  1  0.21129800  0.11928600  0.49580900  1
  C  291  1  0.20056300  0.12856900  0.47498000  1
  C  292  1  0.18310400  0.14695200  0.47667900  1
  C  296  1  0.15673900  0.17558300  0.50047800  1
  C  297  1  0.14693800  0.18327000  0.52306300  1
  C  298  1  0.12848200  0.20069000  0.52465600  1
  C  299  1  0.11925600  0.21132700  0.50374500  1
  C  300  1  0.12739000  0.20420300  0.48096100  1
  C  301  1  0.14630900  0.18698100  0.47957200  1
  C  309  1  0.17536400  0.84278100  0.50083200  1
  C  310  1  0.18562300  0.85512800  0.48040300  1
  C  311  1  0.20384100  0.87292900  0.48249400  1
  C  312  1  0.21215700  0.87847900  0.50560600  1
  C  313  1  0.20193700  0.86808200  0.52646200  1
  C  314  1  0.18452200  0.84986700  0.52381500  1
  C  318  1  0.15670300  0.82412300  0.49892900  1
  C  319  1  0.14969500  0.81492900  0.47594800  1
  C  320  1  0.13152400  0.79748200  0.47327400  1
  C  321  1  0.12099900  0.78732400  0.49409700  1
  C  322  1  0.12650900  0.79563500  0.51723800  1
  C  323  1  0.14431900  0.81386000  0.51933700  1
  C  331  1  0.82384300  0.15691200  0.50058600  1
  C  332  1  0.81226500  0.14616500  0.47989300  1
  C  333  1  0.79520700  0.12708400  0.48156000  1
  C  334  1  0.78839300  0.11914700  0.50454300  1
  C  335  1  0.79908400  0.12886300  0.52522700  1
  C  336  1  0.81639300  0.14736200  0.52329300  1
  C  340  1  0.84262000  0.17574100  0.49922900  1
  C  341  1  0.85204400  0.18307300  0.47646800  1
  C  342  1  0.87040800  0.20042600  0.47411200  1
  C  343  1  0.88038800  0.21122400  0.49462600  1
  C  344  1  0.87261300  0.20451400  0.51777300  1
  C  345  1  0.85354500  0.18740000  0.51975400  1
  C  353  1  0.49951900  0.82369700  0.84345300  1
  C  354  1  0.52022000  0.81231900  0.85431900  1
  C  355  1  0.51850400  0.79493800  0.87303900  1
  C  356  1  0.49556500  0.78788300  0.88080700  1
  C  357  1  0.47486600  0.79869600  0.87128500  1
  C  358  1  0.47677900  0.81607300  0.85285700  1
  C  362  1  0.50100900  0.84224800  0.82447500  1
  C  363  1  0.52386000  0.84994600  0.81540200  1
  C  364  1  0.52624700  0.86817100  0.79793500  1
  C  365  1  0.50522500  0.87833700  0.78784200  1
  C  366  1  0.48215800  0.87231500  0.79602500  1
  C  367  1  0.48037400  0.85413500  0.81398400  1
  C  375  1  0.49953600  0.17586200  0.15625100  1
  C  376  1  0.52018700  0.18729500  0.14537800  1
  C  377  1  0.51838000  0.20465500  0.12664700  1
  C  378  1  0.49542400  0.21166400  0.11886000  1
  C  379  1  0.47480500  0.20076700  0.12842700  1
  C  380  1  0.47679300  0.18338800  0.14682900  1
  C  384  1  0.50102300  0.15731400  0.17521100  1
  C  385  1  0.52387600  0.14970200  0.18431000  1
  C  386  1  0.52628100  0.13154700  0.20183100  1
  C  387  1  0.50530300  0.12125800  0.21188300  1
  C  388  1  0.48222800  0.12721000  0.20365500  1
  C  389  1  0.48041200  0.14538600  0.18569500  1
  C  397  1  0.50106300  0.17514300  0.84218700  1
  C  398  1  0.48046900  0.18559800  0.85412800  1
  C  399  1  0.48235100  0.20357900  0.87225000  1
  C  400  1  0.50540600  0.21184300  0.87818500  1
  C  401  1  0.52638200  0.20173700  0.86796800  1
  C  402  1  0.52394100  0.18423600  0.84979300  1
  C  406  1  0.49946500  0.15617300  0.82368100  1
  C  407  1  0.47670500  0.14680800  0.81605900  1
  C  408  1  0.47478000  0.12836100  0.79870300  1
  C  409  1  0.49545700  0.11882100  0.78789100  1
  C  410  1  0.51837100  0.12658700  0.79497600  1
  C  411  1  0.52014200  0.14528800  0.81233400  1
  C  419  1  0.50032500  0.82411400  0.15693400  1
  C  420  1  0.47955000  0.81264400  0.14627400  1
  C  421  1  0.48114800  0.79540800  0.12731900  1
  C  422  1  0.50408600  0.78841100  0.11939200  1
  C  423  1  0.52485100  0.79909700  0.12891200  1
  C  424  1  0.52298600  0.81651600  0.14730500  1
  C  428  1  0.49909100  0.84293100  0.17574800  1
  C  429  1  0.47647900  0.85269600  0.18336400  1
  C  430  1  0.47481600  0.87121100  0.20071500  1
  C  431  1  0.49568400  0.88054300  0.21137400  1
  C  432  1  0.51852600  0.87241800  0.20439100  1
  C  433  1  0.51994700  0.85343800  0.18721400  1
  C  441  1  0.84344400  0.49953000  0.82372000  1
  C  442  1  0.85431900  0.52023200  0.81235000  1
  C  443  1  0.87302800  0.51851900  0.79495600  1
  C  444  1  0.88079100  0.49557900  0.78790100  1
  C  445  1  0.87127100  0.47488300  0.79871700  1
  C  446  1  0.85284100  0.47679100  0.81609300  1
  C  450  1  0.82445700  0.50100700  0.84226300  1
  C  451  1  0.81532000  0.52385300  0.84986800  1
  C  452  1  0.79779600  0.52625800  0.86802400  1
  C  453  1  0.78775300  0.50527600  0.87830800  1
  C  454  1  0.79599800  0.48220300  0.87236000  1
  C  455  1  0.81398400  0.48039400  0.85419800  1
  C  463  1  0.15624900  0.49951000  0.17588000  1
  C  464  1  0.14537800  0.52015800  0.18731700  1
  C  465  1  0.12663200  0.51834300  0.20466200  1
  C  466  1  0.11883800  0.49538800  0.21166300  1
  C  467  1  0.12841300  0.47477300  0.20076700  1
  C  468  1  0.14681900  0.47676800  0.18339500  1
  C  472  1  0.17521000  0.50101600  0.15733600  1
  C  473  1  0.18427800  0.52387600  0.14967600  1
  C  474  1  0.20175100  0.52627200  0.13146600  1
  C  475  1  0.21182200  0.50526100  0.12124900  1
  C  476  1  0.20364000  0.48218800  0.12724800  1
  C  477  1  0.18570100  0.48039000  0.14543600  1
  C  485  1  0.84216200  0.50109700  0.17509800  1
  C  486  1  0.85408500  0.48048000  0.18555100  1
  C  487  1  0.87222400  0.48231500  0.20353000  1
  C  488  1  0.87819400  0.50536600  0.21178400  1
  C  489  1  0.86798500  0.52636400  0.20170400  1
  C  490  1  0.84979800  0.52395500  0.18420700  1
  C  494  1  0.82363600  0.49957000  0.15612100  1
  C  495  1  0.81600700  0.47682600  0.14673400  1
  C  496  1  0.79864900  0.47493000  0.12828800  1
  C  497  1  0.78783100  0.49562600  0.11877800  1
  C  498  1  0.79489300  0.51855500  0.12654900  1
  C  499  1  0.81228300  0.52027200  0.14524700  1
  C  507  1  0.15692600  0.50027400  0.82408200  1
  C  508  1  0.14623700  0.47954000  0.81259400  1
  C  509  1  0.12728100  0.48121000  0.79537300  1
  C  510  1  0.11938600  0.50417100  0.78839600  1
  C  511  1  0.12895900  0.52489400  0.79910600  1
  C  512  1  0.14733600  0.52296400  0.81652300  1
  C  516  1  0.17572300  0.49897600  0.84288400  1
  C  517  1  0.18332600  0.47635400  0.85264000  1
  C  518  1  0.20067000  0.47468600  0.87116800  1
  C  519  1  0.21131800  0.49554000  0.88052000  1
  C  520  1  0.20431500  0.51835600  0.87238200  1
  C  521  1  0.18718700  0.51981700  0.85338800  1
  C  529  1  0.42993800  0.23234500  0.90166200  1
  C  530  1  0.41327000  0.22360000  0.91943900  1
  C  531  1  0.39821600  0.24032800  0.93236800  1
  C  532  1  0.40125300  0.26579100  0.92873100  1
  C  533  1  0.41951200  0.27459400  0.91266200  1
  C  534  1  0.43306500  0.25783700  0.89820400  1
  C  547  1  0.44167800  0.21571300  0.88620800  1
  C  549  1  0.38568400  0.28233500  0.94029800  1
  C  551  1  0.57110900  0.76663800  0.90161200  1
  C  552  1  0.58722100  0.77546200  0.91982700  1
  C  553  1  0.60171100  0.75871400  0.93333700  1
  C  554  1  0.59825200  0.73324000  0.93014300  1
  C  555  1  0.58047500  0.72444300  0.91352900  1
  C  556  1  0.56753700  0.74117100  0.89850600  1
  C  569  1  0.55942600  0.78316500  0.88613400  1
  C  571  1  0.61363400  0.71664100  0.94189300  1
  C  573  1  0.57096600  0.23280300  0.09820600  1
  C  574  1  0.58709600  0.22389400  0.08005300  1
  C  575  1  0.60181600  0.24057500  0.06674400  1
  C  576  1  0.59855100  0.26604400  0.07013000  1
  C  577  1  0.58055200  0.27494800  0.08643600  1
  C  578  1  0.56744500  0.25827400  0.10134300  1
  C  591  1  0.55927300  0.21633200  0.11367300  1
  C  593  1  0.61392700  0.28251900  0.05831600  1
  C  595  1  0.42878000  0.76671200  0.09795700  1
  C  596  1  0.41256400  0.77545800  0.07977500  1
  C  597  1  0.39801200  0.75869500  0.06630200  1
  C  598  1  0.40136100  0.73320400  0.06953400  1
  C  599  1  0.41922800  0.72448300  0.08611100  1
  C  600  1  0.43228300  0.74123000  0.10105200  1
  C  613  1  0.44027000  0.78330800  0.11364000  1
  C  615  1  0.38577500  0.71653900  0.05798400  1
  C  617  1  0.90172400  0.42990700  0.23239900  1
  C  618  1  0.91951100  0.41322400  0.22369200  1
  C  619  1  0.93243300  0.39816700  0.24044100  1
  C  620  1  0.92875300  0.40113400  0.26591000  1
  C  621  1  0.91270200  0.41944700  0.27465900  1
  C  622  1  0.89826600  0.43302500  0.25789100  1
  C  635  1  0.88625100  0.44163500  0.21574200  1
  C  637  1  0.94005600  0.38535000  0.28250800  1
  C  639  1  0.90161200  0.57111600  0.76663600  1
  C  640  1  0.91983100  0.58722600  0.77545800  1
  C  641  1  0.93334500  0.60171500  0.75871100  1
  C  642  1  0.93015600  0.59825500  0.73323500  1
  C  643  1  0.91353600  0.58047800  0.72444300  1
  C  644  1  0.89851100  0.56754300  0.74116900  1
  C  657  1  0.88612800  0.55943900  0.78316700  1
  C  659  1  0.94191100  0.61363800  0.71663100  1
  C  661  1  0.09823200  0.57093000  0.23279400  1
  C  662  1  0.08008800  0.58707300  0.22389100  1
  C  663  1  0.06683600  0.60183400  0.24057700  1
  C  664  1  0.07031500  0.59861800  0.26603900  1
  C  665  1  0.08653300  0.58054700  0.27494400  1
  C  666  1  0.10139300  0.56740900  0.25826200  1
  C  679  1  0.11368100  0.55923100  0.21632100  1
  C  681  1  0.05865600  0.61407500  0.28252300  1
  C  683  1  0.09801000  0.42883100  0.76676600  1
  C  684  1  0.07984400  0.41261800  0.77554900  1
  C  685  1  0.06636300  0.39807300  0.75880300  1
  C  686  1  0.06955700  0.40149300  0.73332300  1
  C  687  1  0.08615100  0.41930400  0.72454800  1
  C  688  1  0.10111100  0.43233400  0.74128400  1
  C  701  1  0.11366500  0.44034900  0.78333700  1
  C  703  1  0.05779100  0.38609800  0.71670900  1
  C  705  1  0.23246000  0.90180000  0.42993200  1
  C  706  1  0.22366900  0.91951500  0.41323900  1
  C  707  1  0.24038700  0.93240900  0.39816000  1
  C  708  1  0.26585100  0.92876200  0.40119000  1
  C  709  1  0.27468200  0.91270600  0.41944500  1
  C  710  1  0.25794000  0.89826600  0.43301500  1
  C  723  1  0.21587400  0.88652700  0.44187500  1
  C  725  1  0.28237800  0.94032000  0.38562300  1
  C  727  1  0.76670800  0.90153800  0.57113000  1
  C  728  1  0.77544600  0.91982200  0.58723000  1
  C  729  1  0.75866900  0.93335200  0.60170600  1
  C  730  1  0.73318400  0.93012500  0.59831500  1
  C  731  1  0.72447500  0.91351800  0.58047100  1
  C  732  1  0.74123400  0.89851000  0.56751200  1
  C  745  1  0.78331500  0.88581600  0.55974000  1
  C  747  1  0.71651400  0.94166300  0.61389100  1
  C  749  1  0.23266600  0.09837300  0.57093900  1
  C  750  1  0.22382200  0.08015800  0.58704600  1
  C  751  1  0.24052600  0.06688600  0.60178200  1
  C  752  1  0.26598600  0.07038400  0.59857100  1
  C  753  1  0.27484900  0.08659500  0.58047300  1
  C  754  1  0.25813900  0.10145600  0.56734600  1
  C  767  1  0.21613000  0.11406200  0.55955200  1
  C  769  1  0.28249700  0.05878200  0.61406600  1
  C  771  1  0.76673900  0.09796400  0.42895700  1
  C  772  1  0.77553300  0.07985100  0.41268600  1
  C  773  1  0.75880100  0.06638700  0.39810200  1
  C  774  1  0.73331800  0.06957300  0.40150000  1
  C  775  1  0.72452600  0.08615700  0.41931100  1
  C  776  1  0.74124800  0.10109800  0.43238100  1
  C  789  1  0.78328800  0.11353800  0.44063600  1
  C  791  1  0.71671500  0.05780400  0.38609100  1
  C  793  1  0.23260800  0.42969000  0.09758900  1
  C  794  1  0.22394700  0.41305600  0.07972600  1
  C  795  1  0.24073600  0.39831500  0.06644200  1
  C  796  1  0.26623600  0.40159000  0.06969600  1
  C  797  1  0.27489900  0.41950800  0.08626000  1
  C  798  1  0.25811000  0.43285000  0.10094200  1
  C  811  1  0.21592400  0.44146200  0.11309000  1
  C  813  1  0.28293400  0.38596600  0.05812200  1
  C  815  1  0.76663100  0.57114500  0.09800200  1
  C  816  1  0.77546200  0.58724100  0.07977900  1
  C  817  1  0.75871400  0.60171900  0.06626000  1
  C  818  1  0.73324200  0.59824600  0.06944600  1
  C  819  1  0.72443900  0.58048000  0.08606700  1
  C  820  1  0.74116300  0.56755500  0.10110000  1
  C  833  1  0.78315200  0.55947500  0.11348300  1
  C  835  1  0.71664400  0.61358900  0.05765900  1
  C  837  1  0.23267700  0.57079300  0.90121100  1
  C  838  1  0.22383700  0.58697200  0.91936700  1
  C  839  1  0.24054400  0.60180000  0.93252700  1
  C  840  1  0.26599900  0.59866300  0.92892100  1
  C  841  1  0.27486500  0.58047100  0.91282300  1
  C  842  1  0.25814800  0.56726400  0.89804900  1
  C  855  1  0.21614100  0.55929800  0.88561200  1
  C  857  1  0.28251200  0.61419600  0.94044500  1
  C  859  1  0.76701900  0.42971000  0.90203600  1
  C  860  1  0.77570400  0.41307800  0.91989200  1
  C  861  1  0.75893300  0.39835100  0.93321100  1
  C  862  1  0.73343000  0.40166500  0.93003100  1
  C  863  1  0.72474100  0.41953000  0.91342100  1
  C  864  1  0.74151400  0.43285200  0.89870300  1
  C  877  1  0.78368900  0.44148000  0.88651800  1
  C  879  1  0.71676000  0.38613800  0.94176300  1
  C  881  1  0.42969400  0.90201800  0.76702100  1
  C  882  1  0.41307300  0.91988500  0.77569700  1
  C  883  1  0.39834600  0.93320000  0.75892200  1
  C  884  1  0.40165400  0.92999700  0.73342100  1
  C  885  1  0.41953000  0.91339900  0.72473700  1
  C  886  1  0.43285200  0.89868500  0.74151400  1
  C  899  1  0.44144200  0.88648700  0.78369400  1
  C  901  1  0.38609200  0.94167100  0.71674500  1
  C  903  1  0.57101700  0.90151400  0.23287900  1
  C  904  1  0.58714500  0.91975000  0.22409500  1
  C  905  1  0.60163400  0.93328100  0.24084100  1
  C  906  1  0.59817600  0.93011400  0.26631700  1
  C  907  1  0.58040100  0.91348600  0.27509400  1
  C  908  1  0.56744900  0.89846300  0.25835900  1
  C  921  1  0.55950200  0.88586800  0.21631000  1
  C  923  1  0.61354200  0.94191100  0.28292500  1
  C  925  1  0.57090800  0.09830700  0.76683500  1
  C  926  1  0.58706200  0.08017100  0.77572400  1
  C  927  1  0.60188800  0.06703000  0.75902000  1
  C  928  1  0.59874600  0.07065700  0.73356700  1
  C  929  1  0.58055800  0.08674000  0.72467400  1
  C  930  1  0.56736900  0.10151800  0.74137800  1
  C  943  1  0.55924900  0.11373500  0.78332400  1
  C  945  1  0.61426100  0.05913900  0.71707000  1
  C  947  1  0.42971400  0.09757600  0.23260800  1
  C  948  1  0.41306700  0.07972400  0.22394300  1
  C  949  1  0.39832000  0.06644500  0.24073400  1
  C  950  1  0.40159200  0.06970100  0.26623400  1
  C  951  1  0.41951700  0.08625800  0.27489700  1
  C  952  1  0.43286300  0.10093500  0.25811000  1
  C  965  1  0.44149800  0.11306800  0.21592600  1
  C  967  1  0.38597000  0.05813100  0.28293300  1
  C  969  1  0.90170000  0.23289200  0.57052000  1
  C  970  1  0.91975500  0.22408800  0.58686100  1
  C  971  1  0.93320600  0.24080400  0.60148200  1
  C  972  1  0.93003500  0.26629300  0.59809600  1
  C  973  1  0.91345000  0.27510000  0.58029400  1
  C  974  1  0.89852600  0.25838800  0.56718700  1
  C  987  1  0.88622600  0.21636100  0.55865900  1
  C  989  1  0.94181100  0.28288400  0.61352200  1
  C  991  1  0.90154700  0.76671500  0.42848400  1
  C  992  1  0.91982700  0.77547100  0.41239000  1
  C  993  1  0.93339000  0.75870900  0.39793000  1
  C  994  1  0.93023500  0.73322400  0.40136100  1
  C  995  1  0.91357800  0.72449300  0.41915100  1
  C  996  1  0.89853700  0.74123700  0.43209000  1
  C  1009  1  0.88581400  0.78331000  0.43988000  1
  C  1011  1  0.94192000  0.71657400  0.38587800  1
  C  1013  1  0.09837600  0.23270800  0.42866300  1
  C  1014  1  0.08015900  0.22391800  0.41252700  1
  C  1015  1  0.06698400  0.24066000  0.39773200  1
  C  1016  1  0.07063300  0.26612200  0.40081000  1
  C  1017  1  0.08673000  0.27491200  0.41905700  1
  C  1018  1  0.10150200  0.25817300  0.43225600  1
  C  1031  1  0.11406200  0.21613400  0.44001500  1
  C  1033  1  0.05937200  0.28270100  0.38506000  1
  C  1035  1  0.09750400  0.76694700  0.56988500  1
  C  1036  1  0.07971800  0.77569300  0.58653600  1
  C  1037  1  0.06646300  0.75893100  0.60129400  1
  C  1038  1  0.06969900  0.73344200  0.59794800  1
  C  1039  1  0.08625800  0.72469200  0.58008700  1
  C  1040  1  0.10094200  0.74145600  0.56676300  1
  C  1053  1  0.11279300  0.78355700  0.55789300  1
  C  1055  1  0.05790700  0.71681400  0.61335800  1
  C  1057  1  0.57318700  0.76816200  0.09851500  1
  C  1058  1  0.58862200  0.77558700  0.07924800  1
  C  1059  1  0.60158100  0.75768700  0.06593200  1
  C  1060  1  0.59754900  0.73266800  0.07139600  1
  C  1061  1  0.58010300  0.72522100  0.08890300  1
  C  1062  1  0.56753900  0.74323100  0.10249900  1
  C  1075  1  0.56718100  0.78549100  0.11583800  1
  C  1077  1  0.60391600  0.71579200  0.05405700  1
  C  1079  1  0.42683200  0.23137000  0.09767000  1
  C  1080  1  0.41147100  0.22443100  0.07815300  1
  C  1081  1  0.39775300  0.24264300  0.06604200  1
  C  1082  1  0.40161800  0.26740700  0.07239600  1
  C  1083  1  0.42113500  0.27435000  0.08774500  1
  C  1084  1  0.43321900  0.25614900  0.10149900  1
  C  1097  1  0.43247800  0.21380200  0.11483400  1
  C  1099  1  0.38430500  0.28492100  0.06707800  1
  C  1101  1  0.42560200  0.76825200  0.90039800  1
  C  1102  1  0.41045500  0.77575100  0.91986500  1
  C  1103  1  0.39787600  0.75785900  0.93356500  1
  C  1104  1  0.40216600  0.73280700  0.92842200  1
  C  1105  1  0.41941100  0.72536400  0.91072000  1
  C  1106  1  0.43152900  0.74333200  0.89667300  1
  C  1119  1  0.43235200  0.78567100  0.88347900  1
  C  1121  1  0.39574200  0.71601600  0.94582900  1
  C  1123  1  0.57144500  0.23179400  0.90266400  1
  C  1124  1  0.58893100  0.22435100  0.92016900  1
  C  1125  1  0.60237000  0.24233400  0.93293100  1
  C  1126  1  0.59818500  0.26722000  0.92756100  1
  C  1127  1  0.57907000  0.27467300  0.91198400  1
  C  1128  1  0.56593700  0.25683500  0.89878200  1
  C  1141  1  0.55414600  0.21489800  0.89607000  1
  C  1143  1  0.61635500  0.28411200  0.93177000  1
  C  1145  1  0.09844300  0.57310400  0.76817300  1
  C  1146  1  0.07919200  0.58856200  0.77558800  1
  C  1147  1  0.06591300  0.60154700  0.75768500  1
  C  1148  1  0.07140500  0.59752800  0.73266900  1
  C  1149  1  0.08890600  0.58006900  0.72523200  1
  C  1150  1  0.10246500  0.56747800  0.74324700  1
  C  1163  1  0.11583000  0.56724300  0.78548000  1
  C  1165  1  0.05407700  0.60389600  0.71578500  1
  C  1167  1  0.09765600  0.42681900  0.23139500  1
  C  1168  1  0.07813800  0.41146400  0.22445000  1
  C  1169  1  0.06602300  0.39774300  0.24266200  1
  C  1170  1  0.07237300  0.40158500  0.26744300  1
  C  1171  1  0.08773400  0.42110300  0.27437700  1
  C  1172  1  0.10148400  0.43319900  0.25617200  1
  C  1185  1  0.11483300  0.43244400  0.21382900  1
  C  1187  1  0.06681400  0.38436400  0.28500900  1
  C  1189  1  0.90037800  0.42564200  0.76826800  1
  C  1190  1  0.91983300  0.41047400  0.77576000  1
  C  1191  1  0.93346900  0.39784400  0.75786200  1
  C  1192  1  0.92825100  0.40210300  0.73281800  1
  C  1193  1  0.91060800  0.41940200  0.72537100  1
  C  1194  1  0.89661900  0.43155700  0.74335000  1
  C  1207  1  0.88346700  0.43237500  0.78569100  1
  C  1209  1  0.94561400  0.39569700  0.71601400  1
  C  1211  1  0.90261600  0.57139800  0.23188100  1
  C  1212  1  0.92001300  0.58897600  0.22442300  1
  C  1213  1  0.93248900  0.60269400  0.24240400  1
  C  1214  1  0.92678300  0.59877700  0.26729500  1
  C  1215  1  0.91146700  0.57946400  0.27478700  1
  C  1216  1  0.89856700  0.56604400  0.25692900  1
  C  1229  1  0.89607700  0.55406700  0.21500900  1
  C  1231  1  0.93196700  0.61649100  0.28442200  1
  C  1233  1  0.76808100  0.09842300  0.57330300  1
  C  1234  1  0.77552500  0.07912400  0.58867600  1
  C  1235  1  0.75762900  0.06575800  0.60158100  1
  C  1236  1  0.73260600  0.07117300  0.59751100  1
  C  1237  1  0.72516000  0.08874400  0.58012300  1
  C  1238  1  0.74316400  0.10239400  0.56761300  1
  C  1251  1  0.78535200  0.11585300  0.56754300  1
  C  1253  1  0.71574500  0.05380600  0.60387600  1
  C  1255  1  0.23133700  0.09772700  0.42686100  1
  C  1256  1  0.22440500  0.07822100  0.41146900  1
  C  1257  1  0.24261600  0.06609200  0.39774800  1
  C  1258  1  0.26738200  0.07242600  0.40161200  1
  C  1259  1  0.27433600  0.08776500  0.42113100  1
  C  1260  1  0.25613600  0.10152400  0.43322400  1
  C  1273  1  0.21371000  0.11477900  0.43280000  1
  C  1275  1  0.28489700  0.06708600  0.38429600  1
  C  1277  1  0.76830100  0.90035300  0.42569800  1
  C  1278  1  0.77577600  0.91978900  0.41048900  1
  C  1279  1  0.75788200  0.93343500  0.39784600  1
  C  1280  1  0.73283200  0.92823800  0.40209400  1
  C  1281  1  0.72538400  0.91059700  0.41939400  1
  C  1282  1  0.74336100  0.89661000  0.43156800  1
  C  1295  1  0.78576500  0.88353900  0.43269500  1
  C  1297  1  0.71603000  0.94561600  0.39567900  1
  C  1299  1  0.23189700  0.90252200  0.57156600  1
  C  1300  1  0.22443100  0.91995700  0.58909500  1
  C  1301  1  0.24242000  0.93241800  0.60280000  1
  C  1302  1  0.26731200  0.92666500  0.59889800  1
  C  1303  1  0.27480200  0.91138200  0.57955900  1
  C  1304  1  0.25693600  0.89848300  0.56615800  1
  C  1317  1  0.21501400  0.89600500  0.55428200  1
  C  1319  1  0.28449400  0.93207500  0.61648500  1
  C  1321  1  0.76756900  0.57226300  0.90137900  1
  C  1322  1  0.77555800  0.59005900  0.91823800  1
  C  1323  1  0.75796500  0.60305300  0.93189800  1
  C  1324  1  0.73284600  0.59883300  0.92718000  1
  C  1325  1  0.72482700  0.58178800  0.90957700  1
  C  1326  1  0.74242400  0.56781700  0.89690800  1
  C  1339  1  0.78385700  0.55420400  0.89559000  1
  C  1341  1  0.71652700  0.60447800  0.94523000  1
  C  1343  1  0.23137500  0.42546700  0.90034400  1
  C  1344  1  0.22387600  0.41036400  0.91984400  1
  C  1345  1  0.24176000  0.39782000  0.93358500  1
  C  1346  1  0.26680800  0.40211200  0.92847800  1
  C  1347  1  0.27427300  0.41935800  0.91077400  1
  C  1348  1  0.25630200  0.43143300  0.89668200  1
  C  1361  1  0.21393800  0.43236300  0.88348100  1
  C  1363  1  0.28363900  0.39572400  0.94585600  1
  C  1365  1  0.76830600  0.42557300  0.09934000  1
  C  1366  1  0.77581400  0.41044700  0.07985900  1
  C  1367  1  0.75791600  0.39789200  0.06615500  1
  C  1368  1  0.73287700  0.40221000  0.07132200  1
  C  1369  1  0.72541200  0.41940900  0.08904300  1
  C  1370  1  0.74338600  0.43151000  0.10308000  1
  C  1383  1  0.78572700  0.43241500  0.11619800  1
  C  1385  1  0.71610800  0.39587000  0.05391100  1
  C  1387  1  0.23207200  0.57137800  0.09704200  1
  C  1388  1  0.22458000  0.58910800  0.07983000  1
  C  1389  1  0.24253200  0.60322600  0.06776400  1
  C  1390  1  0.26744200  0.59959700  0.07376200  1
  C  1391  1  0.27497900  0.58007600  0.08880600  1
  C  1392  1  0.25712600  0.56629500  0.10133700  1
  C  1405  1  0.21526500  0.55396200  0.10346700  1
  C  1407  1  0.28478700  0.61670200  0.06733700  1
  C  1409  1  0.57227300  0.09821400  0.23205600  1
  C  1410  1  0.59007400  0.08135900  0.22407300  1
  C  1411  1  0.60306000  0.06769800  0.24167100  1
  C  1412  1  0.59884400  0.07242000  0.26679500  1
  C  1413  1  0.58176400  0.09000400  0.27480000  1
  C  1414  1  0.56780400  0.10267800  0.25719800  1
  C  1427  1  0.55421700  0.10398900  0.21576700  1
  C  1429  1  0.60454400  0.05439500  0.28313100  1
  C  1431  1  0.42553500  0.09929200  0.76829200  1
  C  1432  1  0.41042400  0.07979800  0.77579300  1
  C  1433  1  0.39786200  0.06610100  0.75789700  1
  C  1434  1  0.40215000  0.07128600  0.73286400  1
  C  1435  1  0.41939400  0.08897600  0.72539300  1
  C  1436  1  0.43150000  0.10301200  0.74337500  1
  C  1449  1  0.43229200  0.11619100  0.78570900  1
  C  1451  1  0.39582900  0.05388600  0.71603900  1
  C  1453  1  0.42554100  0.90037100  0.23138200  1
  C  1454  1  0.41040200  0.91984900  0.22388500  1
  C  1455  1  0.39784000  0.93357900  0.24177000  1
  C  1456  1  0.40214300  0.92846400  0.26682600  1
  C  1457  1  0.41937100  0.91075400  0.27428000  1
  C  1458  1  0.43146700  0.89668000  0.25631500  1
  C  1471  1  0.43246000  0.88351300  0.21394500  1
  C  1473  1  0.39572600  0.94588100  0.28360400  1
  C  1475  1  0.57135400  0.90256300  0.76753500  1
  C  1476  1  0.58910400  0.91974800  0.77503800  1
  C  1477  1  0.60323500  0.93180600  0.75709100  1
  C  1478  1  0.59961300  0.92580800  0.73218000  1
  C  1479  1  0.58008700  0.91077700  0.72463100  1
  C  1480  1  0.56628800  0.89826000  0.74248000  1
  C  1493  1  0.55389700  0.89618400  0.78430400  1
  C  1495  1  0.61670400  0.93226500  0.71483800  1
  C  1497  1  0.09832900  0.76760200  0.42716800  1
  C  1498  1  0.08137800  0.77557800  0.40945200  1
  C  1499  1  0.06764600  0.75796200  0.39657600  1
  C  1500  1  0.07234300  0.73284800  0.40085700  1
  C  1501  1  0.09000200  0.72484900  0.41785400  1
  C  1502  1  0.10275200  0.74246200  0.43172400  1
  C  1515  1  0.10414800  0.78393800  0.44514300  1
  C  1517  1  0.05431000  0.71650900  0.39519700  1
  C  1519  1  0.09932200  0.23130700  0.57402100  1
  C  1520  1  0.07986800  0.22382600  0.58920000  1
  C  1521  1  0.06619400  0.24172400  0.60180300  1
  C  1522  1  0.07134600  0.26677500  0.59754000  1
  C  1523  1  0.08900200  0.27422000  0.58024200  1
  C  1524  1  0.10302200  0.25624300  0.56810200  1
  C  1537  1  0.11610100  0.21384000  0.56696100  1
  C  1539  1  0.05401600  0.28361900  0.60394500  1
  C  1541  1  0.90036400  0.76830100  0.57389000  1
  C  1542  1  0.91979800  0.77578000  0.58910000  1
  C  1543  1  0.93344000  0.75788900  0.60175300  1
  C  1544  1  0.92824200  0.73283700  0.59750600  1
  C  1545  1  0.91060600  0.72538500  0.58020400  1
  C  1546  1  0.89662100  0.74336100  0.56802300  1
  C  1559  1  0.88353300  0.78575800  0.56692100  1
  C  1561  1  0.94563000  0.71604500  0.60391200  1
  C  1563  1  0.90324000  0.23154900  0.42821200  1
  C  1564  1  0.92240800  0.22472900  0.41235800  1
  C  1565  1  0.93393000  0.24293900  0.39811600  1
  C  1566  1  0.92718700  0.26766700  0.40168800  1
  C  1567  1  0.91202900  0.27458300  0.42138100  1
  C  1568  1  0.89891600  0.25631300  0.43405600  1
  C  1581  1  0.88522000  0.21433000  0.43211400  1
  C  1583  1  0.93268700  0.28523500  0.38444600  1
  N  19  1  0.38434300  0.28326300  0.96341300  1
  N  20  1  0.37882800  0.29043300  0.04544800  1
  N  21  1  0.28792700  0.37373400  0.95212700  1
  N  22  1  0.28427800  0.38408400  0.03502500  1
  N  41  1  0.61491800  0.71558800  0.96500500  1
  N  42  1  0.62589600  0.71156700  0.04773500  1
  N  43  1  0.71182700  0.62626700  0.95179100  1
  N  44  1  0.71561100  0.61479200  0.03454200  1
  N  63  1  0.61491300  0.28334800  0.03518000  1
  N  64  1  0.62283800  0.29152200  0.95256400  1
  N  65  1  0.71164100  0.37388200  0.04777200  1
  N  66  1  0.71560900  0.38430100  0.96487700  1
  N  85  1  0.38406800  0.71525200  0.03489200  1
  N  86  1  0.37374900  0.71166800  0.95206800  1
  N  87  1  0.28965100  0.62070300  0.04523500  1
  N  88  1  0.28340900  0.61533100  0.96354300  1
  N  107  1  0.96313800  0.38360600  0.28367100  1
  N  108  1  0.04506200  0.37909200  0.29027100  1
  N  109  1  0.95442000  0.29046200  0.37903200  1
  N  110  1  0.03630000  0.28382600  0.38344900  1
  N  129  1  0.96502300  0.61494100  0.71557300  1
  N  130  1  0.04776100  0.62587800  0.71157400  1
  N  131  1  0.95197600  0.71183200  0.62589500  1
  N  132  1  0.03478200  0.71570700  0.61476500  1
  N  151  1  0.03554200  0.61510200  0.28340000  1
  N  152  1  0.95346000  0.62177400  0.29064500  1
  N  153  1  0.04786800  0.71169800  0.37339500  1
  N  154  1  0.96502500  0.71545100  0.38423400  1
  N  173  1  0.03467400  0.38478300  0.71560200  1
  N  174  1  0.95193000  0.37370900  0.71178700  1
  N  175  1  0.04767800  0.28782100  0.62593100  1
  N  176  1  0.96492900  0.28400200  0.61483900  1
  N  195  1  0.28328600  0.96343300  0.38432100  1
  N  196  1  0.29041000  0.04545100  0.37883500  1
  N  197  1  0.37373300  0.95213100  0.28792000  1
  N  198  1  0.38408800  0.03503300  0.28427600  1
  N  217  1  0.71526500  0.96475100  0.61562400  1
  N  218  1  0.71142900  0.04756800  0.62586400  1
  N  219  1  0.62064000  0.95438400  0.71001000  1
  N  220  1  0.61532200  0.03604300  0.71619800  1
  N  239  1  0.28343300  0.03567300  0.61517300  1
  N  240  1  0.29043900  0.95370700  0.62148300  1
  N  241  1  0.37385200  0.04767200  0.71162600  1
  N  242  1  0.38424500  0.96477800  0.71553500  1
  N  261  1  0.71559900  0.03468700  0.38478000  1
  N  262  1  0.71178000  0.95193800  0.37369300  1
  N  263  1  0.62634600  0.04778900  0.28773000  1
  N  264  1  0.61480400  0.96503100  0.28400300  1
  N  283  1  0.88391800  0.78426700  0.46296000  1
  N  284  1  0.87977800  0.78999800  0.54463000  1
  N  285  1  0.78997200  0.87979600  0.45499500  1
  N  286  1  0.78427400  0.88392200  0.53666200  1
  N  305  1  0.11577500  0.21524900  0.46308600  1
  N  306  1  0.11974800  0.20969400  0.54463900  1
  N  307  1  0.20891800  0.11991600  0.45469300  1
  N  308  1  0.21528700  0.11574800  0.53647800  1
  N  327  1  0.11429200  0.78436900  0.53475300  1
  N  328  1  0.12596800  0.78823900  0.45185500  1
  N  329  1  0.21114600  0.87400100  0.54783000  1
  N  330  1  0.21508600  0.88513000  0.46500400  1
  N  349  1  0.88451400  0.21570900  0.53552100  1
  N  350  1  0.87777000  0.20733100  0.45274500  1
  N  351  1  0.79074900  0.12082900  0.54575700  1
  N  352  1  0.78405200  0.11529300  0.46374900  1
  N  371  1  0.46455100  0.88450700  0.78475800  1
  N  372  1  0.54752700  0.87420900  0.78850800  1
  N  373  1  0.45456900  0.79007200  0.87956400  1
  N  374  1  0.53631300  0.78382200  0.88471200  1
  N  393  1  0.46461200  0.11502100  0.21490600  1
  N  394  1  0.54761200  0.12580300  0.21123500  1
  N  395  1  0.45424200  0.20874300  0.12020000  1
  N  396  1  0.53616200  0.21574000  0.11496400  1
  N  415  1  0.53614900  0.11494900  0.78390200  1
  N  416  1  0.45451700  0.12006400  0.79006500  1
  N  417  1  0.54769500  0.21103600  0.87406100  1
  N  418  1  0.46478400  0.21477900  0.88443800  1
  N  437  1  0.53640900  0.88409000  0.21548200  1
  N  438  1  0.45474000  0.87979900  0.20964900  1
  N  439  1  0.54530200  0.79066200  0.12069000  1
  N  440  1  0.46335900  0.78424100  0.11552900  1
  N  459  1  0.78473800  0.46459400  0.88455700  1
  N  460  1  0.78837600  0.54758600  0.87377400  1
  N  461  1  0.87954600  0.45458900  0.79009500  1
  N  462  1  0.88470300  0.53632600  0.78383700  1
  N  481  1  0.21488800  0.46457400  0.11505100  1
  N  482  1  0.21115500  0.54756300  0.12544800  1
  N  483  1  0.12020900  0.45419900  0.20873700  1
  N  484  1  0.11495400  0.53612200  0.21574300  1
  N  503  1  0.78379300  0.53636400  0.11488300  1
  N  504  1  0.78999100  0.45467700  0.11996900  1
  N  505  1  0.87407000  0.54766400  0.21104200  1
  N  506  1  0.88441300  0.46474000  0.21475400  1
  N  525  1  0.21537700  0.53621400  0.88401400  1
  N  526  1  0.20962400  0.45463600  0.87976500  1
  N  527  1  0.12084200  0.54543200  0.79078900  1
  N  528  1  0.11548100  0.46344400  0.78421100  1
  N  535  1  0.38051500  0.23227600  0.94781500  1
  N  538  1  0.41156000  0.19912400  0.92319100  1
  N  541  1  0.42344500  0.29906400  0.91119800  1
  N  544  1  0.44834500  0.26599000  0.88041700  1
  N  557  1  0.61946500  0.76683100  0.94868200  1
  N  560  1  0.58871600  0.79993100  0.92374700  1
  N  563  1  0.57673200  0.69996000  0.91185400  1
  N  566  1  0.55219600  0.73308700  0.88072900  1
  N  579  1  0.61951500  0.23242800  0.05134500  1
  N  582  1  0.58848500  0.19942200  0.07611600  1
  N  585  1  0.57667700  0.29942700  0.08787700  1
  N  588  1  0.55207700  0.26642300  0.11906800  1
  N  601  1  0.38028900  0.76679500  0.05091300  1
  N  604  1  0.41101200  0.79993100  0.07589300  1
  N  607  1  0.42298000  0.69999900  0.08780100  1
  N  610  1  0.44762200  0.73314300  0.11882400  1
  N  623  1  0.94792400  0.38050700  0.23238800  1
  N  626  1  0.92326400  0.41150700  0.19921400  1
  N  629  1  0.91123600  0.42341600  0.29912200  1
  N  632  1  0.88047600  0.44831600  0.26602800  1
  N  645  1  0.94868900  0.61946600  0.76682900  1
  N  648  1  0.92375100  0.58871900  0.79992900  1
  N  651  1  0.91185900  0.57673500  0.69996000  1
  N  654  1  0.88073600  0.55220000  0.73308700  1
  N  667  1  0.05140500  0.61951000  0.23243900  1
  N  670  1  0.07613900  0.58845900  0.19941800  1
  N  673  1  0.08793400  0.57663400  0.29942200  1
  N  676  1  0.11911400  0.55203900  0.26641200  1
  N  689  1  0.05101400  0.38030900  0.76690000  1
  N  692  1  0.07596800  0.41106700  0.80001900  1
  N  695  1  0.08784300  0.42301500  0.70005500  1
  N  698  1  0.11888800  0.44765500  0.73317900  1
  N  711  1  0.23232100  0.94784800  0.38045700  1
  N  714  1  0.19918400  0.92322900  0.41152300  1
  N  717  1  0.29915100  0.91124100  0.42337800  1
  N  720  1  0.26608700  0.88043700  0.44825600  1
  N  733  1  0.76677500  0.94874200  0.61942100  1
  N  736  1  0.79990700  0.92378500  0.58872300  1
  N  739  1  0.69999800  0.91183500  0.57669000  1
  N  742  1  0.73316400  0.88078500  0.55211100  1
  N  755  1  0.23241000  0.05143500  0.61945200  1
  N  758  1  0.19936100  0.07615800  0.58842500  1
  N  761  1  0.29932600  0.08799600  0.57654700  1
  N  764  1  0.26628600  0.11912300  0.55192000  1
  N  777  1  0.76690700  0.05104100  0.38033600  1
  N  780  1  0.80000800  0.07601200  0.41111200  1
  N  783  1  0.70003200  0.08784100  0.42300800  1
  N  786  1  0.73312600  0.11890400  0.44766000  1
  N  799  1  0.23268600  0.38053100  0.05109600  1
  N  802  1  0.19946200  0.41124200  0.07604500  1
  N  805  1  0.29938200  0.42321200  0.08804500  1
  N  808  1  0.26618300  0.44809200  0.11880500  1
  N  821  1  0.76683100  0.61947200  0.05091600  1
  N  824  1  0.79993100  0.58872700  0.07585200  1
  N  827  1  0.69995600  0.57673900  0.08774500  1
  N  830  1  0.73307900  0.55221100  0.11887300  1
  N  843  1  0.23244400  0.61944100  0.94802100  1
  N  846  1  0.19937300  0.58836900  0.92335600  1
  N  849  1  0.29933300  0.57648100  0.91148000  1
  N  852  1  0.26629900  0.55187100  0.88035700  1
  N  865  1  0.76700400  0.38052200  0.94849600  1
  N  868  1  0.80019100  0.41126200  0.92354900  1
  N  871  1  0.70025000  0.42318500  0.91161000  1
  N  874  1  0.73342800  0.44807800  0.88083200  1
  N  887  1  0.38053100  0.94850300  0.76698800  1
  N  890  1  0.41125800  0.92355200  0.80018400  1
  N  893  1  0.42319400  0.91159700  0.70024700  1
  N  896  1  0.44808700  0.88082100  0.73343100  1
  N  909  1  0.61939100  0.94863100  0.23273500  1
  N  912  1  0.58865300  0.92368200  0.19963000  1
  N  915  1  0.57667600  0.91180500  0.29958300  1
  N  918  1  0.55209700  0.88070900  0.26645900  1
  N  931  1  0.61952400  0.05153700  0.76712900  1
  N  934  1  0.58843600  0.07618900  0.80019300  1
  N  937  1  0.57655100  0.08807300  0.70020900  1
  N  940  1  0.55198300  0.11923100  0.73324000  1
  N  953  1  0.38053300  0.05110400  0.23268400  1
  N  956  1  0.41124700  0.07604900  0.19945800  1
  N  959  1  0.42321900  0.08804800  0.29938200  1
  N  962  1  0.44809600  0.11880400  0.26618100  1
  N  975  1  0.94854500  0.23269200  0.61925000  1
  N  978  1  0.92355600  0.19960800  0.58846100  1
  N  981  1  0.91176700  0.29959500  0.57661800  1
  N  984  1  0.88069300  0.26652400  0.55194500  1
  N  997  1  0.94873600  0.76683100  0.38018400  1
  N  1000  1  0.92377600  0.79993400  0.41089700  1
  N  1003  1  0.91187300  0.70001000  0.42288800  1
  N  1006  1  0.88080900  0.73315500  0.44748300  1
  N  1019  1  0.05144400  0.23256200  0.38013700  1
  N  1022  1  0.07613600  0.19945600  0.41115200  1
  N  1025  1  0.08807800  0.29936800  0.42310000  1
  N  1028  1  0.11916400  0.26629000  0.44770700  1
  N  1041  1  0.05116900  0.76698600  0.61912300  1
  N  1044  1  0.07608300  0.80018500  0.58835700  1
  N  1047  1  0.08804500  0.70020200  0.57642100  1
  N  1050  1  0.11885400  0.73337700  0.55158000  1
  N  1063  1  0.61741200  0.76455900  0.04805200  1
  N  1066  1  0.59016200  0.79978800  0.07386100  1
  N  1069  1  0.57625100  0.70094000  0.09256700  1
  N  1072  1  0.55043600  0.73678800  0.11925800  1
  N  1085  1  0.38041200  0.23638400  0.04947700  1
  N  1088  1  0.40972700  0.20041500  0.07216200  1
  N  1091  1  0.42712300  0.29837300  0.08942900  1
  N  1094  1  0.44972800  0.26248700  0.11887100  1
  N  1107  1  0.38209100  0.76481600  0.95145200  1
  N  1110  1  0.40913500  0.79993600  0.92542500  1
  N  1113  1  0.42336300  0.70107900  0.90718800  1
  N  1116  1  0.44853100  0.73681300  0.87981900  1
  N  1129  1  0.61923400  0.23615500  0.94999500  1
  N  1132  1  0.59274600  0.20011000  0.92397100  1
  N  1135  1  0.57392200  0.29892200  0.91040000  1
  N  1138  1  0.54820000  0.26385200  0.88286900  1
  N  1151  1  0.04803900  0.61738500  0.76455000  1
  N  1154  1  0.07382100  0.59012400  0.79979000  1
  N  1157  1  0.09258800  0.57621900  0.70095500  1
  N  1160  1  0.11923400  0.55038000  0.73682600  1
  N  1173  1  0.04945400  0.38041700  0.23637000  1
  N  1176  1  0.07215300  0.40974100  0.20043000  1
  N  1179  1  0.08942400  0.42710500  0.29839300  1
  N  1182  1  0.11884800  0.44972200  0.26250000  1
  N  1195  1  0.95136500  0.38206200  0.76481600  1
  N  1198  1  0.92539800  0.40914900  0.79994300  1
  N  1201  1  0.90709400  0.42338700  0.70108500  1
  N  1204  1  0.87977400  0.44856700  0.73683900  1
  N  1217  1  0.94961600  0.61947000  0.23610200  1
  N  1220  1  0.92390800  0.59265400  0.20016600  1
  N  1223  1  0.91007900  0.57413300  0.29901400  1
  N  1226  1  0.88274200  0.54822000  0.26393500  1
  N  1239  1  0.76451100  0.04789700  0.61742200  1
  N  1242  1  0.79973200  0.07375000  0.59018200  1
  N  1245  1  0.70088600  0.09244400  0.57630200  1
  N  1248  1  0.73675400  0.11916800  0.55051100  1
  N  1261  1  0.23636200  0.04951000  0.38041700  1
  N  1264  1  0.20039500  0.07221800  0.40971800  1
  N  1267  1  0.29836400  0.08941700  0.42711400  1
  N  1270  1  0.26251600  0.11887700  0.44974100  1
  N  1283  1  0.76482800  0.95133800  0.38206600  1
  N  1286  1  0.79995800  0.92535500  0.40914200  1
  N  1289  1  0.70109200  0.90710100  0.42336900  1
  N  1292  1  0.73681500  0.87977000  0.44857200  1
  N  1305  1  0.23609300  0.94956300  0.61955500  1
  N  1308  1  0.20016600  0.92390100  0.59273000  1
  N  1311  1  0.29902100  0.91002600  0.57417700  1
  N  1314  1  0.26394000  0.88267700  0.54831000  1
  N  1327  1  0.76517200  0.61834700  0.95010100  1
  N  1330  1  0.79995100  0.59353700  0.92147800  1
  N  1333  1  0.70040800  0.57855400  0.90619800  1
  N  1336  1  0.73515400  0.54965700  0.88159000  1
  N  1349  1  0.23479900  0.38206400  0.95149300  1
  N  1352  1  0.19970000  0.40910400  0.92544500  1
  N  1355  1  0.29855900  0.42332700  0.90724500  1
  N  1358  1  0.26283000  0.44844600  0.87984400  1
  N  1371  1  0.76483800  0.38210200  0.04825700  1
  N  1374  1  0.80000100  0.40908000  0.07431900  1
  N  1377  1  0.70112100  0.42328900  0.09262400  1
  N  1380  1  0.73684600  0.44851800  0.11991800  1
  N  1393  1  0.23606300  0.62002300  0.05069400  1
  N  1396  1  0.20030100  0.59265200  0.07587500  1
  N  1399  1  0.29917100  0.57451800  0.09001000  1
  N  1402  1  0.26416400  0.54842800  0.11710300  1
  N  1415  1  0.61834300  0.04948900  0.23445200  1
  N  1418  1  0.59353200  0.07811100  0.19967700  1
  N  1421  1  0.57847800  0.09335700  0.29921600  1
  N  1424  1  0.54964500  0.11800700  0.26445100  1
  N  1437  1  0.38208600  0.04819400  0.76481200  1
  N  1440  1  0.40910400  0.07423300  0.79997400  1
  N  1443  1  0.42331100  0.09255700  0.70110800  1
  N  1446  1  0.44852000  0.11984500  0.73685700  1
  N  1459  1  0.38206400  0.95147200  0.23480100  1
  N  1462  1  0.40909700  0.92542300  0.19970600  1
  N  1465  1  0.42332400  0.90724000  0.29857000  1
  N  1468  1  0.44847300  0.87983900  0.26285000  1
  N  1481  1  0.62002300  0.94888100  0.76357400  1
  N  1484  1  0.59266100  0.92366400  0.79932000  1
  N  1487  1  0.57454500  0.90956000  0.70043600  1
  N  1490  1  0.54842100  0.88249100  0.73544800  1
  N  1503  1  0.04942300  0.76512800  0.38128900  1
  N  1506  1  0.07807400  0.79997400  0.40601100  1
  N  1509  1  0.09339700  0.70043500  0.42110400  1
  N  1512  1  0.11806200  0.73519000  0.44989600  1
  N  1525  1  0.04826900  0.23478100  0.61755600  1
  N  1528  1  0.07428900  0.19965000  0.59052300  1
  N  1531  1  0.09251200  0.29851000  0.57625500  1
  N  1534  1  0.11985500  0.26279000  0.55109100  1
  N  1547  1  0.95134200  0.76484700  0.61753100  1
  N  1550  1  0.92536000  0.79996100  0.59044000  1
  N  1553  1  0.90711500  0.70109400  0.57622400  1
  N  1556  1  0.87978100  0.73681700  0.55101900  1
  N  1569  1  0.95031300  0.23669100  0.38059400  1
  N  1572  1  0.92816400  0.20067000  0.41042200  1
  N  1575  1  0.90995900  0.29859300  0.42725600  1
  N  1578  1  0.88151300  0.26243500  0.45056600  1
