# generated using pymatgen
data_H28C39N8
_symmetry_space_group_name_H-M   'P 1'
_cell_length_a   40.91660000
_cell_length_b   40.91660000
_cell_length_c   47.58490000
_cell_angle_alpha   90.00000000
_cell_angle_beta   90.00000000
_cell_angle_gamma   90.00000000
_symmetry_Int_Tables_number   1
_chemical_formula_structural   H28C39N8
_chemical_formula_sum   'H1120 C1560 N320'
_cell_volume   79665.12426551
_cell_formula_units_Z   40
loop_
 _symmetry_equiv_pos_site_id
 _symmetry_equiv_pos_as_xyz
  1  'x, y, z'
loop_
 _atom_site_type_symbol
 _atom_site_label
 _atom_site_symmetry_multiplicity
 _atom_site_fract_x
 _atom_site_fract_y
 _atom_site_fract_z
 _atom_site_occupancy
  H  26  1  0.22485100  0.10878600  0.18364600  1
  H  27  1  0.19435600  0.14060500  0.15133800  1
  H  28  1  0.14455800  0.04545000  0.19391900  1
  H  29  1  0.11399200  0.07708700  0.16121400  1
  H  30  1  0.06765400  0.12116400  0.15069200  1
  H  31  1  0.03655700  0.15286000  0.18259700  1
  H  32  1  0.11642000  0.21654400  0.19380000  1
  H  33  1  0.14767200  0.18489600  0.16156100  1
  H  34  1  0.11948300  0.19367300  0.10851800  1
  H  35  1  0.15069500  0.22559100  0.07665800  1
  H  36  1  0.21714800  0.14775800  0.06707600  1
  H  37  1  0.18621000  0.11586600  0.09923500  1
  H  38  1  0.14315900  0.06860500  0.10830900  1
  H  39  1  0.07628500  0.14625000  0.09878700  1
  H  40  1  0.04592900  0.11449000  0.06603400  1
  H  45  1  0.11269000  0.03696600  0.07572500  1
  H  71  1  0.54481100  0.14740300  0.69278300  1
  H  72  1  0.57559300  0.11560200  0.66044300  1
  H  73  1  0.61232600  0.22450900  0.68444800  1
  H  74  1  0.64331400  0.19270900  0.65231000  1
  H  75  1  0.68663100  0.14562100  0.66036700  1
  H  76  1  0.71749400  0.11378200  0.69260200  1
  H  77  1  0.65004500  0.03661700  0.68421500  1
  H  78  1  0.61894200  0.06848800  0.65221600  1
  H  79  1  0.64758100  0.07610000  0.59922200  1
  H  80  1  0.61666900  0.04466300  0.56661900  1
  H  81  1  0.53740800  0.10945500  0.57608800  1
  H  82  1  0.56822200  0.14100300  0.60837200  1
  H  83  1  0.61450600  0.18525200  0.59936700  1
  H  84  1  0.69385800  0.12028000  0.60820800  1
  H  85  1  0.72456900  0.15186600  0.57589300  1
  H  90  1  0.64533300  0.21675900  0.56675800  1
  H  116  1  0.04138500  0.61330400  0.56981700  1
  H  117  1  0.07187300  0.64485400  0.60252700  1
  H  118  1  0.11350700  0.53989600  0.57227600  1
  H  119  1  0.14404600  0.57135500  0.60501800  1
  H  120  1  0.18795100  0.61715800  0.60275400  1
  H  121  1  0.21895700  0.64902500  0.57072100  1
  H  122  1  0.14736300  0.72294200  0.57358800  1
  H  123  1  0.11616300  0.69101600  0.60556200  1
  H  124  1  0.14548800  0.68766700  0.65886700  1
  H  125  1  0.11478700  0.71893300  0.69169700  1
  H  126  1  0.03833100  0.65018100  0.68721400  1
  H  127  1  0.06896200  0.61882500  0.65455900  1
  H  128  1  0.11404400  0.57380400  0.65819900  1
  H  129  1  0.19052100  0.64279300  0.65508400  1
  H  130  1  0.22091300  0.61102600  0.68760700  1
  H  135  1  0.14451400  0.54212000  0.69090000  1
  H  161  1  0.72427100  0.65352700  0.07774900  1
  H  162  1  0.69359900  0.62159200  0.10981800  1
  H  163  1  0.64346000  0.71588800  0.06614700  1
  H  164  1  0.61270800  0.68415100  0.09866100  1
  H  165  1  0.56596900  0.63990200  0.11010600  1
  H  166  1  0.53516900  0.60831100  0.07789400  1
  H  167  1  0.61597500  0.54614500  0.06545900  1
  H  168  1  0.64687200  0.57756800  0.09809000  1
  H  169  1  0.61857100  0.56747200  0.15098000  1
  H  170  1  0.64959700  0.53548500  0.18291100  1
  H  171  1  0.71500100  0.61390500  0.19411700  1
  H  172  1  0.68424300  0.64590200  0.16188100  1
  H  173  1  0.64138100  0.69338400  0.15166200  1
  H  174  1  0.57541500  0.61507800  0.16186200  1
  H  175  1  0.54504300  0.64665200  0.19474300  1
  H  180  1  0.61088200  0.72483800  0.18432500  1
  H  206  1  0.86625300  0.46605300  0.31570100  1
  H  207  1  0.89726000  0.43466700  0.34828500  1
  H  208  1  0.78631200  0.40244600  0.32677800  1
  H  209  1  0.81719900  0.37096200  0.35901100  1
  H  210  1  0.86365000  0.32701700  0.34843000  1
  H  211  1  0.89434900  0.29551300  0.31572800  1
  H  212  1  0.97461000  0.35879800  0.32644600  1
  H  213  1  0.94398700  0.39048200  0.35876300  1
  H  214  1  0.93552300  0.36561200  0.41083400  1
  H  215  1  0.96634400  0.39745500  0.44310700  1
  H  216  1  0.90008700  0.47540600  0.43323000  1
  H  217  1  0.86900500  0.44353900  0.40124100  1
  H  218  1  0.82586100  0.39607400  0.41102300  1
  H  219  1  0.89244500  0.31821600  0.40129300  1
  H  220  1  0.86154300  0.28634800  0.43341100  1
  H  225  1  0.79518400  0.36419000  0.44339900  1
  H  251  1  0.89837900  0.78665900  0.82630700  1
  H  252  1  0.86759900  0.81880300  0.85835400  1
  H  253  1  0.96677400  0.86302200  0.81820100  1
  H  254  1  0.93622900  0.89514100  0.85046100  1
  H  255  1  0.89321000  0.94217100  0.85756000  1
  H  256  1  0.86267500  0.97365200  0.82488800  1
  H  257  1  0.79395000  0.89744300  0.81796600  1
  H  258  1  0.82435000  0.86590300  0.85078700  1
  H  259  1  0.81793700  0.89172700  0.90278000  1
  H  260  1  0.78691100  0.86021100  0.93493300  1
  H  261  1  0.86548500  0.79445100  0.94371800  1
  H  262  1  0.89662700  0.82591000  0.91128900  1
  H  263  1  0.94281600  0.86977500  0.90278500  1
  H  264  1  0.86450500  0.93613400  0.91066900  1
  H  265  1  0.89592800  0.96793800  0.94267300  1
  H  270  1  0.97405300  0.90152900  0.93455100  1
  H  296  1  0.36289700  0.28749200  0.93496100  1
  H  297  1  0.39329000  0.31906600  0.90224900  1
  H  298  1  0.29471700  0.36405300  0.94290700  1
  H  299  1  0.32498100  0.39570800  0.91006000  1
  H  300  1  0.36809300  0.44278600  0.90204700  1
  H  301  1  0.39891700  0.47463900  0.93425500  1
  H  302  1  0.46699400  0.39796800  0.94220000  1
  H  303  1  0.43640000  0.36613300  0.90977000  1
  H  304  1  0.44321400  0.39139900  0.85760000  1
  H  305  1  0.47399400  0.35974400  0.82536900  1
  H  306  1  0.39502600  0.29444300  0.81669000  1
  H  307  1  0.36416000  0.32598800  0.84925300  1
  H  308  1  0.31785400  0.37006800  0.85804600  1
  H  309  1  0.39668800  0.43561800  0.84896900  1
  H  310  1  0.36527500  0.46724600  0.81683500  1
  H  315  1  0.28660300  0.40169800  0.82617600  1
  H  341  1  0.39767000  0.97321700  0.43687400  1
  H  342  1  0.36670200  0.94129600  0.40474600  1
  H  343  1  0.46847500  0.89864800  0.44118000  1
  H  344  1  0.43771300  0.86677100  0.40894500  1
  H  345  1  0.39403800  0.82068200  0.40534900  1
  H  346  1  0.36343200  0.78929900  0.43808700  1
  H  347  1  0.29221400  0.86352800  0.44153900  1
  H  348  1  0.32273500  0.89498200  0.40877300  1
  H  349  1  0.31911500  0.86887000  0.35668300  1
  H  350  1  0.28826000  0.90047800  0.32441800  1
  H  351  1  0.36508400  0.96876900  0.31922700  1
  H  352  1  0.39605900  0.93718000  0.35165600  1
  H  353  1  0.44137400  0.89260100  0.35656300  1
  H  354  1  0.36472500  0.82390300  0.35219600  1
  H  355  1  0.39589800  0.79197700  0.32012900  1
  H  360  1  0.47235600  0.86074900  0.32461800  1
  H  367  1  0.96746400  0.03344000  0.03129900  1
  H  369  1  0.08206200  0.98448100  0.97685200  1
  H  370  1  0.05492800  0.98071200  0.94811200  1
  H  371  1  0.05791000  0.94886500  0.97345800  1
  H  373  1  0.01334700  0.06584600  0.05280200  1
  H  375  1  0.00141300  0.94853500  0.95209200  1
  H  382  1  0.79655200  0.23002300  0.53357900  1
  H  384  1  0.68202700  0.27569000  0.47685300  1
  H  385  1  0.70993000  0.28047100  0.44876400  1
  H  386  1  0.70517100  0.31204200  0.47415700  1
  H  388  1  0.75131900  0.19863600  0.55618900  1
  H  390  1  0.76255900  0.31674700  0.45633400  1
  H  397  1  0.29416400  0.53062800  0.72702700  1
  H  399  1  0.17938700  0.48699100  0.78449500  1
  H  400  1  0.20707000  0.48321200  0.81284800  1
  H  401  1  0.20251800  0.45075400  0.78826100  1
  H  403  1  0.24899000  0.56253500  0.70451600  1
  H  405  1  0.25952100  0.44900400  0.80847700  1
  H  412  1  0.46626100  0.72720900  0.22999500  1
  H  414  1  0.58108200  0.77741100  0.28325200  1
  H  415  1  0.55417600  0.78136800  0.31213300  1
  H  416  1  0.55677700  0.81293700  0.28650300  1
  H  418  1  0.51216200  0.69484500  0.20842100  1
  H  420  1  0.50044700  0.81348200  0.30800700  1
  H  427  1  0.21586500  0.78349700  0.47877800  1
  H  429  1  0.33020100  0.73476300  0.53382100  1
  H  430  1  0.30269600  0.73038900  0.56224200  1
  H  431  1  0.30630400  0.69891000  0.53662000  1
  H  433  1  0.26164000  0.81545200  0.45701500  1
  H  435  1  0.24938500  0.69646300  0.55620600  1
  H  442  1  0.71463900  0.48132300  0.28498100  1
  H  444  1  0.82838800  0.52322800  0.22501900  1
  H  445  1  0.79971200  0.52814800  0.19752400  1
  H  446  1  0.80601300  0.56006400  0.22234200  1
  H  448  1  0.75983900  0.44937300  0.30704900  1
  H  450  1  0.74812900  0.56628900  0.20630300  1
  H  457  1  0.54627200  0.28121100  0.78376600  1
  H  459  1  0.43204000  0.23574300  0.72650600  1
  H  460  1  0.46008000  0.23103000  0.69851000  1
  H  461  1  0.45518700  0.19939000  0.72382000  1
  H  463  1  0.50092700  0.31263400  0.80620100  1
  H  465  1  0.51262100  0.19486300  0.70605400  1
  H  472  1  0.96553300  0.53379100  0.53180800  1
  H  474  1  0.07997100  0.48348900  0.47795000  1
  H  475  1  0.05257600  0.47869100  0.44949600  1
  H  476  1  0.05592300  0.44769400  0.47557100  1
  H  478  1  0.01128300  0.56548200  0.55375400  1
  H  480  1  0.99892500  0.44428900  0.45664700  1
  H  487  1  0.79495900  0.73320900  0.03541500  1
  H  489  1  0.68028200  0.77254700  0.97555600  1
  H  490  1  0.70844400  0.77648200  0.94757000  1
  H  491  1  0.70252500  0.80930500  0.97157500  1
  H  493  1  0.75016000  0.70128100  0.05829700  1
  H  495  1  0.75987300  0.81256300  0.95249800  1
  H  502  1  0.29574100  0.02936500  0.22610300  1
  H  504  1  0.18072700  0.98822800  0.28458400  1
  H  505  1  0.20862700  0.98409000  0.31274400  1
  H  506  1  0.20321500  0.95158700  0.28833100  1
  H  508  1  0.25095000  0.06119600  0.20313800  1
  H  510  1  0.26039100  0.94818000  0.30757900  1
  H  517  1  0.21699100  0.28215200  0.97691500  1
  H  519  1  0.33058000  0.23634500  0.03492900  1
  H  520  1  0.30217300  0.23141800  0.06262500  1
  H  521  1  0.30748200  0.19992500  0.03724000  1
  H  523  1  0.26280300  0.31547100  0.95651800  1
  H  525  1  0.24980300  0.19490500  0.05409100  1
  H  532  1  0.71641100  0.97729300  0.78158600  1
  H  534  1  0.83072900  0.02832400  0.72806300  1
  H  535  1  0.80340300  0.03299300  0.69954600  1
  H  536  1  0.80649900  0.06399100  0.72564400  1
  H  538  1  0.76236100  0.94529700  0.80311200  1
  H  540  1  0.74961300  0.06684800  0.70632700  1
  H  547  1  0.46545700  0.02973900  0.53515500  1
  H  549  1  0.57928800  0.98876500  0.47487100  1
  H  550  1  0.55067900  0.98415900  0.44729100  1
  H  551  1  0.55697500  0.95193400  0.47181800  1
  H  553  1  0.51061200  0.06191100  0.55719800  1
  H  555  1  0.49926700  0.94673100  0.45480200  1
  H  562  1  0.96506400  0.73177400  0.72547600  1
  H  564  1  0.07838000  0.77095600  0.78735500  1
  H  565  1  0.04930700  0.77593000  0.81453000  1
  H  566  1  0.05657500  0.80811700  0.79016900  1
  H  568  1  0.01017900  0.69846300  0.70439400  1
  H  570  1  0.99858800  0.81478500  0.80576800  1
  H  577  1  0.04553100  0.27910700  0.28407600  1
  H  579  1  0.93061500  0.23967400  0.22459200  1
  H  580  1  0.95861100  0.23594200  0.19646300  1
  H  581  1  0.95295400  0.20300500  0.22040200  1
  H  583  1  0.00077000  0.31104000  0.30707000  1
  H  585  1  0.01020000  0.20037100  0.20077300  1
  H  592  1  0.46423500  0.52995900  0.03466100  1
  H  594  1  0.57882400  0.48784600  0.97601400  1
  H  595  1  0.55062300  0.48311500  0.94813700  1
  H  596  1  0.55636100  0.45110300  0.97296700  1
  H  598  1  0.50920200  0.56160100  0.05742700  1
  H  600  1  0.49882500  0.44561400  0.95570500  1
  H  626  1  0.22485100  0.10878600  0.37278200  1
  H  627  1  0.19435600  0.14060500  0.34047400  1
  H  628  1  0.14455800  0.04545000  0.38305500  1
  H  629  1  0.11399200  0.07708700  0.35035000  1
  H  630  1  0.06765400  0.12116400  0.33982800  1
  H  631  1  0.03655700  0.15286000  0.37173300  1
  H  632  1  0.11642000  0.21654400  0.38293600  1
  H  633  1  0.14767200  0.18489600  0.35069700  1
  H  634  1  0.11948300  0.19367300  0.29765400  1
  H  635  1  0.15069500  0.22559100  0.26579400  1
  H  636  1  0.21714800  0.14775800  0.25621200  1
  H  637  1  0.18621000  0.11586600  0.28837100  1
  H  638  1  0.14315900  0.06860500  0.29744500  1
  H  639  1  0.07628500  0.14625000  0.28792300  1
  H  640  1  0.04592900  0.11449000  0.25517000  1
  H  645  1  0.11269000  0.03696600  0.26486100  1
  H  671  1  0.54481100  0.14740300  0.88191900  1
  H  672  1  0.57559300  0.11560200  0.84957900  1
  H  673  1  0.61232600  0.22450900  0.87358400  1
  H  674  1  0.64331400  0.19270900  0.84144600  1
  H  675  1  0.68663100  0.14562100  0.84950300  1
  H  676  1  0.71749400  0.11378200  0.88173800  1
  H  677  1  0.65004500  0.03661700  0.87335100  1
  H  678  1  0.61894200  0.06848800  0.84135200  1
  H  679  1  0.64758100  0.07610000  0.78835800  1
  H  680  1  0.61666900  0.04466300  0.75575500  1
  H  681  1  0.53740800  0.10945500  0.76522400  1
  H  682  1  0.56822200  0.14100300  0.79750800  1
  H  683  1  0.61450600  0.18525200  0.78850300  1
  H  684  1  0.69385800  0.12028000  0.79734400  1
  H  685  1  0.72456900  0.15186600  0.76502900  1
  H  690  1  0.64533300  0.21675900  0.75589400  1
  H  716  1  0.04138500  0.61330400  0.75895300  1
  H  717  1  0.07187300  0.64485400  0.79166300  1
  H  718  1  0.11350700  0.53989600  0.76141200  1
  H  719  1  0.14404600  0.57135500  0.79415400  1
  H  720  1  0.18795100  0.61715800  0.79189000  1
  H  721  1  0.21895700  0.64902500  0.75985700  1
  H  722  1  0.14736300  0.72294200  0.76272400  1
  H  723  1  0.11616300  0.69101600  0.79469800  1
  H  724  1  0.14548800  0.68766700  0.84800300  1
  H  725  1  0.11478700  0.71893300  0.88083300  1
  H  726  1  0.03833100  0.65018100  0.87635000  1
  H  727  1  0.06896200  0.61882500  0.84369500  1
  H  728  1  0.11404400  0.57380400  0.84733500  1
  H  729  1  0.19052100  0.64279300  0.84422000  1
  H  730  1  0.22091300  0.61102600  0.87674300  1
  H  735  1  0.14451400  0.54212000  0.88003600  1
  H  761  1  0.72427100  0.65352700  0.26688500  1
  H  762  1  0.69359900  0.62159200  0.29895400  1
  H  763  1  0.64346000  0.71588800  0.25528300  1
  H  764  1  0.61270800  0.68415100  0.28779700  1
  H  765  1  0.56596900  0.63990200  0.29924200  1
  H  766  1  0.53516900  0.60831100  0.26703000  1
  H  767  1  0.61597500  0.54614500  0.25459500  1
  H  768  1  0.64687200  0.57756800  0.28722600  1
  H  769  1  0.61857100  0.56747200  0.34011600  1
  H  770  1  0.64959700  0.53548500  0.37204700  1
  H  771  1  0.71500100  0.61390500  0.38325300  1
  H  772  1  0.68424300  0.64590200  0.35101700  1
  H  773  1  0.64138100  0.69338400  0.34079800  1
  H  774  1  0.57541500  0.61507800  0.35099800  1
  H  775  1  0.54504300  0.64665200  0.38387900  1
  H  780  1  0.61088200  0.72483800  0.37346100  1
  H  806  1  0.86625300  0.46605300  0.50483700  1
  H  807  1  0.89726000  0.43466700  0.53742100  1
  H  808  1  0.78631200  0.40244600  0.51591400  1
  H  809  1  0.81719900  0.37096200  0.54814700  1
  H  810  1  0.86365000  0.32701700  0.53756600  1
  H  811  1  0.89434900  0.29551300  0.50486400  1
  H  812  1  0.97461000  0.35879800  0.51558200  1
  H  813  1  0.94398700  0.39048200  0.54789900  1
  H  814  1  0.93552300  0.36561200  0.59997000  1
  H  815  1  0.96634400  0.39745500  0.63224300  1
  H  816  1  0.90008700  0.47540600  0.62236600  1
  H  817  1  0.86900500  0.44353900  0.59037700  1
  H  818  1  0.82586100  0.39607400  0.60015900  1
  H  819  1  0.89244500  0.31821600  0.59042900  1
  H  820  1  0.86154300  0.28634800  0.62254700  1
  H  825  1  0.79518400  0.36419000  0.63253500  1
  H  851  1  0.89837900  0.78665900  0.01544260  1
  H  852  1  0.86759900  0.81880300  0.04748960  1
  H  853  1  0.96677400  0.86302200  0.00733663  1
  H  854  1  0.93622900  0.89514100  0.03959660  1
  H  855  1  0.89321000  0.94217100  0.04669560  1
  H  856  1  0.86267500  0.97365200  0.01402360  1
  H  857  1  0.79395000  0.89744300  0.00710163  1
  H  858  1  0.82435000  0.86590300  0.03992260  1
  H  859  1  0.81793700  0.89172700  0.09191560  1
  H  860  1  0.78691100  0.86021100  0.12406900  1
  H  861  1  0.86548500  0.79445100  0.13285400  1
  H  862  1  0.89662700  0.82591000  0.10042500  1
  H  863  1  0.94281600  0.86977500  0.09192060  1
  H  864  1  0.86450500  0.93613400  0.09980460  1
  H  865  1  0.89592800  0.96793800  0.13180900  1
  H  870  1  0.97405300  0.90152900  0.12368700  1
  H  896  1  0.36289700  0.28749200  0.12409700  1
  H  897  1  0.39329000  0.31906600  0.09138460  1
  H  898  1  0.29471700  0.36405300  0.13204300  1
  H  899  1  0.32498100  0.39570800  0.09919560  1
  H  900  1  0.36809300  0.44278600  0.09118260  1
  H  901  1  0.39891700  0.47463900  0.12339100  1
  H  902  1  0.46699400  0.39796800  0.13133600  1
  H  903  1  0.43640000  0.36613300  0.09890560  1
  H  904  1  0.44321400  0.39139900  0.04673560  1
  H  905  1  0.47399400  0.35974400  0.01450460  1
  H  906  1  0.39502600  0.29444300  0.00582563  1
  H  907  1  0.36416000  0.32598800  0.03838860  1
  H  908  1  0.31785400  0.37006800  0.04718160  1
  H  909  1  0.39668800  0.43561800  0.03810460  1
  H  910  1  0.36527500  0.46724600  0.00597063  1
  H  915  1  0.28660300  0.40169800  0.01531160  1
  H  941  1  0.39767000  0.97321700  0.62601000  1
  H  942  1  0.36670200  0.94129600  0.59388200  1
  H  943  1  0.46847500  0.89864800  0.63031600  1
  H  944  1  0.43771300  0.86677100  0.59808100  1
  H  945  1  0.39403800  0.82068200  0.59448500  1
  H  946  1  0.36343200  0.78929900  0.62722300  1
  H  947  1  0.29221400  0.86352800  0.63067500  1
  H  948  1  0.32273500  0.89498200  0.59790900  1
  H  949  1  0.31911500  0.86887000  0.54581900  1
  H  950  1  0.28826000  0.90047800  0.51355400  1
  H  951  1  0.36508400  0.96876900  0.50836300  1
  H  952  1  0.39605900  0.93718000  0.54079200  1
  H  953  1  0.44137400  0.89260100  0.54569900  1
  H  954  1  0.36472500  0.82390300  0.54133200  1
  H  955  1  0.39589800  0.79197700  0.50926500  1
  H  960  1  0.47235600  0.86074900  0.51375400  1
  H  967  1  0.96746400  0.03344000  0.22043500  1
  H  969  1  0.08206200  0.98448100  0.16598800  1
  H  970  1  0.05492800  0.98071200  0.13724800  1
  H  971  1  0.05791000  0.94886500  0.16259400  1
  H  973  1  0.01334700  0.06584600  0.24193800  1
  H  975  1  0.00141300  0.94853500  0.14122800  1
  H  982  1  0.79655200  0.23002300  0.72271500  1
  H  984  1  0.68202700  0.27569000  0.66598900  1
  H  985  1  0.70993000  0.28047100  0.63790000  1
  H  986  1  0.70517100  0.31204200  0.66329300  1
  H  988  1  0.75131900  0.19863600  0.74532500  1
  H  990  1  0.76255900  0.31674700  0.64547000  1
  H  997  1  0.29416400  0.53062800  0.91616300  1
  H  999  1  0.17938700  0.48699100  0.97363100  1
  H  1000  1  0.20707000  0.48321200  0.00198363  1
  H  1001  1  0.20251800  0.45075400  0.97739700  1
  H  1003  1  0.24899000  0.56253500  0.89365200  1
  H  1005  1  0.25952100  0.44900400  0.99761300  1
  H  1012  1  0.46626100  0.72720900  0.41913100  1
  H  1014  1  0.58108200  0.77741100  0.47238800  1
  H  1015  1  0.55417600  0.78136800  0.50126900  1
  H  1016  1  0.55677700  0.81293700  0.47563900  1
  H  1018  1  0.51216200  0.69484500  0.39755700  1
  H  1020  1  0.50044700  0.81348200  0.49714300  1
  H  1027  1  0.21586500  0.78349700  0.66791400  1
  H  1029  1  0.33020100  0.73476300  0.72295700  1
  H  1030  1  0.30269600  0.73038900  0.75137800  1
  H  1031  1  0.30630400  0.69891000  0.72575600  1
  H  1033  1  0.26164000  0.81545200  0.64615100  1
  H  1035  1  0.24938500  0.69646300  0.74534200  1
  H  1042  1  0.71463900  0.48132300  0.47411700  1
  H  1044  1  0.82838800  0.52322800  0.41415500  1
  H  1045  1  0.79971200  0.52814800  0.38666000  1
  H  1046  1  0.80601300  0.56006400  0.41147800  1
  H  1048  1  0.75983900  0.44937300  0.49618500  1
  H  1050  1  0.74812900  0.56628900  0.39543900  1
  H  1057  1  0.54627200  0.28121100  0.97290200  1
  H  1059  1  0.43204000  0.23574300  0.91564200  1
  H  1060  1  0.46008000  0.23103000  0.88764600  1
  H  1061  1  0.45518700  0.19939000  0.91295600  1
  H  1063  1  0.50092700  0.31263400  0.99533700  1
  H  1065  1  0.51262100  0.19486300  0.89519000  1
  H  1072  1  0.96553300  0.53379100  0.72094400  1
  H  1074  1  0.07997100  0.48348900  0.66708600  1
  H  1075  1  0.05257600  0.47869100  0.63863200  1
  H  1076  1  0.05592300  0.44769400  0.66470700  1
  H  1078  1  0.01128300  0.56548200  0.74289000  1
  H  1080  1  0.99892500  0.44428900  0.64578300  1
  H  1087  1  0.79495900  0.73320900  0.22455100  1
  H  1089  1  0.68028200  0.77254700  0.16469200  1
  H  1090  1  0.70844400  0.77648200  0.13670600  1
  H  1091  1  0.70252500  0.80930500  0.16071100  1
  H  1093  1  0.75016000  0.70128100  0.24743300  1
  H  1095  1  0.75987300  0.81256300  0.14163400  1
  H  1102  1  0.29574100  0.02936500  0.41523900  1
  H  1104  1  0.18072700  0.98822800  0.47372000  1
  H  1105  1  0.20862700  0.98409000  0.50188000  1
  H  1106  1  0.20321500  0.95158700  0.47746700  1
  H  1108  1  0.25095000  0.06119600  0.39227400  1
  H  1110  1  0.26039100  0.94818000  0.49671500  1
  H  1117  1  0.21699100  0.28215200  0.16605100  1
  H  1119  1  0.33058000  0.23634500  0.22406500  1
  H  1120  1  0.30217300  0.23141800  0.25176100  1
  H  1121  1  0.30748200  0.19992500  0.22637600  1
  H  1123  1  0.26280300  0.31547100  0.14565400  1
  H  1125  1  0.24980300  0.19490500  0.24322700  1
  H  1132  1  0.71641100  0.97729300  0.97072200  1
  H  1134  1  0.83072900  0.02832400  0.91719900  1
  H  1135  1  0.80340300  0.03299300  0.88868200  1
  H  1136  1  0.80649900  0.06399100  0.91478000  1
  H  1138  1  0.76236100  0.94529700  0.99224800  1
  H  1140  1  0.74961300  0.06684800  0.89546300  1
  H  1147  1  0.46545700  0.02973900  0.72429100  1
  H  1149  1  0.57928800  0.98876500  0.66400700  1
  H  1150  1  0.55067900  0.98415900  0.63642700  1
  H  1151  1  0.55697500  0.95193400  0.66095400  1
  H  1153  1  0.51061200  0.06191100  0.74633400  1
  H  1155  1  0.49926700  0.94673100  0.64393800  1
  H  1162  1  0.96506400  0.73177400  0.91461200  1
  H  1164  1  0.07838000  0.77095600  0.97649100  1
  H  1165  1  0.04930700  0.77593000  0.00366563  1
  H  1166  1  0.05657500  0.80811700  0.97930500  1
  H  1168  1  0.01017900  0.69846300  0.89353000  1
  H  1170  1  0.99858800  0.81478500  0.99490400  1
  H  1177  1  0.04553100  0.27910700  0.47321200  1
  H  1179  1  0.93061500  0.23967400  0.41372800  1
  H  1180  1  0.95861100  0.23594200  0.38559900  1
  H  1181  1  0.95295400  0.20300500  0.40953800  1
  H  1183  1  0.00077000  0.31104000  0.49620600  1
  H  1185  1  0.01020000  0.20037100  0.38990900  1
  H  1192  1  0.46423500  0.52995900  0.22379700  1
  H  1194  1  0.57882400  0.48784600  0.16515000  1
  H  1195  1  0.55062300  0.48311500  0.13727300  1
  H  1196  1  0.55636100  0.45110300  0.16210300  1
  H  1198  1  0.50920200  0.56160100  0.24656300  1
  H  1200  1  0.49882500  0.44561400  0.14484100  1
  H  1226  1  0.22485100  0.10878600  0.56191700  1
  H  1227  1  0.19435600  0.14060500  0.52960900  1
  H  1228  1  0.14455800  0.04545000  0.57219000  1
  H  1229  1  0.11399200  0.07708700  0.53948500  1
  H  1230  1  0.06765400  0.12116400  0.52896300  1
  H  1231  1  0.03655700  0.15286000  0.56086800  1
  H  1232  1  0.11642000  0.21654400  0.57207100  1
  H  1233  1  0.14767200  0.18489600  0.53983200  1
  H  1234  1  0.11948300  0.19367300  0.48678900  1
  H  1235  1  0.15069500  0.22559100  0.45492900  1
  H  1236  1  0.21714800  0.14775800  0.44534700  1
  H  1237  1  0.18621000  0.11586600  0.47750600  1
  H  1238  1  0.14315900  0.06860500  0.48658000  1
  H  1239  1  0.07628500  0.14625000  0.47705800  1
  H  1240  1  0.04592900  0.11449000  0.44430500  1
  H  1245  1  0.11269000  0.03696600  0.45399600  1
  H  1271  1  0.54481100  0.14740300  0.07105430  1
  H  1272  1  0.57559300  0.11560200  0.03871430  1
  H  1273  1  0.61232600  0.22450900  0.06271930  1
  H  1274  1  0.64331400  0.19270900  0.03058130  1
  H  1275  1  0.68663100  0.14562100  0.03863830  1
  H  1276  1  0.71749400  0.11378200  0.07087330  1
  H  1277  1  0.65004500  0.03661700  0.06248630  1
  H  1278  1  0.61894200  0.06848800  0.03048730  1
  H  1279  1  0.64758100  0.07610000  0.97749300  1
  H  1280  1  0.61666900  0.04466300  0.94489000  1
  H  1281  1  0.53740800  0.10945500  0.95435900  1
  H  1282  1  0.56822200  0.14100300  0.98664300  1
  H  1283  1  0.61450600  0.18525200  0.97763800  1
  H  1284  1  0.69385800  0.12028000  0.98647900  1
  H  1285  1  0.72456900  0.15186600  0.95416400  1
  H  1290  1  0.64533300  0.21675900  0.94502900  1
  H  1316  1  0.04138500  0.61330400  0.94808800  1
  H  1317  1  0.07187300  0.64485400  0.98079800  1
  H  1318  1  0.11350700  0.53989600  0.95054700  1
  H  1319  1  0.14404600  0.57135500  0.98328900  1
  H  1320  1  0.18795100  0.61715800  0.98102500  1
  H  1321  1  0.21895700  0.64902500  0.94899200  1
  H  1322  1  0.14736300  0.72294200  0.95185900  1
  H  1323  1  0.11616300  0.69101600  0.98383300  1
  H  1324  1  0.14548800  0.68766700  0.03713830  1
  H  1325  1  0.11478700  0.71893300  0.06996830  1
  H  1326  1  0.03833100  0.65018100  0.06548530  1
  H  1327  1  0.06896200  0.61882500  0.03283030  1
  H  1328  1  0.11404400  0.57380400  0.03647030  1
  H  1329  1  0.19052100  0.64279300  0.03335530  1
  H  1330  1  0.22091300  0.61102600  0.06587830  1
  H  1335  1  0.14451400  0.54212000  0.06917130  1
  H  1361  1  0.72427100  0.65352700  0.45602000  1
  H  1362  1  0.69359900  0.62159200  0.48808900  1
  H  1363  1  0.64346000  0.71588800  0.44441800  1
  H  1364  1  0.61270800  0.68415100  0.47693200  1
  H  1365  1  0.56596900  0.63990200  0.48837700  1
  H  1366  1  0.53516900  0.60831100  0.45616500  1
  H  1367  1  0.61597500  0.54614500  0.44373000  1
  H  1368  1  0.64687200  0.57756800  0.47636100  1
  H  1369  1  0.61857100  0.56747200  0.52925100  1
  H  1370  1  0.64959700  0.53548500  0.56118200  1
  H  1371  1  0.71500100  0.61390500  0.57238800  1
  H  1372  1  0.68424300  0.64590200  0.54015200  1
  H  1373  1  0.64138100  0.69338400  0.52993300  1
  H  1374  1  0.57541500  0.61507800  0.54013300  1
  H  1375  1  0.54504300  0.64665200  0.57301400  1
  H  1380  1  0.61088200  0.72483800  0.56259600  1
  H  1406  1  0.86625300  0.46605300  0.69397200  1
  H  1407  1  0.89726000  0.43466700  0.72655600  1
  H  1408  1  0.78631200  0.40244600  0.70504900  1
  H  1409  1  0.81719900  0.37096200  0.73728200  1
  H  1410  1  0.86365000  0.32701700  0.72670100  1
  H  1411  1  0.89434900  0.29551300  0.69399900  1
  H  1412  1  0.97461000  0.35879800  0.70471700  1
  H  1413  1  0.94398700  0.39048200  0.73703400  1
  H  1414  1  0.93552300  0.36561200  0.78910500  1
  H  1415  1  0.96634400  0.39745500  0.82137800  1
  H  1416  1  0.90008700  0.47540600  0.81150100  1
  H  1417  1  0.86900500  0.44353900  0.77951200  1
  H  1418  1  0.82586100  0.39607400  0.78929400  1
  H  1419  1  0.89244500  0.31821600  0.77956400  1
  H  1420  1  0.86154300  0.28634800  0.81168200  1
  H  1425  1  0.79518400  0.36419000  0.82167000  1
  H  1451  1  0.89837900  0.78665900  0.20457800  1
  H  1452  1  0.86759900  0.81880300  0.23662500  1
  H  1453  1  0.96677400  0.86302200  0.19647200  1
  H  1454  1  0.93622900  0.89514100  0.22873200  1
  H  1455  1  0.89321000  0.94217100  0.23583100  1
  H  1456  1  0.86267500  0.97365200  0.20315900  1
  H  1457  1  0.79395000  0.89744300  0.19623700  1
  H  1458  1  0.82435000  0.86590300  0.22905800  1
  H  1459  1  0.81793700  0.89172700  0.28105100  1
  H  1460  1  0.78691100  0.86021100  0.31320400  1
  H  1461  1  0.86548500  0.79445100  0.32198900  1
  H  1462  1  0.89662700  0.82591000  0.28956000  1
  H  1463  1  0.94281600  0.86977500  0.28105600  1
  H  1464  1  0.86450500  0.93613400  0.28894000  1
  H  1465  1  0.89592800  0.96793800  0.32094400  1
  H  1470  1  0.97405300  0.90152900  0.31282200  1
  H  1496  1  0.36289700  0.28749200  0.31323200  1
  H  1497  1  0.39329000  0.31906600  0.28052000  1
  H  1498  1  0.29471700  0.36405300  0.32117800  1
  H  1499  1  0.32498100  0.39570800  0.28833100  1
  H  1500  1  0.36809300  0.44278600  0.28031800  1
  H  1501  1  0.39891700  0.47463900  0.31252600  1
  H  1502  1  0.46699400  0.39796800  0.32047100  1
  H  1503  1  0.43640000  0.36613300  0.28804100  1
  H  1504  1  0.44321400  0.39139900  0.23587100  1
  H  1505  1  0.47399400  0.35974400  0.20364000  1
  H  1506  1  0.39502600  0.29444300  0.19496100  1
  H  1507  1  0.36416000  0.32598800  0.22752400  1
  H  1508  1  0.31785400  0.37006800  0.23631700  1
  H  1509  1  0.39668800  0.43561800  0.22724000  1
  H  1510  1  0.36527500  0.46724600  0.19510600  1
  H  1515  1  0.28660300  0.40169800  0.20444700  1
  H  1541  1  0.39767000  0.97321700  0.81514500  1
  H  1542  1  0.36670200  0.94129600  0.78301700  1
  H  1543  1  0.46847500  0.89864800  0.81945100  1
  H  1544  1  0.43771300  0.86677100  0.78721600  1
  H  1545  1  0.39403800  0.82068200  0.78362000  1
  H  1546  1  0.36343200  0.78929900  0.81635800  1
  H  1547  1  0.29221400  0.86352800  0.81981000  1
  H  1548  1  0.32273500  0.89498200  0.78704400  1
  H  1549  1  0.31911500  0.86887000  0.73495400  1
  H  1550  1  0.28826000  0.90047800  0.70268900  1
  H  1551  1  0.36508400  0.96876900  0.69749800  1
  H  1552  1  0.39605900  0.93718000  0.72992700  1
  H  1553  1  0.44137400  0.89260100  0.73483400  1
  H  1554  1  0.36472500  0.82390300  0.73046700  1
  H  1555  1  0.39589800  0.79197700  0.69840000  1
  H  1560  1  0.47235600  0.86074900  0.70288900  1
  H  1567  1  0.96746400  0.03344000  0.40957000  1
  H  1569  1  0.08206200  0.98448100  0.35512300  1
  H  1570  1  0.05492800  0.98071200  0.32638300  1
  H  1571  1  0.05791000  0.94886500  0.35172900  1
  H  1573  1  0.01334700  0.06584600  0.43107300  1
  H  1575  1  0.00141300  0.94853500  0.33036300  1
  H  1582  1  0.79655200  0.23002300  0.91185000  1
  H  1584  1  0.68202700  0.27569000  0.85512400  1
  H  1585  1  0.70993000  0.28047100  0.82703500  1
  H  1586  1  0.70517100  0.31204200  0.85242800  1
  H  1588  1  0.75131900  0.19863600  0.93446000  1
  H  1590  1  0.76255900  0.31674700  0.83460500  1
  H  1597  1  0.29416400  0.53062800  0.10529800  1
  H  1599  1  0.17938700  0.48699100  0.16276600  1
  H  1600  1  0.20707000  0.48321200  0.19111900  1
  H  1601  1  0.20251800  0.45075400  0.16653200  1
  H  1603  1  0.24899000  0.56253500  0.08278730  1
  H  1605  1  0.25952100  0.44900400  0.18674800  1
  H  1612  1  0.46626100  0.72720900  0.60826600  1
  H  1614  1  0.58108200  0.77741100  0.66152300  1
  H  1615  1  0.55417600  0.78136800  0.69040400  1
  H  1616  1  0.55677700  0.81293700  0.66477400  1
  H  1618  1  0.51216200  0.69484500  0.58669200  1
  H  1620  1  0.50044700  0.81348200  0.68627800  1
  H  1627  1  0.21586500  0.78349700  0.85704900  1
  H  1629  1  0.33020100  0.73476300  0.91209200  1
  H  1630  1  0.30269600  0.73038900  0.94051300  1
  H  1631  1  0.30630400  0.69891000  0.91489100  1
  H  1633  1  0.26164000  0.81545200  0.83528600  1
  H  1635  1  0.24938500  0.69646300  0.93447700  1
  H  1642  1  0.71463900  0.48132300  0.66325200  1
  H  1644  1  0.82838800  0.52322800  0.60329000  1
  H  1645  1  0.79971200  0.52814800  0.57579500  1
  H  1646  1  0.80601300  0.56006400  0.60061300  1
  H  1648  1  0.75983900  0.44937300  0.68532000  1
  H  1650  1  0.74812900  0.56628900  0.58457400  1
  H  1657  1  0.54627200  0.28121100  0.16203700  1
  H  1659  1  0.43204000  0.23574300  0.10477700  1
  H  1660  1  0.46008000  0.23103000  0.07678130  1
  H  1661  1  0.45518700  0.19939000  0.10209100  1
  H  1663  1  0.50092700  0.31263400  0.18447200  1
  H  1665  1  0.51262100  0.19486300  0.08432530  1
  H  1672  1  0.96553300  0.53379100  0.91007900  1
  H  1674  1  0.07997100  0.48348900  0.85622100  1
  H  1675  1  0.05257600  0.47869100  0.82776700  1
  H  1676  1  0.05592300  0.44769400  0.85384200  1
  H  1678  1  0.01128300  0.56548200  0.93202500  1
  H  1680  1  0.99892500  0.44428900  0.83491800  1
  H  1687  1  0.79495900  0.73320900  0.41368600  1
  H  1689  1  0.68028200  0.77254700  0.35382700  1
  H  1690  1  0.70844400  0.77648200  0.32584100  1
  H  1691  1  0.70252500  0.80930500  0.34984600  1
  H  1693  1  0.75016000  0.70128100  0.43656800  1
  H  1695  1  0.75987300  0.81256300  0.33076900  1
  H  1702  1  0.29574100  0.02936500  0.60437400  1
  H  1704  1  0.18072700  0.98822800  0.66285500  1
  H  1705  1  0.20862700  0.98409000  0.69101500  1
  H  1706  1  0.20321500  0.95158700  0.66666667  1
  H  1708  1  0.25095000  0.06119600  0.58140900  1
  H  1710  1  0.26039100  0.94818000  0.68585000  1
  H  1717  1  0.21699100  0.28215200  0.35518600  1
  H  1719  1  0.33058000  0.23634500  0.41320000  1
  H  1720  1  0.30217300  0.23141800  0.44089600  1
  H  1721  1  0.30748200  0.19992500  0.41551100  1
  H  1723  1  0.26280300  0.31547100  0.33478900  1
  H  1725  1  0.24980300  0.19490500  0.43236200  1
  H  1732  1  0.71641100  0.97729300  0.15985700  1
  H  1734  1  0.83072900  0.02832400  0.10633400  1
  H  1735  1  0.80340300  0.03299300  0.07781730  1
  H  1736  1  0.80649900  0.06399100  0.10391500  1
  H  1738  1  0.76236100  0.94529700  0.18138300  1
  H  1740  1  0.74961300  0.06684800  0.08459830  1
  H  1747  1  0.46545700  0.02973900  0.91342600  1
  H  1749  1  0.57928800  0.98876500  0.85314200  1
  H  1750  1  0.55067900  0.98415900  0.82556200  1
  H  1751  1  0.55697500  0.95193400  0.85008900  1
  H  1753  1  0.51061200  0.06191100  0.93546900  1
  H  1755  1  0.49926700  0.94673100  0.83307300  1
  H  1762  1  0.96506400  0.73177400  0.10374700  1
  H  1764  1  0.07838000  0.77095600  0.16562600  1
  H  1765  1  0.04930700  0.77593000  0.19280100  1
  H  1766  1  0.05657500  0.80811700  0.16844000  1
  H  1768  1  0.01017900  0.69846300  0.08266530  1
  H  1770  1  0.99858800  0.81478500  0.18403900  1
  H  1777  1  0.04553100  0.27910700  0.66234700  1
  H  1779  1  0.93061500  0.23967400  0.60286300  1
  H  1780  1  0.95861100  0.23594200  0.57473400  1
  H  1781  1  0.95295400  0.20300500  0.59867300  1
  H  1783  1  0.00077000  0.31104000  0.68534100  1
  H  1785  1  0.01020000  0.20037100  0.57904400  1
  H  1792  1  0.46423500  0.52995900  0.41293200  1
  H  1794  1  0.57882400  0.48784600  0.35428500  1
  H  1795  1  0.55062300  0.48311500  0.32640800  1
  H  1796  1  0.55636100  0.45110300  0.35123800  1
  H  1798  1  0.50920200  0.56160100  0.43569800  1
  H  1800  1  0.49882500  0.44561400  0.33397600  1
  H  1826  1  0.22485100  0.10878600  0.75105300  1
  H  1827  1  0.19435600  0.14060500  0.71874500  1
  H  1828  1  0.14455800  0.04545000  0.76132600  1
  H  1829  1  0.11399200  0.07708700  0.72862100  1
  H  1830  1  0.06765400  0.12116400  0.71809900  1
  H  1831  1  0.03655700  0.15286000  0.75000400  1
  H  1832  1  0.11642000  0.21654400  0.76120700  1
  H  1833  1  0.14767200  0.18489600  0.72896800  1
  H  1834  1  0.11948300  0.19367300  0.67592500  1
  H  1835  1  0.15069500  0.22559100  0.64406500  1
  H  1836  1  0.21714800  0.14775800  0.63448300  1
  H  1837  1  0.18621000  0.11586600  0.66666667  1
  H  1838  1  0.14315900  0.06860500  0.67571600  1
  H  1839  1  0.07628500  0.14625000  0.66619400  1
  H  1840  1  0.04592900  0.11449000  0.63344100  1
  H  1845  1  0.11269000  0.03696600  0.64313200  1
  H  1871  1  0.54481100  0.14740300  0.26019000  1
  H  1872  1  0.57559300  0.11560200  0.22785000  1
  H  1873  1  0.61232600  0.22450900  0.25185500  1
  H  1874  1  0.64331400  0.19270900  0.21971700  1
  H  1875  1  0.68663100  0.14562100  0.22777400  1
  H  1876  1  0.71749400  0.11378200  0.26000900  1
  H  1877  1  0.65004500  0.03661700  0.25162200  1
  H  1878  1  0.61894200  0.06848800  0.21962300  1
  H  1879  1  0.64758100  0.07610000  0.16662900  1
  H  1880  1  0.61666900  0.04466300  0.13402600  1
  H  1881  1  0.53740800  0.10945500  0.14349500  1
  H  1882  1  0.56822200  0.14100300  0.17577900  1
  H  1883  1  0.61450600  0.18525200  0.16677400  1
  H  1884  1  0.69385800  0.12028000  0.17561500  1
  H  1885  1  0.72456900  0.15186600  0.14330000  1
  H  1890  1  0.64533300  0.21675900  0.13416500  1
  H  1916  1  0.04138500  0.61330400  0.13722400  1
  H  1917  1  0.07187300  0.64485400  0.16993400  1
  H  1918  1  0.11350700  0.53989600  0.13968300  1
  H  1919  1  0.14404600  0.57135500  0.17242500  1
  H  1920  1  0.18795100  0.61715800  0.17016100  1
  H  1921  1  0.21895700  0.64902500  0.13812800  1
  H  1922  1  0.14736300  0.72294200  0.14099500  1
  H  1923  1  0.11616300  0.69101600  0.17296900  1
  H  1924  1  0.14548800  0.68766700  0.22627400  1
  H  1925  1  0.11478700  0.71893300  0.25910400  1
  H  1926  1  0.03833100  0.65018100  0.25462100  1
  H  1927  1  0.06896200  0.61882500  0.22196600  1
  H  1928  1  0.11404400  0.57380400  0.22560600  1
  H  1929  1  0.19052100  0.64279300  0.22249100  1
  H  1930  1  0.22091300  0.61102600  0.25501400  1
  H  1935  1  0.14451400  0.54212000  0.25830700  1
  H  1961  1  0.72427100  0.65352700  0.64515600  1
  H  1962  1  0.69359900  0.62159200  0.67722500  1
  H  1963  1  0.64346000  0.71588800  0.63355400  1
  H  1964  1  0.61270800  0.68415100  0.66606800  1
  H  1965  1  0.56596900  0.63990200  0.67751300  1
  H  1966  1  0.53516900  0.60831100  0.64530100  1
  H  1967  1  0.61597500  0.54614500  0.63286600  1
  H  1968  1  0.64687200  0.57756800  0.66549700  1
  H  1969  1  0.61857100  0.56747200  0.71838700  1
  H  1970  1  0.64959700  0.53548500  0.75031800  1
  H  1971  1  0.71500100  0.61390500  0.76152400  1
  H  1972  1  0.68424300  0.64590200  0.72928800  1
  H  1973  1  0.64138100  0.69338400  0.71906900  1
  H  1974  1  0.57541500  0.61507800  0.72926900  1
  H  1975  1  0.54504300  0.64665200  0.76215000  1
  H  1980  1  0.61088200  0.72483800  0.75173200  1
  H  2006  1  0.86625300  0.46605300  0.88310800  1
  H  2007  1  0.89726000  0.43466700  0.91569200  1
  H  2008  1  0.78631200  0.40244600  0.89418500  1
  H  2009  1  0.81719900  0.37096200  0.92641800  1
  H  2010  1  0.86365000  0.32701700  0.91583700  1
  H  2011  1  0.89434900  0.29551300  0.88313500  1
  H  2012  1  0.97461000  0.35879800  0.89385300  1
  H  2013  1  0.94398700  0.39048200  0.92617000  1
  H  2014  1  0.93552300  0.36561200  0.97824100  1
  H  2015  1  0.96634400  0.39745500  0.01051390  1
  H  2016  1  0.90008700  0.47540600  0.00063689  1
  H  2017  1  0.86900500  0.44353900  0.96864800  1
  H  2018  1  0.82586100  0.39607400  0.97843000  1
  H  2019  1  0.89244500  0.31821600  0.96870000  1
  H  2020  1  0.86154300  0.28634800  0.00081789  1
  H  2025  1  0.79518400  0.36419000  0.01080590  1
  H  2051  1  0.89837900  0.78665900  0.39371400  1
  H  2052  1  0.86759900  0.81880300  0.42576100  1
  H  2053  1  0.96677400  0.86302200  0.38560800  1
  H  2054  1  0.93622900  0.89514100  0.41786800  1
  H  2055  1  0.89321000  0.94217100  0.42496700  1
  H  2056  1  0.86267500  0.97365200  0.39229500  1
  H  2057  1  0.79395000  0.89744300  0.38537300  1
  H  2058  1  0.82435000  0.86590300  0.41819400  1
  H  2059  1  0.81793700  0.89172700  0.47018700  1
  H  2060  1  0.78691100  0.86021100  0.50234000  1
  H  2061  1  0.86548500  0.79445100  0.51112500  1
  H  2062  1  0.89662700  0.82591000  0.47869600  1
  H  2063  1  0.94281600  0.86977500  0.47019200  1
  H  2064  1  0.86450500  0.93613400  0.47807600  1
  H  2065  1  0.89592800  0.96793800  0.51008000  1
  H  2070  1  0.97405300  0.90152900  0.50195800  1
  H  2096  1  0.36289700  0.28749200  0.50236800  1
  H  2097  1  0.39329000  0.31906600  0.46965600  1
  H  2098  1  0.29471700  0.36405300  0.51031400  1
  H  2099  1  0.32498100  0.39570800  0.47746700  1
  H  2100  1  0.36809300  0.44278600  0.46945400  1
  H  2101  1  0.39891700  0.47463900  0.50166200  1
  H  2102  1  0.46699400  0.39796800  0.50960700  1
  H  2103  1  0.43640000  0.36613300  0.47717700  1
  H  2104  1  0.44321400  0.39139900  0.42500700  1
  H  2105  1  0.47399400  0.35974400  0.39277600  1
  H  2106  1  0.39502600  0.29444300  0.38409700  1
  H  2107  1  0.36416000  0.32598800  0.41666000  1
  H  2108  1  0.31785400  0.37006800  0.42545300  1
  H  2109  1  0.39668800  0.43561800  0.41637600  1
  H  2110  1  0.36527500  0.46724600  0.38424200  1
  H  2115  1  0.28660300  0.40169800  0.39358300  1
  H  2141  1  0.39767000  0.97321700  0.00428089  1
  H  2142  1  0.36670200  0.94129600  0.97215300  1
  H  2143  1  0.46847500  0.89864800  0.00858689  1
  H  2144  1  0.43771300  0.86677100  0.97635200  1
  H  2145  1  0.39403800  0.82068200  0.97275600  1
  H  2146  1  0.36343200  0.78929900  0.00549389  1
  H  2147  1  0.29221400  0.86352800  0.00894589  1
  H  2148  1  0.32273500  0.89498200  0.97618000  1
  H  2149  1  0.31911500  0.86887000  0.92409000  1
  H  2150  1  0.28826000  0.90047800  0.89182500  1
  H  2151  1  0.36508400  0.96876900  0.88663400  1
  H  2152  1  0.39605900  0.93718000  0.91906300  1
  H  2153  1  0.44137400  0.89260100  0.92397000  1
  H  2154  1  0.36472500  0.82390300  0.91960300  1
  H  2155  1  0.39589800  0.79197700  0.88753600  1
  H  2160  1  0.47235600  0.86074900  0.89202500  1
  H  2167  1  0.96746400  0.03344000  0.59870600  1
  H  2169  1  0.08206200  0.98448100  0.54425900  1
  H  2170  1  0.05492800  0.98071200  0.51551900  1
  H  2171  1  0.05791000  0.94886500  0.54086500  1
  H  2173  1  0.01334700  0.06584600  0.62020900  1
  H  2175  1  0.00141300  0.94853500  0.51949900  1
  H  2182  1  0.79655200  0.23002300  0.10098600  1
  H  2184  1  0.68202700  0.27569000  0.04425990  1
  H  2185  1  0.70993000  0.28047100  0.01617090  1
  H  2186  1  0.70517100  0.31204200  0.04156390  1
  H  2188  1  0.75131900  0.19863600  0.12359600  1
  H  2190  1  0.76255900  0.31674700  0.02374090  1
  H  2197  1  0.29416400  0.53062800  0.29443400  1
  H  2199  1  0.17938700  0.48699100  0.35190200  1
  H  2200  1  0.20707000  0.48321200  0.38025500  1
  H  2201  1  0.20251800  0.45075400  0.35566800  1
  H  2203  1  0.24899000  0.56253500  0.27192300  1
  H  2205  1  0.25952100  0.44900400  0.37588400  1
  H  2212  1  0.46626100  0.72720900  0.79740200  1
  H  2214  1  0.58108200  0.77741100  0.85065900  1
  H  2215  1  0.55417600  0.78136800  0.87954000  1
  H  2216  1  0.55677700  0.81293700  0.85391000  1
  H  2218  1  0.51216200  0.69484500  0.77582800  1
  H  2220  1  0.50044700  0.81348200  0.87541400  1
  H  2227  1  0.21586500  0.78349700  0.04618490  1
  H  2229  1  0.33020100  0.73476300  0.10122800  1
  H  2230  1  0.30269600  0.73038900  0.12964900  1
  H  2231  1  0.30630400  0.69891000  0.10402700  1
  H  2233  1  0.26164000  0.81545200  0.02442190  1
  H  2235  1  0.24938500  0.69646300  0.12361300  1
  H  2242  1  0.71463900  0.48132300  0.85238800  1
  H  2244  1  0.82838800  0.52322800  0.79242600  1
  H  2245  1  0.79971200  0.52814800  0.76493100  1
  H  2246  1  0.80601300  0.56006400  0.78974900  1
  H  2248  1  0.75983900  0.44937300  0.87445600  1
  H  2250  1  0.74812900  0.56628900  0.77371000  1
  H  2257  1  0.54627200  0.28121100  0.35117300  1
  H  2259  1  0.43204000  0.23574300  0.29391300  1
  H  2260  1  0.46008000  0.23103000  0.26591700  1
  H  2261  1  0.45518700  0.19939000  0.29122700  1
  H  2263  1  0.50092700  0.31263400  0.37360800  1
  H  2265  1  0.51262100  0.19486300  0.27346100  1
  H  2272  1  0.96553300  0.53379100  0.09921490  1
  H  2274  1  0.07997100  0.48348900  0.04535690  1
  H  2275  1  0.05257600  0.47869100  0.01690290  1
  H  2276  1  0.05592300  0.44769400  0.04297790  1
  H  2278  1  0.01128300  0.56548200  0.12116100  1
  H  2280  1  0.99892500  0.44428900  0.02405390  1
  H  2287  1  0.79495900  0.73320900  0.60282200  1
  H  2289  1  0.68028200  0.77254700  0.54296300  1
  H  2290  1  0.70844400  0.77648200  0.51497700  1
  H  2291  1  0.70252500  0.80930500  0.53898200  1
  H  2293  1  0.75016000  0.70128100  0.62570400  1
  H  2295  1  0.75987300  0.81256300  0.51990500  1
  H  2302  1  0.29574100  0.02936500  0.79351000  1
  H  2304  1  0.18072700  0.98822800  0.85199100  1
  H  2305  1  0.20862700  0.98409000  0.88015100  1
  H  2306  1  0.20321500  0.95158700  0.85573800  1
  H  2308  1  0.25095000  0.06119600  0.77054500  1
  H  2310  1  0.26039100  0.94818000  0.87498600  1
  H  2317  1  0.21699100  0.28215200  0.54432200  1
  H  2319  1  0.33058000  0.23634500  0.60233600  1
  H  2320  1  0.30217300  0.23141800  0.63003200  1
  H  2321  1  0.30748200  0.19992500  0.60464700  1
  H  2323  1  0.26280300  0.31547100  0.52392500  1
  H  2325  1  0.24980300  0.19490500  0.62149800  1
  H  2332  1  0.71641100  0.97729300  0.34899300  1
  H  2334  1  0.83072900  0.02832400  0.29547000  1
  H  2335  1  0.80340300  0.03299300  0.26695300  1
  H  2336  1  0.80649900  0.06399100  0.29305100  1
  H  2338  1  0.76236100  0.94529700  0.37051900  1
  H  2340  1  0.74961300  0.06684800  0.27373400  1
  H  2347  1  0.46545700  0.02973900  0.10256200  1
  H  2349  1  0.57928800  0.98876500  0.04227790  1
  H  2350  1  0.55067900  0.98415900  0.01469790  1
  H  2351  1  0.55697500  0.95193400  0.03922490  1
  H  2353  1  0.51061200  0.06191100  0.12460500  1
  H  2355  1  0.49926700  0.94673100  0.02220890  1
  H  2362  1  0.96506400  0.73177400  0.29288300  1
  H  2364  1  0.07838000  0.77095600  0.35476200  1
  H  2365  1  0.04930700  0.77593000  0.38193700  1
  H  2366  1  0.05657500  0.80811700  0.35757600  1
  H  2368  1  0.01017900  0.69846300  0.27180100  1
  H  2370  1  0.99858800  0.81478500  0.37317500  1
  H  2377  1  0.04553100  0.27910700  0.85148300  1
  H  2379  1  0.93061500  0.23967400  0.79199900  1
  H  2380  1  0.95861100  0.23594200  0.76387000  1
  H  2381  1  0.95295400  0.20300500  0.78780900  1
  H  2383  1  0.00077000  0.31104000  0.87447700  1
  H  2385  1  0.01020000  0.20037100  0.76818000  1
  H  2392  1  0.46423500  0.52995900  0.60206800  1
  H  2394  1  0.57882400  0.48784600  0.54342100  1
  H  2395  1  0.55062300  0.48311500  0.51554400  1
  H  2396  1  0.55636100  0.45110300  0.54037400  1
  H  2398  1  0.50920200  0.56160100  0.62483400  1
  H  2400  1  0.49882500  0.44561400  0.52311200  1
  H  2426  1  0.22485100  0.10878600  0.94018900  1
  H  2427  1  0.19435600  0.14060500  0.90788100  1
  H  2428  1  0.14455800  0.04545000  0.95046200  1
  H  2429  1  0.11399200  0.07708700  0.91775700  1
  H  2430  1  0.06765400  0.12116400  0.90723500  1
  H  2431  1  0.03655700  0.15286000  0.93914000  1
  H  2432  1  0.11642000  0.21654400  0.95034300  1
  H  2433  1  0.14767200  0.18489600  0.91810400  1
  H  2434  1  0.11948300  0.19367300  0.86506100  1
  H  2435  1  0.15069500  0.22559100  0.83320100  1
  H  2436  1  0.21714800  0.14775800  0.82361900  1
  H  2437  1  0.18621000  0.11586600  0.85577800  1
  H  2438  1  0.14315900  0.06860500  0.86485200  1
  H  2439  1  0.07628500  0.14625000  0.85533000  1
  H  2440  1  0.04592900  0.11449000  0.82257700  1
  H  2445  1  0.11269000  0.03696600  0.83226800  1
  H  2471  1  0.54481100  0.14740300  0.44932600  1
  H  2472  1  0.57559300  0.11560200  0.41698600  1
  H  2473  1  0.61232600  0.22450900  0.44099100  1
  H  2474  1  0.64331400  0.19270900  0.40885300  1
  H  2475  1  0.68663100  0.14562100  0.41691000  1
  H  2476  1  0.71749400  0.11378200  0.44914500  1
  H  2477  1  0.65004500  0.03661700  0.44075800  1
  H  2478  1  0.61894200  0.06848800  0.40875900  1
  H  2479  1  0.64758100  0.07610000  0.35576500  1
  H  2480  1  0.61666900  0.04466300  0.32316200  1
  H  2481  1  0.53740800  0.10945500  0.33263100  1
  H  2482  1  0.56822200  0.14100300  0.36491500  1
  H  2483  1  0.61450600  0.18525200  0.35591000  1
  H  2484  1  0.69385800  0.12028000  0.36475100  1
  H  2485  1  0.72456900  0.15186600  0.33243600  1
  H  2490  1  0.64533300  0.21675900  0.32330100  1
  H  2516  1  0.04138500  0.61330400  0.32636000  1
  H  2517  1  0.07187300  0.64485400  0.35907000  1
  H  2518  1  0.11350700  0.53989600  0.32881900  1
  H  2519  1  0.14404600  0.57135500  0.36156100  1
  H  2520  1  0.18795100  0.61715800  0.35929700  1
  H  2521  1  0.21895700  0.64902500  0.32726400  1
  H  2522  1  0.14736300  0.72294200  0.33013100  1
  H  2523  1  0.11616300  0.69101600  0.36210500  1
  H  2524  1  0.14548800  0.68766700  0.41541000  1
  H  2525  1  0.11478700  0.71893300  0.44824000  1
  H  2526  1  0.03833100  0.65018100  0.44375700  1
  H  2527  1  0.06896200  0.61882500  0.41110200  1
  H  2528  1  0.11404400  0.57380400  0.41474200  1
  H  2529  1  0.19052100  0.64279300  0.41162700  1
  H  2530  1  0.22091300  0.61102600  0.44415000  1
  H  2535  1  0.14451400  0.54212000  0.44744300  1
  H  2561  1  0.72427100  0.65352700  0.83429200  1
  H  2562  1  0.69359900  0.62159200  0.86636100  1
  H  2563  1  0.64346000  0.71588800  0.82269000  1
  H  2564  1  0.61270800  0.68415100  0.85520400  1
  H  2565  1  0.56596900  0.63990200  0.86664900  1
  H  2566  1  0.53516900  0.60831100  0.83443700  1
  H  2567  1  0.61597500  0.54614500  0.82200200  1
  H  2568  1  0.64687200  0.57756800  0.85463300  1
  H  2569  1  0.61857100  0.56747200  0.90752300  1
  H  2570  1  0.64959700  0.53548500  0.93945400  1
  H  2571  1  0.71500100  0.61390500  0.95066000  1
  H  2572  1  0.68424300  0.64590200  0.91842400  1
  H  2573  1  0.64138100  0.69338400  0.90820500  1
  H  2574  1  0.57541500  0.61507800  0.91840500  1
  H  2575  1  0.54504300  0.64665200  0.95128600  1
  H  2580  1  0.61088200  0.72483800  0.94086800  1
  H  2606  1  0.86625300  0.46605300  0.07224350  1
  H  2607  1  0.89726000  0.43466700  0.10482800  1
  H  2608  1  0.78631200  0.40244600  0.08332050  1
  H  2609  1  0.81719900  0.37096200  0.11555400  1
  H  2610  1  0.86365000  0.32701700  0.10497300  1
  H  2611  1  0.89434900  0.29551300  0.07227050  1
  H  2612  1  0.97461000  0.35879800  0.08298850  1
  H  2613  1  0.94398700  0.39048200  0.11530600  1
  H  2614  1  0.93552300  0.36561200  0.16737700  1
  H  2615  1  0.96634400  0.39745500  0.19965000  1
  H  2616  1  0.90008700  0.47540600  0.18977300  1
  H  2617  1  0.86900500  0.44353900  0.15778400  1
  H  2618  1  0.82586100  0.39607400  0.16756600  1
  H  2619  1  0.89244500  0.31821600  0.15783600  1
  H  2620  1  0.86154300  0.28634800  0.18995400  1
  H  2625  1  0.79518400  0.36419000  0.19994200  1
  H  2651  1  0.89837900  0.78665900  0.58285000  1
  H  2652  1  0.86759900  0.81880300  0.61489700  1
  H  2653  1  0.96677400  0.86302200  0.57474400  1
  H  2654  1  0.93622900  0.89514100  0.60700400  1
  H  2655  1  0.89321000  0.94217100  0.61410300  1
  H  2656  1  0.86267500  0.97365200  0.58143100  1
  H  2657  1  0.79395000  0.89744300  0.57450900  1
  H  2658  1  0.82435000  0.86590300  0.60733000  1
  H  2659  1  0.81793700  0.89172700  0.65932300  1
  H  2660  1  0.78691100  0.86021100  0.69147600  1
  H  2661  1  0.86548500  0.79445100  0.70026100  1
  H  2662  1  0.89662700  0.82591000  0.66783200  1
  H  2663  1  0.94281600  0.86977500  0.65932800  1
  H  2664  1  0.86450500  0.93613400  0.66721200  1
  H  2665  1  0.89592800  0.96793800  0.69921600  1
  H  2670  1  0.97405300  0.90152900  0.69109400  1
  H  2696  1  0.36289700  0.28749200  0.69150400  1
  H  2697  1  0.39329000  0.31906600  0.65879200  1
  H  2698  1  0.29471700  0.36405300  0.69945000  1
  H  2699  1  0.32498100  0.39570800  0.66666667  1
  H  2700  1  0.36809300  0.44278600  0.65859000  1
  H  2701  1  0.39891700  0.47463900  0.69079800  1
  H  2702  1  0.46699400  0.39796800  0.69874300  1
  H  2703  1  0.43640000  0.36613300  0.66631300  1
  H  2704  1  0.44321400  0.39139900  0.61414300  1
  H  2705  1  0.47399400  0.35974400  0.58191200  1
  H  2706  1  0.39502600  0.29444300  0.57323300  1
  H  2707  1  0.36416000  0.32598800  0.60579600  1
  H  2708  1  0.31785400  0.37006800  0.61458900  1
  H  2709  1  0.39668800  0.43561800  0.60551200  1
  H  2710  1  0.36527500  0.46724600  0.57337800  1
  H  2715  1  0.28660300  0.40169800  0.58271900  1
  H  2741  1  0.39767000  0.97321700  0.19341700  1
  H  2742  1  0.36670200  0.94129600  0.16128900  1
  H  2743  1  0.46847500  0.89864800  0.19772300  1
  H  2744  1  0.43771300  0.86677100  0.16548800  1
  H  2745  1  0.39403800  0.82068200  0.16189200  1
  H  2746  1  0.36343200  0.78929900  0.19463000  1
  H  2747  1  0.29221400  0.86352800  0.19808200  1
  H  2748  1  0.32273500  0.89498200  0.16531600  1
  H  2749  1  0.31911500  0.86887000  0.11322600  1
  H  2750  1  0.28826000  0.90047800  0.08096050  1
  H  2751  1  0.36508400  0.96876900  0.07576950  1
  H  2752  1  0.39605900  0.93718000  0.10819900  1
  H  2753  1  0.44137400  0.89260100  0.11310600  1
  H  2754  1  0.36472500  0.82390300  0.10873900  1
  H  2755  1  0.39589800  0.79197700  0.07667150  1
  H  2760  1  0.47235600  0.86074900  0.08116050  1
  H  2767  1  0.96746400  0.03344000  0.78784200  1
  H  2769  1  0.08206200  0.98448100  0.73339500  1
  H  2770  1  0.05492800  0.98071200  0.70465500  1
  H  2771  1  0.05791000  0.94886500  0.73000100  1
  H  2773  1  0.01334700  0.06584600  0.80934500  1
  H  2775  1  0.00141300  0.94853500  0.70863500  1
  H  2782  1  0.79655200  0.23002300  0.29012200  1
  H  2784  1  0.68202700  0.27569000  0.23339600  1
  H  2785  1  0.70993000  0.28047100  0.20530700  1
  H  2786  1  0.70517100  0.31204200  0.23070000  1
  H  2788  1  0.75131900  0.19863600  0.31273200  1
  H  2790  1  0.76255900  0.31674700  0.21287700  1
  H  2797  1  0.29416400  0.53062800  0.48357000  1
  H  2799  1  0.17938700  0.48699100  0.54103800  1
  H  2800  1  0.20707000  0.48321200  0.56939100  1
  H  2801  1  0.20251800  0.45075400  0.54480400  1
  H  2803  1  0.24899000  0.56253500  0.46105900  1
  H  2805  1  0.25952100  0.44900400  0.56502000  1
  H  2812  1  0.46626100  0.72720900  0.98653800  1
  H  2814  1  0.58108200  0.77741100  0.03979450  1
  H  2815  1  0.55417600  0.78136800  0.06867550  1
  H  2816  1  0.55677700  0.81293700  0.04304550  1
  H  2818  1  0.51216200  0.69484500  0.96496400  1
  H  2820  1  0.50044700  0.81348200  0.06454950  1
  H  2827  1  0.21586500  0.78349700  0.23532100  1
  H  2829  1  0.33020100  0.73476300  0.29036400  1
  H  2830  1  0.30269600  0.73038900  0.31878500  1
  H  2831  1  0.30630400  0.69891000  0.29316300  1
  H  2833  1  0.26164000  0.81545200  0.21355800  1
  H  2835  1  0.24938500  0.69646300  0.31274900  1
  H  2842  1  0.71463900  0.48132300  0.04152350  1
  H  2844  1  0.82838800  0.52322800  0.98156200  1
  H  2845  1  0.79971200  0.52814800  0.95406700  1
  H  2846  1  0.80601300  0.56006400  0.97888500  1
  H  2848  1  0.75983900  0.44937300  0.06359150  1
  H  2850  1  0.74812900  0.56628900  0.96284600  1
  H  2857  1  0.54627200  0.28121100  0.54030900  1
  H  2859  1  0.43204000  0.23574300  0.48304900  1
  H  2860  1  0.46008000  0.23103000  0.45505300  1
  H  2861  1  0.45518700  0.19939000  0.48036300  1
  H  2863  1  0.50092700  0.31263400  0.56274400  1
  H  2865  1  0.51262100  0.19486300  0.46259700  1
  H  2872  1  0.96553300  0.53379100  0.28835100  1
  H  2874  1  0.07997100  0.48348900  0.23449300  1
  H  2875  1  0.05257600  0.47869100  0.20603900  1
  H  2876  1  0.05592300  0.44769400  0.23211400  1
  H  2878  1  0.01128300  0.56548200  0.31029700  1
  H  2880  1  0.99892500  0.44428900  0.21319000  1
  H  2887  1  0.79495900  0.73320900  0.79195800  1
  H  2889  1  0.68028200  0.77254700  0.73209900  1
  H  2890  1  0.70844400  0.77648200  0.70411300  1
  H  2891  1  0.70252500  0.80930500  0.72811800  1
  H  2893  1  0.75016000  0.70128100  0.81484000  1
  H  2895  1  0.75987300  0.81256300  0.70904100  1
  H  2902  1  0.29574100  0.02936500  0.98264600  1
  H  2904  1  0.18072700  0.98822800  0.04112650  1
  H  2905  1  0.20862700  0.98409000  0.06928650  1
  H  2906  1  0.20321500  0.95158700  0.04487350  1
  H  2908  1  0.25095000  0.06119600  0.95968100  1
  H  2910  1  0.26039100  0.94818000  0.06412150  1
  H  2917  1  0.21699100  0.28215200  0.73345800  1
  H  2919  1  0.33058000  0.23634500  0.79147200  1
  H  2920  1  0.30217300  0.23141800  0.81916800  1
  H  2921  1  0.30748200  0.19992500  0.79378300  1
  H  2923  1  0.26280300  0.31547100  0.71306100  1
  H  2925  1  0.24980300  0.19490500  0.81063400  1
  H  2932  1  0.71641100  0.97729300  0.53812900  1
  H  2934  1  0.83072900  0.02832400  0.48460600  1
  H  2935  1  0.80340300  0.03299300  0.45608900  1
  H  2936  1  0.80649900  0.06399100  0.48218700  1
  H  2938  1  0.76236100  0.94529700  0.55965500  1
  H  2940  1  0.74961300  0.06684800  0.46287000  1
  H  2947  1  0.46545700  0.02973900  0.29169800  1
  H  2949  1  0.57928800  0.98876500  0.23141400  1
  H  2950  1  0.55067900  0.98415900  0.20383400  1
  H  2951  1  0.55697500  0.95193400  0.22836100  1
  H  2953  1  0.51061200  0.06191100  0.31374100  1
  H  2955  1  0.49926700  0.94673100  0.21134500  1
  H  2962  1  0.96506400  0.73177400  0.48201900  1
  H  2964  1  0.07838000  0.77095600  0.54389800  1
  H  2965  1  0.04930700  0.77593000  0.57107300  1
  H  2966  1  0.05657500  0.80811700  0.54671200  1
  H  2968  1  0.01017900  0.69846300  0.46093700  1
  H  2970  1  0.99858800  0.81478500  0.56231100  1
  H  2977  1  0.04553100  0.27910700  0.04061850  1
  H  2979  1  0.93061500  0.23967400  0.98113500  1
  H  2980  1  0.95861100  0.23594200  0.95300600  1
  H  2981  1  0.95295400  0.20300500  0.97694500  1
  H  2983  1  0.00077000  0.31104000  0.06361250  1
  H  2985  1  0.01020000  0.20037100  0.95731600  1
  H  2992  1  0.46423500  0.52995900  0.79120400  1
  H  2994  1  0.57882400  0.48784600  0.73255700  1
  H  2995  1  0.55062300  0.48311500  0.70468000  1
  H  2996  1  0.55636100  0.45110300  0.72951000  1
  H  2998  1  0.50920200  0.56160100  0.81397000  1
  H  3000  1  0.49882500  0.44561400  0.71224800  1
  C  1  1  0.07547900  0.07199600  0.06877500  1
  C  2  1  0.06585600  0.10420500  0.07551400  1
  C  3  1  0.08393500  0.12290500  0.09489000  1
  C  4  1  0.11155400  0.11002300  0.10927700  1
  C  5  1  0.12208100  0.07847600  0.10055600  1
  C  6  1  0.10436400  0.05976800  0.08095600  1
  C  7  1  0.13109900  0.13101900  0.12999000  1
  C  8  1  0.15092400  0.15212900  0.10957100  1
  C  9  1  0.17867800  0.13926000  0.09538800  1
  C  10  1  0.19709900  0.15806200  0.07634000  1
  C  11  1  0.18780500  0.19043400  0.06979000  1
  C  12  1  0.15878000  0.20265400  0.08173100  1
  C  13  1  0.14063400  0.18378700  0.10093100  1
  C  14  1  0.11033400  0.15101300  0.15054200  1
  C  15  1  0.15157200  0.11091900  0.15069600  1
  C  16  1  0.18366800  0.11994500  0.15910400  1
  C  17  1  0.20178800  0.10129400  0.17848800  1
  C  18  1  0.18816400  0.07313200  0.19105600  1
  C  19  1  0.15552300  0.06516700  0.18461000  1
  C  20  1  0.13759800  0.08387300  0.16515300  1
  C  21  1  0.07815400  0.14185800  0.15858100  1
  C  22  1  0.05966500  0.16046100  0.17772000  1
  C  23  1  0.07295600  0.18872600  0.19039500  1
  C  24  1  0.10569300  0.19676000  0.18439200  1
  C  25  1  0.12401700  0.17805700  0.16520600  1
  C  46  1  0.68846400  0.18827400  0.56904800  1
  C  47  1  0.70169800  0.15972200  0.58127500  1
  C  48  1  0.68345400  0.14119400  0.60065300  1
  C  49  1  0.65162600  0.15071600  0.60940600  1
  C  50  1  0.63796600  0.17812500  0.59523900  1
  C  51  1  0.65604000  0.19674800  0.57582200  1
  C  52  1  0.63107700  0.13063100  0.63005500  1
  C  53  1  0.61047100  0.11058000  0.60942300  1
  C  54  1  0.57860900  0.12010500  0.60076900  1
  C  55  1  0.56029900  0.10160300  0.58141800  1
  C  56  1  0.57352100  0.07309900  0.56910700  1
  C  57  1  0.60597900  0.06463500  0.57575800  1
  C  58  1  0.62409700  0.08321100  0.59517600  1
  C  59  1  0.65084900  0.10963500  0.65059100  1
  C  60  1  0.61136600  0.15160000  0.65065400  1
  C  61  1  0.58338900  0.13883900  0.66458900  1
  C  62  1  0.56505000  0.15759200  0.68373400  1
  C  63  1  0.57471800  0.18973100  0.69071900  1
  C  64  1  0.60398700  0.20175900  0.67907300  1
  C  65  1  0.62201900  0.18296500  0.65973900  1
  C  66  1  0.67885700  0.12237100  0.66448800  1
  C  67  1  0.69724300  0.10358900  0.68357800  1
  C  68  1  0.68762800  0.07141700  0.69052000  1
  C  69  1  0.65834700  0.05939700  0.67888600  1
  C  70  1  0.64024700  0.07823200  0.65962500  1
  C  91  1  0.18630900  0.57263600  0.69143000  1
  C  92  1  0.19880600  0.60239600  0.68089100  1
  C  93  1  0.18074000  0.62106900  0.66149600  1
  C  94  1  0.15001800  0.61045200  0.65092700  1
  C  95  1  0.13691800  0.58174000  0.66347500  1
  C  96  1  0.15474900  0.56301900  0.68298800  1
  C  97  1  0.12985600  0.63094000  0.63030900  1
  C  98  1  0.10952200  0.65118100  0.65097400  1
  C  99  1  0.07870900  0.64044900  0.66125000  1
  C  100  1  0.06051800  0.65886000  0.68074600  1
  C  101  1  0.07295000  0.68846700  0.69165500  1
  C  102  1  0.10459600  0.69815200  0.68351500  1
  C  103  1  0.12255900  0.67968500  0.66391500  1
  C  104  1  0.14995800  0.65172400  0.60988100  1
  C  105  1  0.10998000  0.61038800  0.60954000  1
  C  106  1  0.08068000  0.62233000  0.59717900  1
  C  107  1  0.06255400  0.60376000  0.57774200  1
  C  108  1  0.07372800  0.57276000  0.56887400  1
  C  109  1  0.10414400  0.56175000  0.57899500  1
  C  110  1  0.12197000  0.58033200  0.59860800  1
  C  111  1  0.17931000  0.63980900  0.59760200  1
  C  112  1  0.19775900  0.65859400  0.57856400  1
  C  113  1  0.18695100  0.68986900  0.57006500  1
  C  114  1  0.15647200  0.70088200  0.58005400  1
  C  115  1  0.13826200  0.68202700  0.59922200  1
  C  136  1  0.57412700  0.68943700  0.19167100  1
  C  137  1  0.56477600  0.65710300  0.18509900  1
  C  138  1  0.58285400  0.63851900  0.16563900  1
  C  139  1  0.61021700  0.65161100  0.15103200  1
  C  140  1  0.62046500  0.68332700  0.15955400  1
  C  141  1  0.60274100  0.70192800  0.17922200  1
  C  142  1  0.62982300  0.63063900  0.13034000  1
  C  143  1  0.64952600  0.60940300  0.15075800  1
  C  144  1  0.67691100  0.62237600  0.16540600  1
  C  145  1  0.69523200  0.60351600  0.18447900  1
  C  146  1  0.68617900  0.57096400  0.19058400  1
  C  147  1  0.65751600  0.55856800  0.17814600  1
  C  148  1  0.63949100  0.57748700  0.15890300  1
  C  149  1  0.60913000  0.61074800  0.10965100  1
  C  150  1  0.65046200  0.65079000  0.10978700  1
  C  151  1  0.68281400  0.64209400  0.10185100  1
  C  152  1  0.70105300  0.66081800  0.08260400  1
  C  153  1  0.68732300  0.68872600  0.06971300  1
  C  154  1  0.65449300  0.69637300  0.07571000  1
  C  155  1  0.63644900  0.67760100  0.09503700  1
  C  156  1  0.57673700  0.61951200  0.10191100  1
  C  157  1  0.55843100  0.60100600  0.08256000  1
  C  158  1  0.57211800  0.57324900  0.06938500  1
  C  159  1  0.60498200  0.56556300  0.07520100  1
  C  160  1  0.62311200  0.58415000  0.09459800  1
  C  181  1  0.82450700  0.32152200  0.44050500  1
  C  182  1  0.85341900  0.30928300  0.42838200  1
  C  183  1  0.87138300  0.32812400  0.40904000  1
  C  184  1  0.86102500  0.35978300  0.40045900  1
  C  185  1  0.83341800  0.37268000  0.41484000  1
  C  186  1  0.81515400  0.35388800  0.43400500  1
  C  187  1  0.88062300  0.38084300  0.37984500  1
  C  188  1  0.90036600  0.40193200  0.40033700  1
  C  189  1  0.89009100  0.43361600  0.40892200  1
  C  190  1  0.90816000  0.45245500  0.42819900  1
  C  191  1  0.93709400  0.44018800  0.44027200  1
  C  192  1  0.94636900  0.40779800  0.43376000  1
  C  193  1  0.92801500  0.38902100  0.41464600  1
  C  194  1  0.90119200  0.36080000  0.35917500  1
  C  195  1  0.85987600  0.40081600  0.35925500  1
  C  196  1  0.87362900  0.42780500  0.34456300  1
  C  197  1  0.85544800  0.44634700  0.32516600  1
  C  198  1  0.82278100  0.43821800  0.31896900  1
  C  199  1  0.80938300  0.41007300  0.33174600  1
  C  200  1  0.82774000  0.39162100  0.35109500  1
  C  201  1  0.88727600  0.33381600  0.34459100  1
  C  202  1  0.90528100  0.31517800  0.32514700  1
  C  203  1  0.93794300  0.32318400  0.31883000  1
  C  204  1  0.95153400  0.35127600  0.33153400  1
  C  205  1  0.93333100  0.36985000  0.35091000  1
  C  226  1  0.93860700  0.93874900  0.94079200  1
  C  227  1  0.90627600  0.94752800  0.93396700  1
  C  228  1  0.88785500  0.92873100  0.91490400  1
  C  229  1  0.90109400  0.90086700  0.90110800  1
  C  230  1  0.93273400  0.89098400  0.91004900  1
  C  231  1  0.95130400  0.90965100  0.92908500  1
  C  232  1  0.88038400  0.88071900  0.88063000  1
  C  233  1  0.85981800  0.86083200  0.90138900  1
  C  234  1  0.87324700  0.83324900  0.91546900  1
  C  235  1  0.85499300  0.81465000  0.93478000  1
  C  236  1  0.82262000  0.82334100  0.94152200  1
  C  237  1  0.80970400  0.85216800  0.92950900  1
  C  238  1  0.82814100  0.87067600  0.91026000  1
  C  239  1  0.86066800  0.90158100  0.85995200  1
  C  240  1  0.90000900  0.85954200  0.86013400  1
  C  241  1  0.88903800  0.82830500  0.85099500  1
  C  242  1  0.90694800  0.80931000  0.83172400  1
  C  243  1  0.93639300  0.82102900  0.82018100  1
  C  244  1  0.94638700  0.85305500  0.82719300  1
  C  245  1  0.92820100  0.87198600  0.84631100  1
  C  246  1  0.87173700  0.93259000  0.85035000  1
  C  247  1  0.85396400  0.95118900  0.83070700  1
  C  248  1  0.82452200  0.93931600  0.81927300  1
  C  249  1  0.81433500  0.90753200  0.82685500  1
  C  250  1  0.83242800  0.88896000  0.84631100  1
  C  271  1  0.32235100  0.43847500  0.81932700  1
  C  272  1  0.35482200  0.44706100  0.82582900  1
  C  273  1  0.37323500  0.42837400  0.84496600  1
  C  274  1  0.35986900  0.40080300  0.85910900  1
  C  275  1  0.32805000  0.39109300  0.85051200  1
  C  276  1  0.30947600  0.40967500  0.83141900  1
  C  277  1  0.38059400  0.38083300  0.87969500  1
  C  278  1  0.40114300  0.36076100  0.85904200  1
  C  279  1  0.38756700  0.33320700  0.84502500  1
  C  280  1  0.40566400  0.31456400  0.82563600  1
  C  281  1  0.43803500  0.32313600  0.81876200  1
  C  282  1  0.45116900  0.35182600  0.83082900  1
  C  283  1  0.43288300  0.37039800  0.85015200  1
  C  284  1  0.40034600  0.40192300  0.90016600  1
  C  285  1  0.36099800  0.35989800  0.90040600  1
  C  286  1  0.37195700  0.32871800  0.90968600  1
  C  287  1  0.35427700  0.31006300  0.92935400  1
  C  288  1  0.32502200  0.32202100  0.94107800  1
  C  289  1  0.31496000  0.35393500  0.93379700  1
  C  290  1  0.33297000  0.37256800  0.91433200  1
  C  291  1  0.38949700  0.43317400  0.90937300  1
  C  292  1  0.40742900  0.45199500  0.92874700  1
  C  293  1  0.43678600  0.44009500  0.94031700  1
  C  294  1  0.44669200  0.40807700  0.93318700  1
  C  295  1  0.42847700  0.38931200  0.91396900  1
  C  316  1  0.43778300  0.82237100  0.32022100  1
  C  317  1  0.40597000  0.81292200  0.32810200  1
  C  318  1  0.38771800  0.83178300  0.34723800  1
  C  319  1  0.40066900  0.86040700  0.36004700  1
  C  320  1  0.43163200  0.87093300  0.34997000  1
  C  321  1  0.45005000  0.85218800  0.33088200  1
  C  322  1  0.38027600  0.88077500  0.38058300  1
  C  323  1  0.35994200  0.90094300  0.35986600  1
  C  324  1  0.37303500  0.92933000  0.34677400  1
  C  325  1  0.35489300  0.94800400  0.32743800  1
  C  326  1  0.32304000  0.93859500  0.31965600  1
  C  327  1  0.31060800  0.90900100  0.33062000  1
  C  328  1  0.32893800  0.89041700  0.34989300  1
  C  329  1  0.36038000  0.86014300  0.40128500  1
  C  330  1  0.40018700  0.90163400  0.40110200  1
  C  331  1  0.38862000  0.93216200  0.41138500  1
  C  332  1  0.40667900  0.95101800  0.43065600  1
  C  333  1  0.43686900  0.93979800  0.44109600  1
  C  334  1  0.44751800  0.90833600  0.43297400  1
  C  335  1  0.42920000  0.88954400  0.41385000  1
  C  336  1  0.37210300  0.82984000  0.41192100  1
  C  337  1  0.35425000  0.81130400  0.43154900  1
  C  338  1  0.32408900  0.82261000  0.44198300  1
  C  339  1  0.31318400  0.85380100  0.43338300  1
  C  340  1  0.33133000  0.87231400  0.41392600  1
  C  361  1  0.01862100  0.02902300  0.02360600  1
  C  363  1  0.03149700  0.99052300  0.98685100  1
  C  364  1  0.99767400  0.98369400  0.98299900  1
  C  366  1  0.98514300  0.02221800  0.01958500  1
  C  368  1  0.05815000  0.97529400  0.97039800  1
  C  372  1  0.02951900  0.05137600  0.04337300  1
  C  374  1  0.98568600  0.96155600  0.96334000  1
  C  376  1  0.74544400  0.23319300  0.52515800  1
  C  378  1  0.73240200  0.27111000  0.48799500  1
  C  379  1  0.76612500  0.27866700  0.48461400  1
  C  381  1  0.77883600  0.24069000  0.52152500  1
  C  383  1  0.70583600  0.28564000  0.47098800  1
  C  387  1  0.73479000  0.21108100  0.54523200  1
  C  389  1  0.77802700  0.30127900  0.46536800  1
  C  391  1  0.24307300  0.52807900  0.73565600  1
  C  393  1  0.22986100  0.49117700  0.77351900  1
  C  394  1  0.26353900  0.48343200  0.77697800  1
  C  396  1  0.27640900  0.52035600  0.73929100  1
  C  398  1  0.20315500  0.47725600  0.79074700  1
  C  402  1  0.23246800  0.55002400  0.71543700  1
  C  404  1  0.27533100  0.46152700  0.79690000  1
  C  406  1  0.51746300  0.73204600  0.23726000  1
  C  408  1  0.53046700  0.77099100  0.27362900  1
  C  409  1  0.49664200  0.77764600  0.27768300  1
  C  411  1  0.48398500  0.73865700  0.24149700  1
  C  413  1  0.55718000  0.78654700  0.28978300  1
  C  417  1  0.52830400  0.70960200  0.21754800  1
  C  419  1  0.48471100  0.79995400  0.29721600  1
  C  421  1  0.26699200  0.77919500  0.48669900  1
  C  423  1  0.27974000  0.74053100  0.52335900  1
  C  424  1  0.24591700  0.73358000  0.52699500  1
  C  426  1  0.23350600  0.77229600  0.49055100  1
  C  428  1  0.30627900  0.72529500  0.53994000  1
  C  432  1  0.27790200  0.80153800  0.46692600  1
  C  434  1  0.23384000  0.71109100  0.54629300  1
  C  436  1  0.76554100  0.48319800  0.27541100  1
  C  438  1  0.77829600  0.52004600  0.23739300  1
  C  439  1  0.74465900  0.52827000  0.23463300  1
  C  441  1  0.73221700  0.49133900  0.27237400  1
  C  443  1  0.80463700  0.53363000  0.21956800  1
  C  447  1  0.77630100  0.46129200  0.29560000  1
  C  449  1  0.73269600  0.55081100  0.21537500  1
  C  451  1  0.49521200  0.27811000  0.77512000  1
  C  453  1  0.48236700  0.24027400  0.73783900  1
  C  454  1  0.51610100  0.23270000  0.73458000  1
  C  456  1  0.52862200  0.27059000  0.77161300  1
  C  458  1  0.45587600  0.22580000  0.72070800  1
  C  462  1  0.48445200  0.30022100  0.79515800  1
  C  464  1  0.52809400  0.21013100  0.71532600  1
  C  466  1  0.01670000  0.52901000  0.52428200  1
  C  468  1  0.02949500  0.48969100  0.48814900  1
  C  469  1  0.99565800  0.48292900  0.48437200  1
  C  471  1  0.98319800  0.52230700  0.52026600  1
  C  473  1  0.05603600  0.47401300  0.47188100  1
  C  477  1  0.02757400  0.55149800  0.54395600  1
  C  479  1  0.98359100  0.46013600  0.46534900  1
  C  481  1  0.74399400  0.73425500  0.02603600  1
  C  483  1  0.73060600  0.76993200  0.98735600  1
  C  484  1  0.76414300  0.77844500  0.98423300  1
  C  486  1  0.77719300  0.74273300  0.02272500  1
  C  488  1  0.70391000  0.78278300  0.96951400  1
  C  492  1  0.73355100  0.71260100  0.04655400  1
  C  494  1  0.77576900  0.80023600  0.96414600  1
  C  496  1  0.24467300  0.02773400  0.23500700  1
  C  498  1  0.23115100  0.99141200  0.27321100  1
  C  499  1  0.26472400  0.98316100  0.27654800  1
  C  501  1  0.27790900  0.01951800  0.23854200  1
  C  503  1  0.20437200  0.97808800  0.29069900  1
  C  507  1  0.23429200  0.04953800  0.21458100  1
  C  509  1  0.27630600  0.96115600  0.29648100  1
  C  511  1  0.26795000  0.27889200  0.98592700  1
  C  513  1  0.28040000  0.24082300  0.02311100  1
  C  514  1  0.24663100  0.23323500  0.02605500  1
  C  516  1  0.23449900  0.27140600  0.98914000  1
  C  518  1  0.30669000  0.22631600  0.04044800  1
  C  522  1  0.27897500  0.30126900  0.96624400  1
  C  524  1  0.23447100  0.21054900  0.04511200  1
  C  526  1  0.76756900  0.98237900  0.77417700  1
  C  528  1  0.78025100  0.02184800  0.73813600  1
  C  529  1  0.74638900  0.02845200  0.73430900  1
  C  531  1  0.73404500  0.98891900  0.77011000  1
  C  533  1  0.80676300  0.03767600  0.72194100  1
  C  537  1  0.77852800  0.95983300  0.79375800  1
  C  539  1  0.73426000  0.05120400  0.71526900  1
  C  541  1  0.51634100  0.02815600  0.52549200  1
  C  543  1  0.52916200  0.99171300  0.48720300  1
  C  544  1  0.49554700  0.98337900  0.48442100  1
  C  546  1  0.48304600  0.01989500  0.52246400  1
  C  548  1  0.55556500  0.97840000  0.46929000  1
  C  552  1  0.52708000  0.04999000  0.54574900  1
  C  554  1  0.48362800  0.96109000  0.46490200  1
  C  556  1  0.01580200  0.73270500  0.73573800  1
  C  558  1  0.02846400  0.76880800  0.77429800  1
  C  559  1  0.99491900  0.77755800  0.77669600  1
  C  561  1  0.98256300  0.74134000  0.73841500  1
  C  563  1  0.05471000  0.78167100  0.79261700  1
  C  567  1  0.02660100  0.71082200  0.71555100  1
  C  569  1  0.98299500  0.80000100  0.79606600  1
  C  571  1  0.99452600  0.27801200  0.27485600  1
  C  573  1  0.98101100  0.24240700  0.23616100  1
  C  574  1  0.01454500  0.23396200  0.23290600  1
  C  576  1  0.02772400  0.26959500  0.27142200  1
  C  578  1  0.95423900  0.22954100  0.21840800  1
  C  582  1  0.98413900  0.29960700  0.29543000  1
  C  584  1  0.02611700  0.21226500  0.21272700  1
  C  586  1  0.51526800  0.52800400  0.02564900  1
  C  588  1  0.52852700  0.49118000  0.98774000  1
  C  589  1  0.49491700  0.48303600  0.98458400  1
  C  591  1  0.48198100  0.51992600  0.02224100  1
  C  593  1  0.55513200  0.47755200  0.97023200  1
  C  597  1  0.52578900  0.54986800  0.04596700  1
  C  599  1  0.48319300  0.46062300  0.96509600  1
  C  601  1  0.07547900  0.07199600  0.25791100  1
  C  602  1  0.06585600  0.10420500  0.26465000  1
  C  603  1  0.08393500  0.12290500  0.28402600  1
  C  604  1  0.11155400  0.11002300  0.29841300  1
  C  605  1  0.12208100  0.07847600  0.28969200  1
  C  606  1  0.10436400  0.05976800  0.27009200  1
  C  607  1  0.13109900  0.13101900  0.31912600  1
  C  608  1  0.15092400  0.15212900  0.29870700  1
  C  609  1  0.17867800  0.13926000  0.28452400  1
  C  610  1  0.19709900  0.15806200  0.26547600  1
  C  611  1  0.18780500  0.19043400  0.25892600  1
  C  612  1  0.15878000  0.20265400  0.27086700  1
  C  613  1  0.14063400  0.18378700  0.29006700  1
  C  614  1  0.11033400  0.15101300  0.33967800  1
  C  615  1  0.15157200  0.11091900  0.33983200  1
  C  616  1  0.18366800  0.11994500  0.34824000  1
  C  617  1  0.20178800  0.10129400  0.36762400  1
  C  618  1  0.18816400  0.07313200  0.38019200  1
  C  619  1  0.15552300  0.06516700  0.37374600  1
  C  620  1  0.13759800  0.08387300  0.35428900  1
  C  621  1  0.07815400  0.14185800  0.34771700  1
  C  622  1  0.05966500  0.16046100  0.36685600  1
  C  623  1  0.07295600  0.18872600  0.37953100  1
  C  624  1  0.10569300  0.19676000  0.37352800  1
  C  625  1  0.12401700  0.17805700  0.35434200  1
  C  646  1  0.68846400  0.18827400  0.75818400  1
  C  647  1  0.70169800  0.15972200  0.77041100  1
  C  648  1  0.68345400  0.14119400  0.78978900  1
  C  649  1  0.65162600  0.15071600  0.79854200  1
  C  650  1  0.63796600  0.17812500  0.78437500  1
  C  651  1  0.65604000  0.19674800  0.76495800  1
  C  652  1  0.63107700  0.13063100  0.81919100  1
  C  653  1  0.61047100  0.11058000  0.79855900  1
  C  654  1  0.57860900  0.12010500  0.78990500  1
  C  655  1  0.56029900  0.10160300  0.77055400  1
  C  656  1  0.57352100  0.07309900  0.75824300  1
  C  657  1  0.60597900  0.06463500  0.76489400  1
  C  658  1  0.62409700  0.08321100  0.78431200  1
  C  659  1  0.65084900  0.10963500  0.83972700  1
  C  660  1  0.61136600  0.15160000  0.83979000  1
  C  661  1  0.58338900  0.13883900  0.85372500  1
  C  662  1  0.56505000  0.15759200  0.87287000  1
  C  663  1  0.57471800  0.18973100  0.87985500  1
  C  664  1  0.60398700  0.20175900  0.86820900  1
  C  665  1  0.62201900  0.18296500  0.84887500  1
  C  666  1  0.67885700  0.12237100  0.85362400  1
  C  667  1  0.69724300  0.10358900  0.87271400  1
  C  668  1  0.68762800  0.07141700  0.87965600  1
  C  669  1  0.65834700  0.05939700  0.86802200  1
  C  670  1  0.64024700  0.07823200  0.84876100  1
  C  691  1  0.18630900  0.57263600  0.88056600  1
  C  692  1  0.19880600  0.60239600  0.87002700  1
  C  693  1  0.18074000  0.62106900  0.85063200  1
  C  694  1  0.15001800  0.61045200  0.84006300  1
  C  695  1  0.13691800  0.58174000  0.85261100  1
  C  696  1  0.15474900  0.56301900  0.87212400  1
  C  697  1  0.12985600  0.63094000  0.81944500  1
  C  698  1  0.10952200  0.65118100  0.84011000  1
  C  699  1  0.07870900  0.64044900  0.85038600  1
  C  700  1  0.06051800  0.65886000  0.86988200  1
  C  701  1  0.07295000  0.68846700  0.88079100  1
  C  702  1  0.10459600  0.69815200  0.87265100  1
  C  703  1  0.12255900  0.67968500  0.85305100  1
  C  704  1  0.14995800  0.65172400  0.79901700  1
  C  705  1  0.10998000  0.61038800  0.79867600  1
  C  706  1  0.08068000  0.62233000  0.78631500  1
  C  707  1  0.06255400  0.60376000  0.76687800  1
  C  708  1  0.07372800  0.57276000  0.75801000  1
  C  709  1  0.10414400  0.56175000  0.76813100  1
  C  710  1  0.12197000  0.58033200  0.78774400  1
  C  711  1  0.17931000  0.63980900  0.78673800  1
  C  712  1  0.19775900  0.65859400  0.76770000  1
  C  713  1  0.18695100  0.68986900  0.75920100  1
  C  714  1  0.15647200  0.70088200  0.76919000  1
  C  715  1  0.13826200  0.68202700  0.78835800  1
  C  736  1  0.57412700  0.68943700  0.38080700  1
  C  737  1  0.56477600  0.65710300  0.37423500  1
  C  738  1  0.58285400  0.63851900  0.35477500  1
  C  739  1  0.61021700  0.65161100  0.34016800  1
  C  740  1  0.62046500  0.68332700  0.34869000  1
  C  741  1  0.60274100  0.70192800  0.36835800  1
  C  742  1  0.62982300  0.63063900  0.31947600  1
  C  743  1  0.64952600  0.60940300  0.33989400  1
  C  744  1  0.67691100  0.62237600  0.35454200  1
  C  745  1  0.69523200  0.60351600  0.37361500  1
  C  746  1  0.68617900  0.57096400  0.37972000  1
  C  747  1  0.65751600  0.55856800  0.36728200  1
  C  748  1  0.63949100  0.57748700  0.34803900  1
  C  749  1  0.60913000  0.61074800  0.29878700  1
  C  750  1  0.65046200  0.65079000  0.29892300  1
  C  751  1  0.68281400  0.64209400  0.29098700  1
  C  752  1  0.70105300  0.66081800  0.27174000  1
  C  753  1  0.68732300  0.68872600  0.25884900  1
  C  754  1  0.65449300  0.69637300  0.26484600  1
  C  755  1  0.63644900  0.67760100  0.28417300  1
  C  756  1  0.57673700  0.61951200  0.29104700  1
  C  757  1  0.55843100  0.60100600  0.27169600  1
  C  758  1  0.57211800  0.57324900  0.25852100  1
  C  759  1  0.60498200  0.56556300  0.26433700  1
  C  760  1  0.62311200  0.58415000  0.28373400  1
  C  781  1  0.82450700  0.32152200  0.62964100  1
  C  782  1  0.85341900  0.30928300  0.61751800  1
  C  783  1  0.87138300  0.32812400  0.59817600  1
  C  784  1  0.86102500  0.35978300  0.58959500  1
  C  785  1  0.83341800  0.37268000  0.60397600  1
  C  786  1  0.81515400  0.35388800  0.62314100  1
  C  787  1  0.88062300  0.38084300  0.56898100  1
  C  788  1  0.90036600  0.40193200  0.58947300  1
  C  789  1  0.89009100  0.43361600  0.59805800  1
  C  790  1  0.90816000  0.45245500  0.61733500  1
  C  791  1  0.93709400  0.44018800  0.62940800  1
  C  792  1  0.94636900  0.40779800  0.62289600  1
  C  793  1  0.92801500  0.38902100  0.60378200  1
  C  794  1  0.90119200  0.36080000  0.54831100  1
  C  795  1  0.85987600  0.40081600  0.54839100  1
  C  796  1  0.87362900  0.42780500  0.53369900  1
  C  797  1  0.85544800  0.44634700  0.51430200  1
  C  798  1  0.82278100  0.43821800  0.50810500  1
  C  799  1  0.80938300  0.41007300  0.52088200  1
  C  800  1  0.82774000  0.39162100  0.54023100  1
  C  801  1  0.88727600  0.33381600  0.53372700  1
  C  802  1  0.90528100  0.31517800  0.51428300  1
  C  803  1  0.93794300  0.32318400  0.50796600  1
  C  804  1  0.95153400  0.35127600  0.52067000  1
  C  805  1  0.93333100  0.36985000  0.54004600  1
  C  826  1  0.93860700  0.93874900  0.12992800  1
  C  827  1  0.90627600  0.94752800  0.12310300  1
  C  828  1  0.88785500  0.92873100  0.10404000  1
  C  829  1  0.90109400  0.90086700  0.09024360  1
  C  830  1  0.93273400  0.89098400  0.09918460  1
  C  831  1  0.95130400  0.90965100  0.11822100  1
  C  832  1  0.88038400  0.88071900  0.06976560  1
  C  833  1  0.85981800  0.86083200  0.09052460  1
  C  834  1  0.87324700  0.83324900  0.10460500  1
  C  835  1  0.85499300  0.81465000  0.12391600  1
  C  836  1  0.82262000  0.82334100  0.13065800  1
  C  837  1  0.80970400  0.85216800  0.11864500  1
  C  838  1  0.82814100  0.87067600  0.09939560  1
  C  839  1  0.86066800  0.90158100  0.04908760  1
  C  840  1  0.90000900  0.85954200  0.04926960  1
  C  841  1  0.88903800  0.82830500  0.04013060  1
  C  842  1  0.90694800  0.80931000  0.02085960  1
  C  843  1  0.93639300  0.82102900  0.00931663  1
  C  844  1  0.94638700  0.85305500  0.01632860  1
  C  845  1  0.92820100  0.87198600  0.03544660  1
  C  846  1  0.87173700  0.93259000  0.03948560  1
  C  847  1  0.85396400  0.95118900  0.01984260  1
  C  848  1  0.82452200  0.93931600  0.00840863  1
  C  849  1  0.81433500  0.90753200  0.01599060  1
  C  850  1  0.83242800  0.88896000  0.03544660  1
  C  871  1  0.32235100  0.43847500  0.00846263  1
  C  872  1  0.35482200  0.44706100  0.01496460  1
  C  873  1  0.37323500  0.42837400  0.03410160  1
  C  874  1  0.35986900  0.40080300  0.04824460  1
  C  875  1  0.32805000  0.39109300  0.03964760  1
  C  876  1  0.30947600  0.40967500  0.02055460  1
  C  877  1  0.38059400  0.38083300  0.06883060  1
  C  878  1  0.40114300  0.36076100  0.04817760  1
  C  879  1  0.38756700  0.33320700  0.03416060  1
  C  880  1  0.40566400  0.31456400  0.01477160  1
  C  881  1  0.43803500  0.32313600  0.00789763  1
  C  882  1  0.45116900  0.35182600  0.01996460  1
  C  883  1  0.43288300  0.37039800  0.03928760  1
  C  884  1  0.40034600  0.40192300  0.08930160  1
  C  885  1  0.36099800  0.35989800  0.08954160  1
  C  886  1  0.37195700  0.32871800  0.09882160  1
  C  887  1  0.35427700  0.31006300  0.11849000  1
  C  888  1  0.32502200  0.32202100  0.13021400  1
  C  889  1  0.31496000  0.35393500  0.12293300  1
  C  890  1  0.33297000  0.37256800  0.10346800  1
  C  891  1  0.38949700  0.43317400  0.09850860  1
  C  892  1  0.40742900  0.45199500  0.11788300  1
  C  893  1  0.43678600  0.44009500  0.12945300  1
  C  894  1  0.44669200  0.40807700  0.12232300  1
  C  895  1  0.42847700  0.38931200  0.10310500  1
  C  916  1  0.43778300  0.82237100  0.50935700  1
  C  917  1  0.40597000  0.81292200  0.51723800  1
  C  918  1  0.38771800  0.83178300  0.53637400  1
  C  919  1  0.40066900  0.86040700  0.54918300  1
  C  920  1  0.43163200  0.87093300  0.53910600  1
  C  921  1  0.45005000  0.85218800  0.52001800  1
  C  922  1  0.38027600  0.88077500  0.56971900  1
  C  923  1  0.35994200  0.90094300  0.54900200  1
  C  924  1  0.37303500  0.92933000  0.53591000  1
  C  925  1  0.35489300  0.94800400  0.51657400  1
  C  926  1  0.32304000  0.93859500  0.50879200  1
  C  927  1  0.31060800  0.90900100  0.51975600  1
  C  928  1  0.32893800  0.89041700  0.53902900  1
  C  929  1  0.36038000  0.86014300  0.59042100  1
  C  930  1  0.40018700  0.90163400  0.59023800  1
  C  931  1  0.38862000  0.93216200  0.60052100  1
  C  932  1  0.40667900  0.95101800  0.61979200  1
  C  933  1  0.43686900  0.93979800  0.63023200  1
  C  934  1  0.44751800  0.90833600  0.62211000  1
  C  935  1  0.42920000  0.88954400  0.60298600  1
  C  936  1  0.37210300  0.82984000  0.60105700  1
  C  937  1  0.35425000  0.81130400  0.62068500  1
  C  938  1  0.32408900  0.82261000  0.63111900  1
  C  939  1  0.31318400  0.85380100  0.62251900  1
  C  940  1  0.33133000  0.87231400  0.60306200  1
  C  961  1  0.01862100  0.02902300  0.21274200  1
  C  963  1  0.03149700  0.99052300  0.17598700  1
  C  964  1  0.99767400  0.98369400  0.17213500  1
  C  966  1  0.98514300  0.02221800  0.20872100  1
  C  968  1  0.05815000  0.97529400  0.15953400  1
  C  972  1  0.02951900  0.05137600  0.23250900  1
  C  974  1  0.98568600  0.96155600  0.15247600  1
  C  976  1  0.74544400  0.23319300  0.71429400  1
  C  978  1  0.73240200  0.27111000  0.67713100  1
  C  979  1  0.76612500  0.27866700  0.67375000  1
  C  981  1  0.77883600  0.24069000  0.71066100  1
  C  983  1  0.70583600  0.28564000  0.66012400  1
  C  987  1  0.73479000  0.21108100  0.73436800  1
  C  989  1  0.77802700  0.30127900  0.65450400  1
  C  991  1  0.24307300  0.52807900  0.92479200  1
  C  993  1  0.22986100  0.49117700  0.96265500  1
  C  994  1  0.26353900  0.48343200  0.96611400  1
  C  996  1  0.27640900  0.52035600  0.92842700  1
  C  998  1  0.20315500  0.47725600  0.97988300  1
  C  1002  1  0.23246800  0.55002400  0.90457300  1
  C  1004  1  0.27533100  0.46152700  0.98603600  1
  C  1006  1  0.51746300  0.73204600  0.42639600  1
  C  1008  1  0.53046700  0.77099100  0.46276500  1
  C  1009  1  0.49664200  0.77764600  0.46681900  1
  C  1011  1  0.48398500  0.73865700  0.43063300  1
  C  1013  1  0.55718000  0.78654700  0.47891900  1
  C  1017  1  0.52830400  0.70960200  0.40668400  1
  C  1019  1  0.48471100  0.79995400  0.48635200  1
  C  1021  1  0.26699200  0.77919500  0.67583500  1
  C  1023  1  0.27974000  0.74053100  0.71249500  1
  C  1024  1  0.24591700  0.73358000  0.71613100  1
  C  1026  1  0.23350600  0.77229600  0.67968700  1
  C  1028  1  0.30627900  0.72529500  0.72907600  1
  C  1032  1  0.27790200  0.80153800  0.65606200  1
  C  1034  1  0.23384000  0.71109100  0.73542900  1
  C  1036  1  0.76554100  0.48319800  0.46454700  1
  C  1038  1  0.77829600  0.52004600  0.42652900  1
  C  1039  1  0.74465900  0.52827000  0.42376900  1
  C  1041  1  0.73221700  0.49133900  0.46151000  1
  C  1043  1  0.80463700  0.53363000  0.40870400  1
  C  1047  1  0.77630100  0.46129200  0.48473600  1
  C  1049  1  0.73269600  0.55081100  0.40451100  1
  C  1051  1  0.49521200  0.27811000  0.96425600  1
  C  1053  1  0.48236700  0.24027400  0.92697500  1
  C  1054  1  0.51610100  0.23270000  0.92371600  1
  C  1056  1  0.52862200  0.27059000  0.96074900  1
  C  1058  1  0.45587600  0.22580000  0.90984400  1
  C  1062  1  0.48445200  0.30022100  0.98429400  1
  C  1064  1  0.52809400  0.21013100  0.90446200  1
  C  1066  1  0.01670000  0.52901000  0.71341800  1
  C  1068  1  0.02949500  0.48969100  0.67728500  1
  C  1069  1  0.99565800  0.48292900  0.67350800  1
  C  1071  1  0.98319800  0.52230700  0.70940200  1
  C  1073  1  0.05603600  0.47401300  0.66101700  1
  C  1077  1  0.02757400  0.55149800  0.73309200  1
  C  1079  1  0.98359100  0.46013600  0.65448500  1
  C  1081  1  0.74399400  0.73425500  0.21517200  1
  C  1083  1  0.73060600  0.76993200  0.17649200  1
  C  1084  1  0.76414300  0.77844500  0.17336900  1
  C  1086  1  0.77719300  0.74273300  0.21186100  1
  C  1088  1  0.70391000  0.78278300  0.15865000  1
  C  1092  1  0.73355100  0.71260100  0.23569000  1
  C  1094  1  0.77576900  0.80023600  0.15328200  1
  C  1096  1  0.24467300  0.02773400  0.42414300  1
  C  1098  1  0.23115100  0.99141200  0.46234700  1
  C  1099  1  0.26472400  0.98316100  0.46568400  1
  C  1101  1  0.27790900  0.01951800  0.42767800  1
  C  1103  1  0.20437200  0.97808800  0.47983500  1
  C  1107  1  0.23429200  0.04953800  0.40371700  1
  C  1109  1  0.27630600  0.96115600  0.48561700  1
  C  1111  1  0.26795000  0.27889200  0.17506300  1
  C  1113  1  0.28040000  0.24082300  0.21224700  1
  C  1114  1  0.24663100  0.23323500  0.21519100  1
  C  1116  1  0.23449900  0.27140600  0.17827600  1
  C  1118  1  0.30669000  0.22631600  0.22958400  1
  C  1122  1  0.27897500  0.30126900  0.15538000  1
  C  1124  1  0.23447100  0.21054900  0.23424800  1
  C  1126  1  0.76756900  0.98237900  0.96331300  1
  C  1128  1  0.78025100  0.02184800  0.92727200  1
  C  1129  1  0.74638900  0.02845200  0.92344500  1
  C  1131  1  0.73404500  0.98891900  0.95924600  1
  C  1133  1  0.80676300  0.03767600  0.91107700  1
  C  1137  1  0.77852800  0.95983300  0.98289400  1
  C  1139  1  0.73426000  0.05120400  0.90440500  1
  C  1141  1  0.51634100  0.02815600  0.71462800  1
  C  1143  1  0.52916200  0.99171300  0.67633900  1
  C  1144  1  0.49554700  0.98337900  0.67355700  1
  C  1146  1  0.48304600  0.01989500  0.71160000  1
  C  1148  1  0.55556500  0.97840000  0.65842600  1
  C  1152  1  0.52708000  0.04999000  0.73488500  1
  C  1154  1  0.48362800  0.96109000  0.65403800  1
  C  1156  1  0.01580200  0.73270500  0.92487400  1
  C  1158  1  0.02846400  0.76880800  0.96343400  1
  C  1159  1  0.99491900  0.77755800  0.96583200  1
  C  1161  1  0.98256300  0.74134000  0.92755100  1
  C  1163  1  0.05471000  0.78167100  0.98175300  1
  C  1167  1  0.02660100  0.71082200  0.90468700  1
  C  1169  1  0.98299500  0.80000100  0.98520200  1
  C  1171  1  0.99452600  0.27801200  0.46399200  1
  C  1173  1  0.98101100  0.24240700  0.42529700  1
  C  1174  1  0.01454500  0.23396200  0.42204200  1
  C  1176  1  0.02772400  0.26959500  0.46055800  1
  C  1178  1  0.95423900  0.22954100  0.40754400  1
  C  1182  1  0.98413900  0.29960700  0.48456600  1
  C  1184  1  0.02611700  0.21226500  0.40186300  1
  C  1186  1  0.51526800  0.52800400  0.21478500  1
  C  1188  1  0.52852700  0.49118000  0.17687600  1
  C  1189  1  0.49491700  0.48303600  0.17372000  1
  C  1191  1  0.48198100  0.51992600  0.21137700  1
  C  1193  1  0.55513200  0.47755200  0.15936800  1
  C  1197  1  0.52578900  0.54986800  0.23510300  1
  C  1199  1  0.48319300  0.46062300  0.15423200  1
  C  1201  1  0.07547900  0.07199600  0.44704600  1
  C  1202  1  0.06585600  0.10420500  0.45378500  1
  C  1203  1  0.08393500  0.12290500  0.47316100  1
  C  1204  1  0.11155400  0.11002300  0.48754800  1
  C  1205  1  0.12208100  0.07847600  0.47882700  1
  C  1206  1  0.10436400  0.05976800  0.45922700  1
  C  1207  1  0.13109900  0.13101900  0.50826100  1
  C  1208  1  0.15092400  0.15212900  0.48784200  1
  C  1209  1  0.17867800  0.13926000  0.47365900  1
  C  1210  1  0.19709900  0.15806200  0.45461100  1
  C  1211  1  0.18780500  0.19043400  0.44806100  1
  C  1212  1  0.15878000  0.20265400  0.46000200  1
  C  1213  1  0.14063400  0.18378700  0.47920200  1
  C  1214  1  0.11033400  0.15101300  0.52881300  1
  C  1215  1  0.15157200  0.11091900  0.52896700  1
  C  1216  1  0.18366800  0.11994500  0.53737500  1
  C  1217  1  0.20178800  0.10129400  0.55675900  1
  C  1218  1  0.18816400  0.07313200  0.56932700  1
  C  1219  1  0.15552300  0.06516700  0.56288100  1
  C  1220  1  0.13759800  0.08387300  0.54342400  1
  C  1221  1  0.07815400  0.14185800  0.53685200  1
  C  1222  1  0.05966500  0.16046100  0.55599100  1
  C  1223  1  0.07295600  0.18872600  0.56866600  1
  C  1224  1  0.10569300  0.19676000  0.56266300  1
  C  1225  1  0.12401700  0.17805700  0.54347700  1
  C  1246  1  0.68846400  0.18827400  0.94731900  1
  C  1247  1  0.70169800  0.15972200  0.95954600  1
  C  1248  1  0.68345400  0.14119400  0.97892400  1
  C  1249  1  0.65162600  0.15071600  0.98767700  1
  C  1250  1  0.63796600  0.17812500  0.97351000  1
  C  1251  1  0.65604000  0.19674800  0.95409300  1
  C  1252  1  0.63107700  0.13063100  0.00832626  1
  C  1253  1  0.61047100  0.11058000  0.98769400  1
  C  1254  1  0.57860900  0.12010500  0.97904000  1
  C  1255  1  0.56029900  0.10160300  0.95968900  1
  C  1256  1  0.57352100  0.07309900  0.94737800  1
  C  1257  1  0.60597900  0.06463500  0.95402900  1
  C  1258  1  0.62409700  0.08321100  0.97344700  1
  C  1259  1  0.65084900  0.10963500  0.02886230  1
  C  1260  1  0.61136600  0.15160000  0.02892530  1
  C  1261  1  0.58338900  0.13883900  0.04286030  1
  C  1262  1  0.56505000  0.15759200  0.06200530  1
  C  1263  1  0.57471800  0.18973100  0.06899030  1
  C  1264  1  0.60398700  0.20175900  0.05734430  1
  C  1265  1  0.62201900  0.18296500  0.03801030  1
  C  1266  1  0.67885700  0.12237100  0.04275930  1
  C  1267  1  0.69724300  0.10358900  0.06184930  1
  C  1268  1  0.68762800  0.07141700  0.06879130  1
  C  1269  1  0.65834700  0.05939700  0.05715730  1
  C  1270  1  0.64024700  0.07823200  0.03789630  1
  C  1291  1  0.18630900  0.57263600  0.06970130  1
  C  1292  1  0.19880600  0.60239600  0.05916230  1
  C  1293  1  0.18074000  0.62106900  0.03976730  1
  C  1294  1  0.15001800  0.61045200  0.02919830  1
  C  1295  1  0.13691800  0.58174000  0.04174630  1
  C  1296  1  0.15474900  0.56301900  0.06125930  1
  C  1297  1  0.12985600  0.63094000  0.00858026  1
  C  1298  1  0.10952200  0.65118100  0.02924530  1
  C  1299  1  0.07870900  0.64044900  0.03952130  1
  C  1300  1  0.06051800  0.65886000  0.05901730  1
  C  1301  1  0.07295000  0.68846700  0.06992630  1
  C  1302  1  0.10459600  0.69815200  0.06178630  1
  C  1303  1  0.12255900  0.67968500  0.04218630  1
  C  1304  1  0.14995800  0.65172400  0.98815200  1
  C  1305  1  0.10998000  0.61038800  0.98781100  1
  C  1306  1  0.08068000  0.62233000  0.97545000  1
  C  1307  1  0.06255400  0.60376000  0.95601300  1
  C  1308  1  0.07372800  0.57276000  0.94714500  1
  C  1309  1  0.10414400  0.56175000  0.95726600  1
  C  1310  1  0.12197000  0.58033200  0.97687900  1
  C  1311  1  0.17931000  0.63980900  0.97587300  1
  C  1312  1  0.19775900  0.65859400  0.95683500  1
  C  1313  1  0.18695100  0.68986900  0.94833600  1
  C  1314  1  0.15647200  0.70088200  0.95832500  1
  C  1315  1  0.13826200  0.68202700  0.97749300  1
  C  1336  1  0.57412700  0.68943700  0.56994200  1
  C  1337  1  0.56477600  0.65710300  0.56337000  1
  C  1338  1  0.58285400  0.63851900  0.54391000  1
  C  1339  1  0.61021700  0.65161100  0.52930300  1
  C  1340  1  0.62046500  0.68332700  0.53782500  1
  C  1341  1  0.60274100  0.70192800  0.55749300  1
  C  1342  1  0.62982300  0.63063900  0.50861100  1
  C  1343  1  0.64952600  0.60940300  0.52902900  1
  C  1344  1  0.67691100  0.62237600  0.54367700  1
  C  1345  1  0.69523200  0.60351600  0.56275000  1
  C  1346  1  0.68617900  0.57096400  0.56885500  1
  C  1347  1  0.65751600  0.55856800  0.55641700  1
  C  1348  1  0.63949100  0.57748700  0.53717400  1
  C  1349  1  0.60913000  0.61074800  0.48792200  1
  C  1350  1  0.65046200  0.65079000  0.48805800  1
  C  1351  1  0.68281400  0.64209400  0.48012200  1
  C  1352  1  0.70105300  0.66081800  0.46087500  1
  C  1353  1  0.68732300  0.68872600  0.44798400  1
  C  1354  1  0.65449300  0.69637300  0.45398100  1
  C  1355  1  0.63644900  0.67760100  0.47330800  1
  C  1356  1  0.57673700  0.61951200  0.48018200  1
  C  1357  1  0.55843100  0.60100600  0.46083100  1
  C  1358  1  0.57211800  0.57324900  0.44765600  1
  C  1359  1  0.60498200  0.56556300  0.45347200  1
  C  1360  1  0.62311200  0.58415000  0.47286900  1
  C  1381  1  0.82450700  0.32152200  0.81877600  1
  C  1382  1  0.85341900  0.30928300  0.80665300  1
  C  1383  1  0.87138300  0.32812400  0.78731100  1
  C  1384  1  0.86102500  0.35978300  0.77873000  1
  C  1385  1  0.83341800  0.37268000  0.79311100  1
  C  1386  1  0.81515400  0.35388800  0.81227600  1
  C  1387  1  0.88062300  0.38084300  0.75811600  1
  C  1388  1  0.90036600  0.40193200  0.77860800  1
  C  1389  1  0.89009100  0.43361600  0.78719300  1
  C  1390  1  0.90816000  0.45245500  0.80647000  1
  C  1391  1  0.93709400  0.44018800  0.81854300  1
  C  1392  1  0.94636900  0.40779800  0.81203100  1
  C  1393  1  0.92801500  0.38902100  0.79291700  1
  C  1394  1  0.90119200  0.36080000  0.73744600  1
  C  1395  1  0.85987600  0.40081600  0.73752600  1
  C  1396  1  0.87362900  0.42780500  0.72283400  1
  C  1397  1  0.85544800  0.44634700  0.70343700  1
  C  1398  1  0.82278100  0.43821800  0.69724000  1
  C  1399  1  0.80938300  0.41007300  0.71001700  1
  C  1400  1  0.82774000  0.39162100  0.72936600  1
  C  1401  1  0.88727600  0.33381600  0.72286200  1
  C  1402  1  0.90528100  0.31517800  0.70341800  1
  C  1403  1  0.93794300  0.32318400  0.69710100  1
  C  1404  1  0.95153400  0.35127600  0.70980500  1
  C  1405  1  0.93333100  0.36985000  0.72918100  1
  C  1426  1  0.93860700  0.93874900  0.31906300  1
  C  1427  1  0.90627600  0.94752800  0.31223800  1
  C  1428  1  0.88785500  0.92873100  0.29317500  1
  C  1429  1  0.90109400  0.90086700  0.27937900  1
  C  1430  1  0.93273400  0.89098400  0.28832000  1
  C  1431  1  0.95130400  0.90965100  0.30735600  1
  C  1432  1  0.88038400  0.88071900  0.25890100  1
  C  1433  1  0.85981800  0.86083200  0.27966000  1
  C  1434  1  0.87324700  0.83324900  0.29374000  1
  C  1435  1  0.85499300  0.81465000  0.31305100  1
  C  1436  1  0.82262000  0.82334100  0.31979300  1
  C  1437  1  0.80970400  0.85216800  0.30778000  1
  C  1438  1  0.82814100  0.87067600  0.28853100  1
  C  1439  1  0.86066800  0.90158100  0.23822300  1
  C  1440  1  0.90000900  0.85954200  0.23840500  1
  C  1441  1  0.88903800  0.82830500  0.22926600  1
  C  1442  1  0.90694800  0.80931000  0.20999500  1
  C  1443  1  0.93639300  0.82102900  0.19845200  1
  C  1444  1  0.94638700  0.85305500  0.20546400  1
  C  1445  1  0.92820100  0.87198600  0.22458200  1
  C  1446  1  0.87173700  0.93259000  0.22862100  1
  C  1447  1  0.85396400  0.95118900  0.20897800  1
  C  1448  1  0.82452200  0.93931600  0.19754400  1
  C  1449  1  0.81433500  0.90753200  0.20512600  1
  C  1450  1  0.83242800  0.88896000  0.22458200  1
  C  1471  1  0.32235100  0.43847500  0.19759800  1
  C  1472  1  0.35482200  0.44706100  0.20410000  1
  C  1473  1  0.37323500  0.42837400  0.22323700  1
  C  1474  1  0.35986900  0.40080300  0.23738000  1
  C  1475  1  0.32805000  0.39109300  0.22878300  1
  C  1476  1  0.30947600  0.40967500  0.20969000  1
  C  1477  1  0.38059400  0.38083300  0.25796600  1
  C  1478  1  0.40114300  0.36076100  0.23731300  1
  C  1479  1  0.38756700  0.33320700  0.22329600  1
  C  1480  1  0.40566400  0.31456400  0.20390700  1
  C  1481  1  0.43803500  0.32313600  0.19703300  1
  C  1482  1  0.45116900  0.35182600  0.20910000  1
  C  1483  1  0.43288300  0.37039800  0.22842300  1
  C  1484  1  0.40034600  0.40192300  0.27843700  1
  C  1485  1  0.36099800  0.35989800  0.27867700  1
  C  1486  1  0.37195700  0.32871800  0.28795700  1
  C  1487  1  0.35427700  0.31006300  0.30762500  1
  C  1488  1  0.32502200  0.32202100  0.31934900  1
  C  1489  1  0.31496000  0.35393500  0.31206800  1
  C  1490  1  0.33297000  0.37256800  0.29260300  1
  C  1491  1  0.38949700  0.43317400  0.28764400  1
  C  1492  1  0.40742900  0.45199500  0.30701800  1
  C  1493  1  0.43678600  0.44009500  0.31858800  1
  C  1494  1  0.44669200  0.40807700  0.31145800  1
  C  1495  1  0.42847700  0.38931200  0.29224000  1
  C  1516  1  0.43778300  0.82237100  0.69849200  1
  C  1517  1  0.40597000  0.81292200  0.70637300  1
  C  1518  1  0.38771800  0.83178300  0.72550900  1
  C  1519  1  0.40066900  0.86040700  0.73831800  1
  C  1520  1  0.43163200  0.87093300  0.72824100  1
  C  1521  1  0.45005000  0.85218800  0.70915300  1
  C  1522  1  0.38027600  0.88077500  0.75885400  1
  C  1523  1  0.35994200  0.90094300  0.73813700  1
  C  1524  1  0.37303500  0.92933000  0.72504500  1
  C  1525  1  0.35489300  0.94800400  0.70570900  1
  C  1526  1  0.32304000  0.93859500  0.69792700  1
  C  1527  1  0.31060800  0.90900100  0.70889100  1
  C  1528  1  0.32893800  0.89041700  0.72816400  1
  C  1529  1  0.36038000  0.86014300  0.77955600  1
  C  1530  1  0.40018700  0.90163400  0.77937300  1
  C  1531  1  0.38862000  0.93216200  0.78965600  1
  C  1532  1  0.40667900  0.95101800  0.80892700  1
  C  1533  1  0.43686900  0.93979800  0.81936700  1
  C  1534  1  0.44751800  0.90833600  0.81124500  1
  C  1535  1  0.42920000  0.88954400  0.79212100  1
  C  1536  1  0.37210300  0.82984000  0.79019200  1
  C  1537  1  0.35425000  0.81130400  0.80982000  1
  C  1538  1  0.32408900  0.82261000  0.82025400  1
  C  1539  1  0.31318400  0.85380100  0.81165400  1
  C  1540  1  0.33133000  0.87231400  0.79219700  1
  C  1561  1  0.01862100  0.02902300  0.40187700  1
  C  1563  1  0.03149700  0.99052300  0.36512200  1
  C  1564  1  0.99767400  0.98369400  0.36127000  1
  C  1566  1  0.98514300  0.02221800  0.39785600  1
  C  1568  1  0.05815000  0.97529400  0.34866900  1
  C  1572  1  0.02951900  0.05137600  0.42164400  1
  C  1574  1  0.98568600  0.96155600  0.34161100  1
  C  1576  1  0.74544400  0.23319300  0.90342900  1
  C  1578  1  0.73240200  0.27111000  0.86626600  1
  C  1579  1  0.76612500  0.27866700  0.86288500  1
  C  1581  1  0.77883600  0.24069000  0.89979600  1
  C  1583  1  0.70583600  0.28564000  0.84925900  1
  C  1587  1  0.73479000  0.21108100  0.92350300  1
  C  1589  1  0.77802700  0.30127900  0.84363900  1
  C  1591  1  0.24307300  0.52807900  0.11392700  1
  C  1593  1  0.22986100  0.49117700  0.15179000  1
  C  1594  1  0.26353900  0.48343200  0.15524900  1
  C  1596  1  0.27640900  0.52035600  0.11756200  1
  C  1598  1  0.20315500  0.47725600  0.16901800  1
  C  1602  1  0.23246800  0.55002400  0.09370830  1
  C  1604  1  0.27533100  0.46152700  0.17517100  1
  C  1606  1  0.51746300  0.73204600  0.61553100  1
  C  1608  1  0.53046700  0.77099100  0.65190000  1
  C  1609  1  0.49664200  0.77764600  0.65595400  1
  C  1611  1  0.48398500  0.73865700  0.61976800  1
  C  1613  1  0.55718000  0.78654700  0.66805400  1
  C  1617  1  0.52830400  0.70960200  0.59581900  1
  C  1619  1  0.48471100  0.79995400  0.67548700  1
  C  1621  1  0.26699200  0.77919500  0.86497000  1
  C  1623  1  0.27974000  0.74053100  0.90163000  1
  C  1624  1  0.24591700  0.73358000  0.90526600  1
  C  1626  1  0.23350600  0.77229600  0.86882200  1
  C  1628  1  0.30627900  0.72529500  0.91821100  1
  C  1632  1  0.27790200  0.80153800  0.84519700  1
  C  1634  1  0.23384000  0.71109100  0.92456400  1
  C  1636  1  0.76554100  0.48319800  0.65368200  1
  C  1638  1  0.77829600  0.52004600  0.61566400  1
  C  1639  1  0.74465900  0.52827000  0.61290400  1
  C  1641  1  0.73221700  0.49133900  0.65064500  1
  C  1643  1  0.80463700  0.53363000  0.59783900  1
  C  1647  1  0.77630100  0.46129200  0.67387100  1
  C  1649  1  0.73269600  0.55081100  0.59364600  1
  C  1651  1  0.49521200  0.27811000  0.15339100  1
  C  1653  1  0.48236700  0.24027400  0.11611000  1
  C  1654  1  0.51610100  0.23270000  0.11285100  1
  C  1656  1  0.52862200  0.27059000  0.14988400  1
  C  1658  1  0.45587600  0.22580000  0.09897930  1
  C  1662  1  0.48445200  0.30022100  0.17342900  1
  C  1664  1  0.52809400  0.21013100  0.09359730  1
  C  1666  1  0.01670000  0.52901000  0.90255300  1
  C  1668  1  0.02949500  0.48969100  0.86642000  1
  C  1669  1  0.99565800  0.48292900  0.86264300  1
  C  1671  1  0.98319800  0.52230700  0.89853700  1
  C  1673  1  0.05603600  0.47401300  0.85015200  1
  C  1677  1  0.02757400  0.55149800  0.92222700  1
  C  1679  1  0.98359100  0.46013600  0.84362000  1
  C  1681  1  0.74399400  0.73425500  0.40430700  1
  C  1683  1  0.73060600  0.76993200  0.36562700  1
  C  1684  1  0.76414300  0.77844500  0.36250400  1
  C  1686  1  0.77719300  0.74273300  0.40099600  1
  C  1688  1  0.70391000  0.78278300  0.34778500  1
  C  1692  1  0.73355100  0.71260100  0.42482500  1
  C  1694  1  0.77576900  0.80023600  0.34241700  1
  C  1696  1  0.24467300  0.02773400  0.61327800  1
  C  1698  1  0.23115100  0.99141200  0.65148200  1
  C  1699  1  0.26472400  0.98316100  0.65481900  1
  C  1701  1  0.27790900  0.01951800  0.61681300  1
  C  1703  1  0.20437200  0.97808800  0.66897000  1
  C  1707  1  0.23429200  0.04953800  0.59285200  1
  C  1709  1  0.27630600  0.96115600  0.67475200  1
  C  1711  1  0.26795000  0.27889200  0.36419800  1
  C  1713  1  0.28040000  0.24082300  0.40138200  1
  C  1714  1  0.24663100  0.23323500  0.40432600  1
  C  1716  1  0.23449900  0.27140600  0.36741100  1
  C  1718  1  0.30669000  0.22631600  0.41871900  1
  C  1722  1  0.27897500  0.30126900  0.34451500  1
  C  1724  1  0.23447100  0.21054900  0.42338300  1
  C  1726  1  0.76756900  0.98237900  0.15244800  1
  C  1728  1  0.78025100  0.02184800  0.11640700  1
  C  1729  1  0.74638900  0.02845200  0.11258000  1
  C  1731  1  0.73404500  0.98891900  0.14838100  1
  C  1733  1  0.80676300  0.03767600  0.10021200  1
  C  1737  1  0.77852800  0.95983300  0.17202900  1
  C  1739  1  0.73426000  0.05120400  0.09354030  1
  C  1741  1  0.51634100  0.02815600  0.90376300  1
  C  1743  1  0.52916200  0.99171300  0.86547400  1
  C  1744  1  0.49554700  0.98337900  0.86269200  1
  C  1746  1  0.48304600  0.01989500  0.90073500  1
  C  1748  1  0.55556500  0.97840000  0.84756100  1
  C  1752  1  0.52708000  0.04999000  0.92402000  1
  C  1754  1  0.48362800  0.96109000  0.84317300  1
  C  1756  1  0.01580200  0.73270500  0.11400900  1
  C  1758  1  0.02846400  0.76880800  0.15256900  1
  C  1759  1  0.99491900  0.77755800  0.15496700  1
  C  1761  1  0.98256300  0.74134000  0.11668600  1
  C  1763  1  0.05471000  0.78167100  0.17088800  1
  C  1767  1  0.02660100  0.71082200  0.09382230  1
  C  1769  1  0.98299500  0.80000100  0.17433700  1
  C  1771  1  0.99452600  0.27801200  0.65312700  1
  C  1773  1  0.98101100  0.24240700  0.61443200  1
  C  1774  1  0.01454500  0.23396200  0.61117700  1
  C  1776  1  0.02772400  0.26959500  0.64969300  1
  C  1778  1  0.95423900  0.22954100  0.59667900  1
  C  1782  1  0.98413900  0.29960700  0.67370100  1
  C  1784  1  0.02611700  0.21226500  0.59099800  1
  C  1786  1  0.51526800  0.52800400  0.40392000  1
  C  1788  1  0.52852700  0.49118000  0.36601100  1
  C  1789  1  0.49491700  0.48303600  0.36285500  1
  C  1791  1  0.48198100  0.51992600  0.40051200  1
  C  1793  1  0.55513200  0.47755200  0.34850300  1
  C  1797  1  0.52578900  0.54986800  0.42423800  1
  C  1799  1  0.48319300  0.46062300  0.34336700  1
  C  1801  1  0.07547900  0.07199600  0.63618200  1
  C  1802  1  0.06585600  0.10420500  0.64292100  1
  C  1803  1  0.08393500  0.12290500  0.66229700  1
  C  1804  1  0.11155400  0.11002300  0.67668400  1
  C  1805  1  0.12208100  0.07847600  0.66796300  1
  C  1806  1  0.10436400  0.05976800  0.64836300  1
  C  1807  1  0.13109900  0.13101900  0.69739700  1
  C  1808  1  0.15092400  0.15212900  0.67697800  1
  C  1809  1  0.17867800  0.13926000  0.66279500  1
  C  1810  1  0.19709900  0.15806200  0.64374700  1
  C  1811  1  0.18780500  0.19043400  0.63719700  1
  C  1812  1  0.15878000  0.20265400  0.64913800  1
  C  1813  1  0.14063400  0.18378700  0.66833800  1
  C  1814  1  0.11033400  0.15101300  0.71794900  1
  C  1815  1  0.15157200  0.11091900  0.71810300  1
  C  1816  1  0.18366800  0.11994500  0.72651100  1
  C  1817  1  0.20178800  0.10129400  0.74589500  1
  C  1818  1  0.18816400  0.07313200  0.75846300  1
  C  1819  1  0.15552300  0.06516700  0.75201700  1
  C  1820  1  0.13759800  0.08387300  0.73256000  1
  C  1821  1  0.07815400  0.14185800  0.72598800  1
  C  1822  1  0.05966500  0.16046100  0.74512700  1
  C  1823  1  0.07295600  0.18872600  0.75780200  1
  C  1824  1  0.10569300  0.19676000  0.75179900  1
  C  1825  1  0.12401700  0.17805700  0.73261300  1
  C  1846  1  0.68846400  0.18827400  0.13645500  1
  C  1847  1  0.70169800  0.15972200  0.14868200  1
  C  1848  1  0.68345400  0.14119400  0.16806000  1
  C  1849  1  0.65162600  0.15071600  0.17681300  1
  C  1850  1  0.63796600  0.17812500  0.16264600  1
  C  1851  1  0.65604000  0.19674800  0.14322900  1
  C  1852  1  0.63107700  0.13063100  0.19746200  1
  C  1853  1  0.61047100  0.11058000  0.17683000  1
  C  1854  1  0.57860900  0.12010500  0.16817600  1
  C  1855  1  0.56029900  0.10160300  0.14882500  1
  C  1856  1  0.57352100  0.07309900  0.13651400  1
  C  1857  1  0.60597900  0.06463500  0.14316500  1
  C  1858  1  0.62409700  0.08321100  0.16258300  1
  C  1859  1  0.65084900  0.10963500  0.21799800  1
  C  1860  1  0.61136600  0.15160000  0.21806100  1
  C  1861  1  0.58338900  0.13883900  0.23199600  1
  C  1862  1  0.56505000  0.15759200  0.25114100  1
  C  1863  1  0.57471800  0.18973100  0.25812600  1
  C  1864  1  0.60398700  0.20175900  0.24648000  1
  C  1865  1  0.62201900  0.18296500  0.22714600  1
  C  1866  1  0.67885700  0.12237100  0.23189500  1
  C  1867  1  0.69724300  0.10358900  0.25098500  1
  C  1868  1  0.68762800  0.07141700  0.25792700  1
  C  1869  1  0.65834700  0.05939700  0.24629300  1
  C  1870  1  0.64024700  0.07823200  0.22703200  1
  C  1891  1  0.18630900  0.57263600  0.25883700  1
  C  1892  1  0.19880600  0.60239600  0.24829800  1
  C  1893  1  0.18074000  0.62106900  0.22890300  1
  C  1894  1  0.15001800  0.61045200  0.21833400  1
  C  1895  1  0.13691800  0.58174000  0.23088200  1
  C  1896  1  0.15474900  0.56301900  0.25039500  1
  C  1897  1  0.12985600  0.63094000  0.19771600  1
  C  1898  1  0.10952200  0.65118100  0.21838100  1
  C  1899  1  0.07870900  0.64044900  0.22865700  1
  C  1900  1  0.06051800  0.65886000  0.24815300  1
  C  1901  1  0.07295000  0.68846700  0.25906200  1
  C  1902  1  0.10459600  0.69815200  0.25092200  1
  C  1903  1  0.12255900  0.67968500  0.23132200  1
  C  1904  1  0.14995800  0.65172400  0.17728800  1
  C  1905  1  0.10998000  0.61038800  0.17694700  1
  C  1906  1  0.08068000  0.62233000  0.16458600  1
  C  1907  1  0.06255400  0.60376000  0.14514900  1
  C  1908  1  0.07372800  0.57276000  0.13628100  1
  C  1909  1  0.10414400  0.56175000  0.14640200  1
  C  1910  1  0.12197000  0.58033200  0.16601500  1
  C  1911  1  0.17931000  0.63980900  0.16500900  1
  C  1912  1  0.19775900  0.65859400  0.14597100  1
  C  1913  1  0.18695100  0.68986900  0.13747200  1
  C  1914  1  0.15647200  0.70088200  0.14746100  1
  C  1915  1  0.13826200  0.68202700  0.16662900  1
  C  1936  1  0.57412700  0.68943700  0.75907800  1
  C  1937  1  0.56477600  0.65710300  0.75250600  1
  C  1938  1  0.58285400  0.63851900  0.73304600  1
  C  1939  1  0.61021700  0.65161100  0.71843900  1
  C  1940  1  0.62046500  0.68332700  0.72696100  1
  C  1941  1  0.60274100  0.70192800  0.74662900  1
  C  1942  1  0.62982300  0.63063900  0.69774700  1
  C  1943  1  0.64952600  0.60940300  0.71816500  1
  C  1944  1  0.67691100  0.62237600  0.73281300  1
  C  1945  1  0.69523200  0.60351600  0.75188600  1
  C  1946  1  0.68617900  0.57096400  0.75799100  1
  C  1947  1  0.65751600  0.55856800  0.74555300  1
  C  1948  1  0.63949100  0.57748700  0.72631000  1
  C  1949  1  0.60913000  0.61074800  0.67705800  1
  C  1950  1  0.65046200  0.65079000  0.67719400  1
  C  1951  1  0.68281400  0.64209400  0.66925800  1
  C  1952  1  0.70105300  0.66081800  0.65001100  1
  C  1953  1  0.68732300  0.68872600  0.63712000  1
  C  1954  1  0.65449300  0.69637300  0.64311700  1
  C  1955  1  0.63644900  0.67760100  0.66244400  1
  C  1956  1  0.57673700  0.61951200  0.66931800  1
  C  1957  1  0.55843100  0.60100600  0.64996700  1
  C  1958  1  0.57211800  0.57324900  0.63679200  1
  C  1959  1  0.60498200  0.56556300  0.64260800  1
  C  1960  1  0.62311200  0.58415000  0.66200500  1
  C  1981  1  0.82450700  0.32152200  0.00791189  1
  C  1982  1  0.85341900  0.30928300  0.99578900  1
  C  1983  1  0.87138300  0.32812400  0.97644700  1
  C  1984  1  0.86102500  0.35978300  0.96786600  1
  C  1985  1  0.83341800  0.37268000  0.98224700  1
  C  1986  1  0.81515400  0.35388800  0.00141189  1
  C  1987  1  0.88062300  0.38084300  0.94725200  1
  C  1988  1  0.90036600  0.40193200  0.96774400  1
  C  1989  1  0.89009100  0.43361600  0.97632900  1
  C  1990  1  0.90816000  0.45245500  0.99560600  1
  C  1991  1  0.93709400  0.44018800  0.00767889  1
  C  1992  1  0.94636900  0.40779800  0.00116689  1
  C  1993  1  0.92801500  0.38902100  0.98205300  1
  C  1994  1  0.90119200  0.36080000  0.92658200  1
  C  1995  1  0.85987600  0.40081600  0.92666200  1
  C  1996  1  0.87362900  0.42780500  0.91197000  1
  C  1997  1  0.85544800  0.44634700  0.89257300  1
  C  1998  1  0.82278100  0.43821800  0.88637600  1
  C  1999  1  0.80938300  0.41007300  0.89915300  1
  C  2000  1  0.82774000  0.39162100  0.91850200  1
  C  2001  1  0.88727600  0.33381600  0.91199800  1
  C  2002  1  0.90528100  0.31517800  0.89255400  1
  C  2003  1  0.93794300  0.32318400  0.88623700  1
  C  2004  1  0.95153400  0.35127600  0.89894100  1
  C  2005  1  0.93333100  0.36985000  0.91831700  1
  C  2026  1  0.93860700  0.93874900  0.50819900  1
  C  2027  1  0.90627600  0.94752800  0.50137400  1
  C  2028  1  0.88785500  0.92873100  0.48231100  1
  C  2029  1  0.90109400  0.90086700  0.46851500  1
  C  2030  1  0.93273400  0.89098400  0.47745600  1
  C  2031  1  0.95130400  0.90965100  0.49649200  1
  C  2032  1  0.88038400  0.88071900  0.44803700  1
  C  2033  1  0.85981800  0.86083200  0.46879600  1
  C  2034  1  0.87324700  0.83324900  0.48287600  1
  C  2035  1  0.85499300  0.81465000  0.50218700  1
  C  2036  1  0.82262000  0.82334100  0.50892900  1
  C  2037  1  0.80970400  0.85216800  0.49691600  1
  C  2038  1  0.82814100  0.87067600  0.47766700  1
  C  2039  1  0.86066800  0.90158100  0.42735900  1
  C  2040  1  0.90000900  0.85954200  0.42754100  1
  C  2041  1  0.88903800  0.82830500  0.41840200  1
  C  2042  1  0.90694800  0.80931000  0.39913100  1
  C  2043  1  0.93639300  0.82102900  0.38758800  1
  C  2044  1  0.94638700  0.85305500  0.39460000  1
  C  2045  1  0.92820100  0.87198600  0.41371800  1
  C  2046  1  0.87173700  0.93259000  0.41775700  1
  C  2047  1  0.85396400  0.95118900  0.39811400  1
  C  2048  1  0.82452200  0.93931600  0.38668000  1
  C  2049  1  0.81433500  0.90753200  0.39426200  1
  C  2050  1  0.83242800  0.88896000  0.41371800  1
  C  2071  1  0.32235100  0.43847500  0.38673400  1
  C  2072  1  0.35482200  0.44706100  0.39323600  1
  C  2073  1  0.37323500  0.42837400  0.41237300  1
  C  2074  1  0.35986900  0.40080300  0.42651600  1
  C  2075  1  0.32805000  0.39109300  0.41791900  1
  C  2076  1  0.30947600  0.40967500  0.39882600  1
  C  2077  1  0.38059400  0.38083300  0.44710200  1
  C  2078  1  0.40114300  0.36076100  0.42644900  1
  C  2079  1  0.38756700  0.33320700  0.41243200  1
  C  2080  1  0.40566400  0.31456400  0.39304300  1
  C  2081  1  0.43803500  0.32313600  0.38616900  1
  C  2082  1  0.45116900  0.35182600  0.39823600  1
  C  2083  1  0.43288300  0.37039800  0.41755900  1
  C  2084  1  0.40034600  0.40192300  0.46757300  1
  C  2085  1  0.36099800  0.35989800  0.46781300  1
  C  2086  1  0.37195700  0.32871800  0.47709300  1
  C  2087  1  0.35427700  0.31006300  0.49676100  1
  C  2088  1  0.32502200  0.32202100  0.50848500  1
  C  2089  1  0.31496000  0.35393500  0.50120400  1
  C  2090  1  0.33297000  0.37256800  0.48173900  1
  C  2091  1  0.38949700  0.43317400  0.47678000  1
  C  2092  1  0.40742900  0.45199500  0.49615400  1
  C  2093  1  0.43678600  0.44009500  0.50772400  1
  C  2094  1  0.44669200  0.40807700  0.50059400  1
  C  2095  1  0.42847700  0.38931200  0.48137600  1
  C  2116  1  0.43778300  0.82237100  0.88762800  1
  C  2117  1  0.40597000  0.81292200  0.89550900  1
  C  2118  1  0.38771800  0.83178300  0.91464500  1
  C  2119  1  0.40066900  0.86040700  0.92745400  1
  C  2120  1  0.43163200  0.87093300  0.91737700  1
  C  2121  1  0.45005000  0.85218800  0.89828900  1
  C  2122  1  0.38027600  0.88077500  0.94799000  1
  C  2123  1  0.35994200  0.90094300  0.92727300  1
  C  2124  1  0.37303500  0.92933000  0.91418100  1
  C  2125  1  0.35489300  0.94800400  0.89484500  1
  C  2126  1  0.32304000  0.93859500  0.88706300  1
  C  2127  1  0.31060800  0.90900100  0.89802700  1
  C  2128  1  0.32893800  0.89041700  0.91730000  1
  C  2129  1  0.36038000  0.86014300  0.96869200  1
  C  2130  1  0.40018700  0.90163400  0.96850900  1
  C  2131  1  0.38862000  0.93216200  0.97879200  1
  C  2132  1  0.40667900  0.95101800  0.99806300  1
  C  2133  1  0.43686900  0.93979800  0.00850289  1
  C  2134  1  0.44751800  0.90833600  0.00038089  1
  C  2135  1  0.42920000  0.88954400  0.98125700  1
  C  2136  1  0.37210300  0.82984000  0.97932800  1
  C  2137  1  0.35425000  0.81130400  0.99895600  1
  C  2138  1  0.32408900  0.82261000  0.00938989  1
  C  2139  1  0.31318400  0.85380100  0.00078989  1
  C  2140  1  0.33133000  0.87231400  0.98133300  1
  C  2161  1  0.01862100  0.02902300  0.59101300  1
  C  2163  1  0.03149700  0.99052300  0.55425800  1
  C  2164  1  0.99767400  0.98369400  0.55040600  1
  C  2166  1  0.98514300  0.02221800  0.58699200  1
  C  2168  1  0.05815000  0.97529400  0.53780500  1
  C  2172  1  0.02951900  0.05137600  0.61078000  1
  C  2174  1  0.98568600  0.96155600  0.53074700  1
  C  2176  1  0.74544400  0.23319300  0.09256490  1
  C  2178  1  0.73240200  0.27111000  0.05540190  1
  C  2179  1  0.76612500  0.27866700  0.05202090  1
  C  2181  1  0.77883600  0.24069000  0.08893190  1
  C  2183  1  0.70583600  0.28564000  0.03839490  1
  C  2187  1  0.73479000  0.21108100  0.11263900  1
  C  2189  1  0.77802700  0.30127900  0.03277490  1
  C  2191  1  0.24307300  0.52807900  0.30306300  1
  C  2193  1  0.22986100  0.49117700  0.34092600  1
  C  2194  1  0.26353900  0.48343200  0.34438500  1
  C  2196  1  0.27640900  0.52035600  0.30669800  1
  C  2198  1  0.20315500  0.47725600  0.35815400  1
  C  2202  1  0.23246800  0.55002400  0.28284400  1
  C  2204  1  0.27533100  0.46152700  0.36430700  1
  C  2206  1  0.51746300  0.73204600  0.80466700  1
  C  2208  1  0.53046700  0.77099100  0.84103600  1
  C  2209  1  0.49664200  0.77764600  0.84509000  1
  C  2211  1  0.48398500  0.73865700  0.80890400  1
  C  2213  1  0.55718000  0.78654700  0.85719000  1
  C  2217  1  0.52830400  0.70960200  0.78495500  1
  C  2219  1  0.48471100  0.79995400  0.86462300  1
  C  2221  1  0.26699200  0.77919500  0.05410590  1
  C  2223  1  0.27974000  0.74053100  0.09076590  1
  C  2224  1  0.24591700  0.73358000  0.09440190  1
  C  2226  1  0.23350600  0.77229600  0.05795790  1
  C  2228  1  0.30627900  0.72529500  0.10734700  1
  C  2232  1  0.27790200  0.80153800  0.03433290  1
  C  2234  1  0.23384000  0.71109100  0.11370000  1
  C  2236  1  0.76554100  0.48319800  0.84281800  1
  C  2238  1  0.77829600  0.52004600  0.80480000  1
  C  2239  1  0.74465900  0.52827000  0.80204000  1
  C  2241  1  0.73221700  0.49133900  0.83978100  1
  C  2243  1  0.80463700  0.53363000  0.78697500  1
  C  2247  1  0.77630100  0.46129200  0.86300700  1
  C  2249  1  0.73269600  0.55081100  0.78278200  1
  C  2251  1  0.49521200  0.27811000  0.34252700  1
  C  2253  1  0.48236700  0.24027400  0.30524600  1
  C  2254  1  0.51610100  0.23270000  0.30198700  1
  C  2256  1  0.52862200  0.27059000  0.33902000  1
  C  2258  1  0.45587600  0.22580000  0.28811500  1
  C  2262  1  0.48445200  0.30022100  0.36256500  1
  C  2264  1  0.52809400  0.21013100  0.28273300  1
  C  2266  1  0.01670000  0.52901000  0.09168890  1
  C  2268  1  0.02949500  0.48969100  0.05555590  1
  C  2269  1  0.99565800  0.48292900  0.05177890  1
  C  2271  1  0.98319800  0.52230700  0.08767290  1
  C  2273  1  0.05603600  0.47401300  0.03928790  1
  C  2277  1  0.02757400  0.55149800  0.11136300  1
  C  2279  1  0.98359100  0.46013600  0.03275590  1
  C  2281  1  0.74399400  0.73425500  0.59344300  1
  C  2283  1  0.73060600  0.76993200  0.55476300  1
  C  2284  1  0.76414300  0.77844500  0.55164000  1
  C  2286  1  0.77719300  0.74273300  0.59013200  1
  C  2288  1  0.70391000  0.78278300  0.53692100  1
  C  2292  1  0.73355100  0.71260100  0.61396100  1
  C  2294  1  0.77576900  0.80023600  0.53155300  1
  C  2296  1  0.24467300  0.02773400  0.80241400  1
  C  2298  1  0.23115100  0.99141200  0.84061800  1
  C  2299  1  0.26472400  0.98316100  0.84395500  1
  C  2301  1  0.27790900  0.01951800  0.80594900  1
  C  2303  1  0.20437200  0.97808800  0.85810600  1
  C  2307  1  0.23429200  0.04953800  0.78198800  1
  C  2309  1  0.27630600  0.96115600  0.86388800  1
  C  2311  1  0.26795000  0.27889200  0.55333400  1
  C  2313  1  0.28040000  0.24082300  0.59051800  1
  C  2314  1  0.24663100  0.23323500  0.59346200  1
  C  2316  1  0.23449900  0.27140600  0.55654700  1
  C  2318  1  0.30669000  0.22631600  0.60785500  1
  C  2322  1  0.27897500  0.30126900  0.53365100  1
  C  2324  1  0.23447100  0.21054900  0.61251900  1
  C  2326  1  0.76756900  0.98237900  0.34158400  1
  C  2328  1  0.78025100  0.02184800  0.30554300  1
  C  2329  1  0.74638900  0.02845200  0.30171600  1
  C  2331  1  0.73404500  0.98891900  0.33751700  1
  C  2333  1  0.80676300  0.03767600  0.28934800  1
  C  2337  1  0.77852800  0.95983300  0.36116500  1
  C  2339  1  0.73426000  0.05120400  0.28267600  1
  C  2341  1  0.51634100  0.02815600  0.09289890  1
  C  2343  1  0.52916200  0.99171300  0.05460990  1
  C  2344  1  0.49554700  0.98337900  0.05182790  1
  C  2346  1  0.48304600  0.01989500  0.08987090  1
  C  2348  1  0.55556500  0.97840000  0.03669690  1
  C  2352  1  0.52708000  0.04999000  0.11315600  1
  C  2354  1  0.48362800  0.96109000  0.03230890  1
  C  2356  1  0.01580200  0.73270500  0.30314500  1
  C  2358  1  0.02846400  0.76880800  0.34170500  1
  C  2359  1  0.99491900  0.77755800  0.34410300  1
  C  2361  1  0.98256300  0.74134000  0.30582200  1
  C  2363  1  0.05471000  0.78167100  0.36002400  1
  C  2367  1  0.02660100  0.71082200  0.28295800  1
  C  2369  1  0.98299500  0.80000100  0.36347300  1
  C  2371  1  0.99452600  0.27801200  0.84226300  1
  C  2373  1  0.98101100  0.24240700  0.80356800  1
  C  2374  1  0.01454500  0.23396200  0.80031300  1
  C  2376  1  0.02772400  0.26959500  0.83882900  1
  C  2378  1  0.95423900  0.22954100  0.78581500  1
  C  2382  1  0.98413900  0.29960700  0.86283700  1
  C  2384  1  0.02611700  0.21226500  0.78013400  1
  C  2386  1  0.51526800  0.52800400  0.59305600  1
  C  2388  1  0.52852700  0.49118000  0.55514700  1
  C  2389  1  0.49491700  0.48303600  0.55199100  1
  C  2391  1  0.48198100  0.51992600  0.58964800  1
  C  2393  1  0.55513200  0.47755200  0.53763900  1
  C  2397  1  0.52578900  0.54986800  0.61337400  1
  C  2399  1  0.48319300  0.46062300  0.53250300  1
  C  2401  1  0.07547900  0.07199600  0.82531800  1
  C  2402  1  0.06585600  0.10420500  0.83205700  1
  C  2403  1  0.08393500  0.12290500  0.85143300  1
  C  2404  1  0.11155400  0.11002300  0.86582000  1
  C  2405  1  0.12208100  0.07847600  0.85709900  1
  C  2406  1  0.10436400  0.05976800  0.83749900  1
  C  2407  1  0.13109900  0.13101900  0.88653300  1
  C  2408  1  0.15092400  0.15212900  0.86611400  1
  C  2409  1  0.17867800  0.13926000  0.85193100  1
  C  2410  1  0.19709900  0.15806200  0.83288300  1
  C  2411  1  0.18780500  0.19043400  0.82633300  1
  C  2412  1  0.15878000  0.20265400  0.83827400  1
  C  2413  1  0.14063400  0.18378700  0.85747400  1
  C  2414  1  0.11033400  0.15101300  0.90708500  1
  C  2415  1  0.15157200  0.11091900  0.90723900  1
  C  2416  1  0.18366800  0.11994500  0.91564700  1
  C  2417  1  0.20178800  0.10129400  0.93503100  1
  C  2418  1  0.18816400  0.07313200  0.94759900  1
  C  2419  1  0.15552300  0.06516700  0.94115300  1
  C  2420  1  0.13759800  0.08387300  0.92169600  1
  C  2421  1  0.07815400  0.14185800  0.91512400  1
  C  2422  1  0.05966500  0.16046100  0.93426300  1
  C  2423  1  0.07295600  0.18872600  0.94693800  1
  C  2424  1  0.10569300  0.19676000  0.94093500  1
  C  2425  1  0.12401700  0.17805700  0.92174900  1
  C  2446  1  0.68846400  0.18827400  0.32559100  1
  C  2447  1  0.70169800  0.15972200  0.33781800  1
  C  2448  1  0.68345400  0.14119400  0.35719600  1
  C  2449  1  0.65162600  0.15071600  0.36594900  1
  C  2450  1  0.63796600  0.17812500  0.35178200  1
  C  2451  1  0.65604000  0.19674800  0.33236500  1
  C  2452  1  0.63107700  0.13063100  0.38659800  1
  C  2453  1  0.61047100  0.11058000  0.36596600  1
  C  2454  1  0.57860900  0.12010500  0.35731200  1
  C  2455  1  0.56029900  0.10160300  0.33796100  1
  C  2456  1  0.57352100  0.07309900  0.32565000  1
  C  2457  1  0.60597900  0.06463500  0.33230100  1
  C  2458  1  0.62409700  0.08321100  0.35171900  1
  C  2459  1  0.65084900  0.10963500  0.40713400  1
  C  2460  1  0.61136600  0.15160000  0.40719700  1
  C  2461  1  0.58338900  0.13883900  0.42113200  1
  C  2462  1  0.56505000  0.15759200  0.44027700  1
  C  2463  1  0.57471800  0.18973100  0.44726200  1
  C  2464  1  0.60398700  0.20175900  0.43561600  1
  C  2465  1  0.62201900  0.18296500  0.41628200  1
  C  2466  1  0.67885700  0.12237100  0.42103100  1
  C  2467  1  0.69724300  0.10358900  0.44012100  1
  C  2468  1  0.68762800  0.07141700  0.44706300  1
  C  2469  1  0.65834700  0.05939700  0.43542900  1
  C  2470  1  0.64024700  0.07823200  0.41616800  1
  C  2491  1  0.18630900  0.57263600  0.44797300  1
  C  2492  1  0.19880600  0.60239600  0.43743400  1
  C  2493  1  0.18074000  0.62106900  0.41803900  1
  C  2494  1  0.15001800  0.61045200  0.40747000  1
  C  2495  1  0.13691800  0.58174000  0.42001800  1
  C  2496  1  0.15474900  0.56301900  0.43953100  1
  C  2497  1  0.12985600  0.63094000  0.38685200  1
  C  2498  1  0.10952200  0.65118100  0.40751700  1
  C  2499  1  0.07870900  0.64044900  0.41779300  1
  C  2500  1  0.06051800  0.65886000  0.43728900  1
  C  2501  1  0.07295000  0.68846700  0.44819800  1
  C  2502  1  0.10459600  0.69815200  0.44005800  1
  C  2503  1  0.12255900  0.67968500  0.42045800  1
  C  2504  1  0.14995800  0.65172400  0.36642400  1
  C  2505  1  0.10998000  0.61038800  0.36608300  1
  C  2506  1  0.08068000  0.62233000  0.35372200  1
  C  2507  1  0.06255400  0.60376000  0.33428500  1
  C  2508  1  0.07372800  0.57276000  0.32541700  1
  C  2509  1  0.10414400  0.56175000  0.33553800  1
  C  2510  1  0.12197000  0.58033200  0.35515100  1
  C  2511  1  0.17931000  0.63980900  0.35414500  1
  C  2512  1  0.19775900  0.65859400  0.33510700  1
  C  2513  1  0.18695100  0.68986900  0.32660800  1
  C  2514  1  0.15647200  0.70088200  0.33659700  1
  C  2515  1  0.13826200  0.68202700  0.35576500  1
  C  2536  1  0.57412700  0.68943700  0.94821400  1
  C  2537  1  0.56477600  0.65710300  0.94164200  1
  C  2538  1  0.58285400  0.63851900  0.92218200  1
  C  2539  1  0.61021700  0.65161100  0.90757500  1
  C  2540  1  0.62046500  0.68332700  0.91609700  1
  C  2541  1  0.60274100  0.70192800  0.93576500  1
  C  2542  1  0.62982300  0.63063900  0.88688300  1
  C  2543  1  0.64952600  0.60940300  0.90730100  1
  C  2544  1  0.67691100  0.62237600  0.92194900  1
  C  2545  1  0.69523200  0.60351600  0.94102200  1
  C  2546  1  0.68617900  0.57096400  0.94712700  1
  C  2547  1  0.65751600  0.55856800  0.93468900  1
  C  2548  1  0.63949100  0.57748700  0.91544600  1
  C  2549  1  0.60913000  0.61074800  0.86619400  1
  C  2550  1  0.65046200  0.65079000  0.86633000  1
  C  2551  1  0.68281400  0.64209400  0.85839400  1
  C  2552  1  0.70105300  0.66081800  0.83914700  1
  C  2553  1  0.68732300  0.68872600  0.82625600  1
  C  2554  1  0.65449300  0.69637300  0.83225300  1
  C  2555  1  0.63644900  0.67760100  0.85158000  1
  C  2556  1  0.57673700  0.61951200  0.85845400  1
  C  2557  1  0.55843100  0.60100600  0.83910300  1
  C  2558  1  0.57211800  0.57324900  0.82592800  1
  C  2559  1  0.60498200  0.56556300  0.83174400  1
  C  2560  1  0.62311200  0.58415000  0.85114100  1
  C  2581  1  0.82450700  0.32152200  0.19704800  1
  C  2582  1  0.85341900  0.30928300  0.18492500  1
  C  2583  1  0.87138300  0.32812400  0.16558300  1
  C  2584  1  0.86102500  0.35978300  0.15700200  1
  C  2585  1  0.83341800  0.37268000  0.17138300  1
  C  2586  1  0.81515400  0.35388800  0.19054800  1
  C  2587  1  0.88062300  0.38084300  0.13638800  1
  C  2588  1  0.90036600  0.40193200  0.15688000  1
  C  2589  1  0.89009100  0.43361600  0.16546500  1
  C  2590  1  0.90816000  0.45245500  0.18474200  1
  C  2591  1  0.93709400  0.44018800  0.19681500  1
  C  2592  1  0.94636900  0.40779800  0.19030300  1
  C  2593  1  0.92801500  0.38902100  0.17118900  1
  C  2594  1  0.90119200  0.36080000  0.11571800  1
  C  2595  1  0.85987600  0.40081600  0.11579800  1
  C  2596  1  0.87362900  0.42780500  0.10110600  1
  C  2597  1  0.85544800  0.44634700  0.08170850  1
  C  2598  1  0.82278100  0.43821800  0.07551150  1
  C  2599  1  0.80938300  0.41007300  0.08828850  1
  C  2600  1  0.82774000  0.39162100  0.10763800  1
  C  2601  1  0.88727600  0.33381600  0.10113400  1
  C  2602  1  0.90528100  0.31517800  0.08168950  1
  C  2603  1  0.93794300  0.32318400  0.07537250  1
  C  2604  1  0.95153400  0.35127600  0.08807650  1
  C  2605  1  0.93333100  0.36985000  0.10745300  1
  C  2626  1  0.93860700  0.93874900  0.69733500  1
  C  2627  1  0.90627600  0.94752800  0.69051000  1
  C  2628  1  0.88785500  0.92873100  0.67144700  1
  C  2629  1  0.90109400  0.90086700  0.65765100  1
  C  2630  1  0.93273400  0.89098400  0.66659200  1
  C  2631  1  0.95130400  0.90965100  0.68562800  1
  C  2632  1  0.88038400  0.88071900  0.63717300  1
  C  2633  1  0.85981800  0.86083200  0.65793200  1
  C  2634  1  0.87324700  0.83324900  0.67201200  1
  C  2635  1  0.85499300  0.81465000  0.69132300  1
  C  2636  1  0.82262000  0.82334100  0.69806500  1
  C  2637  1  0.80970400  0.85216800  0.68605200  1
  C  2638  1  0.82814100  0.87067600  0.66680300  1
  C  2639  1  0.86066800  0.90158100  0.61649500  1
  C  2640  1  0.90000900  0.85954200  0.61667700  1
  C  2641  1  0.88903800  0.82830500  0.60753800  1
  C  2642  1  0.90694800  0.80931000  0.58826700  1
  C  2643  1  0.93639300  0.82102900  0.57672400  1
  C  2644  1  0.94638700  0.85305500  0.58373600  1
  C  2645  1  0.92820100  0.87198600  0.60285400  1
  C  2646  1  0.87173700  0.93259000  0.60689300  1
  C  2647  1  0.85396400  0.95118900  0.58725000  1
  C  2648  1  0.82452200  0.93931600  0.57581600  1
  C  2649  1  0.81433500  0.90753200  0.58339800  1
  C  2650  1  0.83242800  0.88896000  0.60285400  1
  C  2671  1  0.32235100  0.43847500  0.57587000  1
  C  2672  1  0.35482200  0.44706100  0.58237200  1
  C  2673  1  0.37323500  0.42837400  0.60150900  1
  C  2674  1  0.35986900  0.40080300  0.61565200  1
  C  2675  1  0.32805000  0.39109300  0.60705500  1
  C  2676  1  0.30947600  0.40967500  0.58796200  1
  C  2677  1  0.38059400  0.38083300  0.63623800  1
  C  2678  1  0.40114300  0.36076100  0.61558500  1
  C  2679  1  0.38756700  0.33320700  0.60156800  1
  C  2680  1  0.40566400  0.31456400  0.58217900  1
  C  2681  1  0.43803500  0.32313600  0.57530500  1
  C  2682  1  0.45116900  0.35182600  0.58737200  1
  C  2683  1  0.43288300  0.37039800  0.60669500  1
  C  2684  1  0.40034600  0.40192300  0.65670900  1
  C  2685  1  0.36099800  0.35989800  0.65694900  1
  C  2686  1  0.37195700  0.32871800  0.66622900  1
  C  2687  1  0.35427700  0.31006300  0.68589700  1
  C  2688  1  0.32502200  0.32202100  0.69762100  1
  C  2689  1  0.31496000  0.35393500  0.69034000  1
  C  2690  1  0.33297000  0.37256800  0.67087500  1
  C  2691  1  0.38949700  0.43317400  0.66591600  1
  C  2692  1  0.40742900  0.45199500  0.68529000  1
  C  2693  1  0.43678600  0.44009500  0.69686000  1
  C  2694  1  0.44669200  0.40807700  0.68973000  1
  C  2695  1  0.42847700  0.38931200  0.67051200  1
  C  2716  1  0.43778300  0.82237100  0.07676350  1
  C  2717  1  0.40597000  0.81292200  0.08464450  1
  C  2718  1  0.38771800  0.83178300  0.10378100  1
  C  2719  1  0.40066900  0.86040700  0.11659000  1
  C  2720  1  0.43163200  0.87093300  0.10651300  1
  C  2721  1  0.45005000  0.85218800  0.08742450  1
  C  2722  1  0.38027600  0.88077500  0.13712600  1
  C  2723  1  0.35994200  0.90094300  0.11640900  1
  C  2724  1  0.37303500  0.92933000  0.10331700  1
  C  2725  1  0.35489300  0.94800400  0.08398050  1
  C  2726  1  0.32304000  0.93859500  0.07619850  1
  C  2727  1  0.31060800  0.90900100  0.08716250  1
  C  2728  1  0.32893800  0.89041700  0.10643600  1
  C  2729  1  0.36038000  0.86014300  0.15782800  1
  C  2730  1  0.40018700  0.90163400  0.15764500  1
  C  2731  1  0.38862000  0.93216200  0.16792800  1
  C  2732  1  0.40667900  0.95101800  0.18719900  1
  C  2733  1  0.43686900  0.93979800  0.19763900  1
  C  2734  1  0.44751800  0.90833600  0.18951700  1
  C  2735  1  0.42920000  0.88954400  0.17039300  1
  C  2736  1  0.37210300  0.82984000  0.16846400  1
  C  2737  1  0.35425000  0.81130400  0.18809200  1
  C  2738  1  0.32408900  0.82261000  0.19852600  1
  C  2739  1  0.31318400  0.85380100  0.18992600  1
  C  2740  1  0.33133000  0.87231400  0.17046900  1
  C  2761  1  0.01862100  0.02902300  0.78014900  1
  C  2763  1  0.03149700  0.99052300  0.74339400  1
  C  2764  1  0.99767400  0.98369400  0.73954200  1
  C  2766  1  0.98514300  0.02221800  0.77612800  1
  C  2768  1  0.05815000  0.97529400  0.72694100  1
  C  2772  1  0.02951900  0.05137600  0.79991600  1
  C  2774  1  0.98568600  0.96155600  0.71988300  1
  C  2776  1  0.74544400  0.23319300  0.28170100  1
  C  2778  1  0.73240200  0.27111000  0.24453800  1
  C  2779  1  0.76612500  0.27866700  0.24115700  1
  C  2781  1  0.77883600  0.24069000  0.27806800  1
  C  2783  1  0.70583600  0.28564000  0.22753100  1
  C  2787  1  0.73479000  0.21108100  0.30177500  1
  C  2789  1  0.77802700  0.30127900  0.22191100  1
  C  2791  1  0.24307300  0.52807900  0.49219900  1
  C  2793  1  0.22986100  0.49117700  0.53006200  1
  C  2794  1  0.26353900  0.48343200  0.53352100  1
  C  2796  1  0.27640900  0.52035600  0.49583400  1
  C  2798  1  0.20315500  0.47725600  0.54729000  1
  C  2802  1  0.23246800  0.55002400  0.47198000  1
  C  2804  1  0.27533100  0.46152700  0.55344300  1
  C  2806  1  0.51746300  0.73204600  0.99380300  1
  C  2808  1  0.53046700  0.77099100  0.03017150  1
  C  2809  1  0.49664200  0.77764600  0.03422550  1
  C  2811  1  0.48398500  0.73865700  0.99804000  1
  C  2813  1  0.55718000  0.78654700  0.04632550  1
  C  2817  1  0.52830400  0.70960200  0.97409100  1
  C  2819  1  0.48471100  0.79995400  0.05375850  1
  C  2821  1  0.26699200  0.77919500  0.24324200  1
  C  2823  1  0.27974000  0.74053100  0.27990200  1
  C  2824  1  0.24591700  0.73358000  0.28353800  1
  C  2826  1  0.23350600  0.77229600  0.24709400  1
  C  2828  1  0.30627900  0.72529500  0.29648300  1
  C  2832  1  0.27790200  0.80153800  0.22346900  1
  C  2834  1  0.23384000  0.71109100  0.30283600  1
  C  2836  1  0.76554100  0.48319800  0.03195350  1
  C  2838  1  0.77829600  0.52004600  0.99393600  1
  C  2839  1  0.74465900  0.52827000  0.99117600  1
  C  2841  1  0.73221700  0.49133900  0.02891650  1
  C  2843  1  0.80463700  0.53363000  0.97611100  1
  C  2847  1  0.77630100  0.46129200  0.05214250  1
  C  2849  1  0.73269600  0.55081100  0.97191800  1
  C  2851  1  0.49521200  0.27811000  0.53166300  1
  C  2853  1  0.48236700  0.24027400  0.49438200  1
  C  2854  1  0.51610100  0.23270000  0.49112300  1
  C  2856  1  0.52862200  0.27059000  0.52815600  1
  C  2858  1  0.45587600  0.22580000  0.47725100  1
  C  2862  1  0.48445200  0.30022100  0.55170100  1
  C  2864  1  0.52809400  0.21013100  0.47186900  1
  C  2866  1  0.01670000  0.52901000  0.28082500  1
  C  2868  1  0.02949500  0.48969100  0.24469200  1
  C  2869  1  0.99565800  0.48292900  0.24091500  1
  C  2871  1  0.98319800  0.52230700  0.27680900  1
  C  2873  1  0.05603600  0.47401300  0.22842400  1
  C  2877  1  0.02757400  0.55149800  0.30049900  1
  C  2879  1  0.98359100  0.46013600  0.22189200  1
  C  2881  1  0.74399400  0.73425500  0.78257900  1
  C  2883  1  0.73060600  0.76993200  0.74389900  1
  C  2884  1  0.76414300  0.77844500  0.74077600  1
  C  2886  1  0.77719300  0.74273300  0.77926800  1
  C  2888  1  0.70391000  0.78278300  0.72605700  1
  C  2892  1  0.73355100  0.71260100  0.80309700  1
  C  2894  1  0.77576900  0.80023600  0.72068900  1
  C  2896  1  0.24467300  0.02773400  0.99155000  1
  C  2898  1  0.23115100  0.99141200  0.02975350  1
  C  2899  1  0.26472400  0.98316100  0.03309050  1
  C  2901  1  0.27790900  0.01951800  0.99508500  1
  C  2903  1  0.20437200  0.97808800  0.04724150  1
  C  2907  1  0.23429200  0.04953800  0.97112400  1
  C  2909  1  0.27630600  0.96115600  0.05302350  1
  C  2911  1  0.26795000  0.27889200  0.74247000  1
  C  2913  1  0.28040000  0.24082300  0.77965400  1
  C  2914  1  0.24663100  0.23323500  0.78259800  1
  C  2916  1  0.23449900  0.27140600  0.74568300  1
  C  2918  1  0.30669000  0.22631600  0.79699100  1
  C  2922  1  0.27897500  0.30126900  0.72278700  1
  C  2924  1  0.23447100  0.21054900  0.80165500  1
  C  2926  1  0.76756900  0.98237900  0.53072000  1
  C  2928  1  0.78025100  0.02184800  0.49467900  1
  C  2929  1  0.74638900  0.02845200  0.49085200  1
  C  2931  1  0.73404500  0.98891900  0.52665300  1
  C  2933  1  0.80676300  0.03767600  0.47848400  1
  C  2937  1  0.77852800  0.95983300  0.55030100  1
  C  2939  1  0.73426000  0.05120400  0.47181200  1
  C  2941  1  0.51634100  0.02815600  0.28203500  1
  C  2943  1  0.52916200  0.99171300  0.24374600  1
  C  2944  1  0.49554700  0.98337900  0.24096400  1
  C  2946  1  0.48304600  0.01989500  0.27900700  1
  C  2948  1  0.55556500  0.97840000  0.22583300  1
  C  2952  1  0.52708000  0.04999000  0.30229200  1
  C  2954  1  0.48362800  0.96109000  0.22144500  1
  C  2956  1  0.01580200  0.73270500  0.49228100  1
  C  2958  1  0.02846400  0.76880800  0.53084100  1
  C  2959  1  0.99491900  0.77755800  0.53323900  1
  C  2961  1  0.98256300  0.74134000  0.49495800  1
  C  2963  1  0.05471000  0.78167100  0.54916000  1
  C  2967  1  0.02660100  0.71082200  0.47209400  1
  C  2969  1  0.98299500  0.80000100  0.55260900  1
  C  2971  1  0.99452600  0.27801200  0.03139850  1
  C  2973  1  0.98101100  0.24240700  0.99270400  1
  C  2974  1  0.01454500  0.23396200  0.98944900  1
  C  2976  1  0.02772400  0.26959500  0.02796450  1
  C  2978  1  0.95423900  0.22954100  0.97495100  1
  C  2982  1  0.98413900  0.29960700  0.05197250  1
  C  2984  1  0.02611700  0.21226500  0.96927000  1
  C  2986  1  0.51526800  0.52800400  0.78219200  1
  C  2988  1  0.52852700  0.49118000  0.74428300  1
  C  2989  1  0.49491700  0.48303600  0.74112700  1
  C  2991  1  0.48198100  0.51992600  0.77878400  1
  C  2993  1  0.55513200  0.47755200  0.72677500  1
  C  2997  1  0.52578900  0.54986800  0.80251000  1
  C  2999  1  0.48319300  0.46062300  0.72163900  1
  N  41  1  0.20374800  0.05416500  0.20948000  1
  N  42  1  0.05686400  0.20775600  0.20846300  1
  N  43  1  0.05983700  0.05300300  0.05044000  1
  N  44  1  0.20407700  0.20974300  0.05207200  1
  N  86  1  0.55853600  0.20898300  0.70854600  1
  N  87  1  0.70388300  0.05208200  0.70824200  1
  N  88  1  0.70423000  0.20724600  0.55073600  1
  N  89  1  0.55769800  0.05422200  0.55076900  1
  N  131  1  0.05798300  0.55373400  0.55060600  1
  N  132  1  0.20322300  0.70918000  0.55233300  1
  N  133  1  0.20191400  0.55367500  0.70982600  1
  N  134  1  0.05720400  0.70723900  0.71011000  1
  N  176  1  0.70298200  0.70766400  0.05132000  1
  N  177  1  0.55636100  0.55436000  0.05101300  1
  N  178  1  0.55850700  0.70834900  0.21007700  1
  N  179  1  0.70230700  0.55169600  0.20841000  1
  N  221  1  0.80692000  0.45708100  0.30063500  1
  N  222  1  0.95357700  0.30434400  0.30036200  1
  N  223  1  0.80839800  0.30224700  0.45834700  1
  N  224  1  0.95330300  0.45950300  0.45803600  1
  N  266  1  0.95244000  0.80167300  0.80235800  1
  N  267  1  0.80881400  0.95829100  0.80094800  1
  N  268  1  0.95490100  0.95798800  0.95859900  1
  N  269  1  0.80652100  0.80431500  0.95959000  1
  N  311  1  0.30936400  0.30305300  0.95942900  1
  N  312  1  0.45276800  0.45928300  0.95830900  1
  N  313  1  0.30611100  0.45757500  0.80140600  1
  N  314  1  0.45386200  0.30411600  0.80051700  1
  N  356  1  0.45299700  0.95903200  0.45896500  1
  N  357  1  0.30832700  0.80369100  0.46031400  1
  N  358  1  0.45397700  0.80305100  0.30242200  1
  N  359  1  0.30701200  0.95769500  0.30159800  1
  N  362  1  0.04005200  0.01271700  0.00686100  1
  N  365  1  0.97622300  0.00010800  0.99976300  1
  N  377  1  0.72395100  0.24888000  0.50802100  1
  N  380  1  0.78763200  0.26286900  0.50173900  1
  N  392  1  0.22153200  0.51298300  0.75312600  1
  N  395  1  0.28509500  0.49862900  0.75948500  1
  N  407  1  0.53896000  0.74865500  0.25371900  1
  N  410  1  0.47512500  0.76091600  0.26121100  1
  N  422  1  0.28837000  0.76286400  0.50348300  1
  N  425  1  0.22452300  0.75002800  0.51021000  1
  N  437  1  0.78685500  0.49804700  0.25757100  1
  N  440  1  0.72332000  0.51331000  0.25245200  1
  N  452  1  0.47381500  0.26247100  0.75786300  1
  N  455  1  0.53751600  0.24844500  0.75182900  1
  N  467  1  0.03811200  0.51226700  0.50782900  1
  N  470  1  0.97422600  0.49979000  0.50081400  1
  N  482  1  0.72242600  0.74840100  0.00800800  1
  N  485  1  0.78572800  0.76420100  0.00228300  1
  N  497  1  0.22302000  0.01315000  0.25270000  1
  N  500  1  0.28639200  0.99784200  0.25884100  1
  N  512  1  0.28916600  0.26315200  0.00327400  1
  N  515  1  0.22538900  0.24911200  0.00873400  1
  N  527  1  0.78893400  0.99926700  0.75778900  1
  N  530  1  0.72500700  0.01143700  0.75068200  1
  N  542  1  0.53767200  0.01355400  0.50752000  1
  N  545  1  0.47419900  0.99809200  0.50238900  1
  N  557  1  0.03702700  0.74694900  0.75401300  1
  N  560  1  0.97366600  0.76318900  0.75844000  1
  N  572  1  0.97289700  0.26387300  0.25688000  1
  N  575  1  0.03619100  0.24818800  0.25091400  1
  N  587  1  0.53681900  0.51312900  0.00803700  1
  N  590  1  0.47334600  0.49801300  0.00218600  1
  N  641  1  0.20374800  0.05416500  0.39861600  1
  N  642  1  0.05686400  0.20775600  0.39759900  1
  N  643  1  0.05983700  0.05300300  0.23957600  1
  N  644  1  0.20407700  0.20974300  0.24120800  1
  N  686  1  0.55853600  0.20898300  0.89768200  1
  N  687  1  0.70388300  0.05208200  0.89737800  1
  N  688  1  0.70423000  0.20724600  0.73987200  1
  N  689  1  0.55769800  0.05422200  0.73990500  1
  N  731  1  0.05798300  0.55373400  0.73974200  1
  N  732  1  0.20322300  0.70918000  0.74146900  1
  N  733  1  0.20191400  0.55367500  0.89896200  1
  N  734  1  0.05720400  0.70723900  0.89924600  1
  N  776  1  0.70298200  0.70766400  0.24045600  1
  N  777  1  0.55636100  0.55436000  0.24014900  1
  N  778  1  0.55850700  0.70834900  0.39921300  1
  N  779  1  0.70230700  0.55169600  0.39754600  1
  N  821  1  0.80692000  0.45708100  0.48977100  1
  N  822  1  0.95357700  0.30434400  0.48949800  1
  N  823  1  0.80839800  0.30224700  0.64748300  1
  N  824  1  0.95330300  0.45950300  0.64717200  1
  N  866  1  0.95244000  0.80167300  0.99149400  1
  N  867  1  0.80881400  0.95829100  0.99008400  1
  N  868  1  0.95490100  0.95798800  0.14773500  1
  N  869  1  0.80652100  0.80431500  0.14872600  1
  N  911  1  0.30936400  0.30305300  0.14856500  1
  N  912  1  0.45276800  0.45928300  0.14744500  1
  N  913  1  0.30611100  0.45757500  0.99054200  1
  N  914  1  0.45386200  0.30411600  0.98965300  1
  N  956  1  0.45299700  0.95903200  0.64810100  1
  N  957  1  0.30832700  0.80369100  0.64945000  1
  N  958  1  0.45397700  0.80305100  0.49155800  1
  N  959  1  0.30701200  0.95769500  0.49073400  1
  N  962  1  0.04005200  0.01271700  0.19599700  1
  N  965  1  0.97622300  0.00010800  0.18889900  1
  N  977  1  0.72395100  0.24888000  0.69715700  1
  N  980  1  0.78763200  0.26286900  0.69087500  1
  N  992  1  0.22153200  0.51298300  0.94226200  1
  N  995  1  0.28509500  0.49862900  0.94862100  1
  N  1007  1  0.53896000  0.74865500  0.44285500  1
  N  1010  1  0.47512500  0.76091600  0.45034700  1
  N  1022  1  0.28837000  0.76286400  0.69261900  1
  N  1025  1  0.22452300  0.75002800  0.69934600  1
  N  1037  1  0.78685500  0.49804700  0.44670700  1
  N  1040  1  0.72332000  0.51331000  0.44158800  1
  N  1052  1  0.47381500  0.26247100  0.94699900  1
  N  1055  1  0.53751600  0.24844500  0.94096500  1
  N  1067  1  0.03811200  0.51226700  0.69696500  1
  N  1070  1  0.97422600  0.49979000  0.68995000  1
  N  1082  1  0.72242600  0.74840100  0.19714400  1
  N  1085  1  0.78572800  0.76420100  0.19141900  1
  N  1097  1  0.22302000  0.01315000  0.44183600  1
  N  1100  1  0.28639200  0.99784200  0.44797700  1
  N  1112  1  0.28916600  0.26315200  0.19241000  1
  N  1115  1  0.22538900  0.24911200  0.19787000  1
  N  1127  1  0.78893400  0.99926700  0.94692500  1
  N  1130  1  0.72500700  0.01143700  0.93981800  1
  N  1142  1  0.53767200  0.01355400  0.69665600  1
  N  1145  1  0.47419900  0.99809200  0.69152500  1
  N  1157  1  0.03702700  0.74694900  0.94314900  1
  N  1160  1  0.97366600  0.76318900  0.94757600  1
  N  1172  1  0.97289700  0.26387300  0.44601600  1
  N  1175  1  0.03619100  0.24818800  0.44005000  1
  N  1187  1  0.53681900  0.51312900  0.19717300  1
  N  1190  1  0.47334600  0.49801300  0.19132200  1
  N  1241  1  0.20374800  0.05416500  0.58775100  1
  N  1242  1  0.05686400  0.20775600  0.58673400  1
  N  1243  1  0.05983700  0.05300300  0.42871100  1
  N  1244  1  0.20407700  0.20974300  0.43034300  1
  N  1286  1  0.55853600  0.20898300  0.08681730  1
  N  1287  1  0.70388300  0.05208200  0.08651330  1
  N  1288  1  0.70423000  0.20724600  0.92900700  1
  N  1289  1  0.55769800  0.05422200  0.92904000  1
  N  1331  1  0.05798300  0.55373400  0.92887700  1
  N  1332  1  0.20322300  0.70918000  0.93060400  1
  N  1333  1  0.20191400  0.55367500  0.08809730  1
  N  1334  1  0.05720400  0.70723900  0.08838130  1
  N  1376  1  0.70298200  0.70766400  0.42959100  1
  N  1377  1  0.55636100  0.55436000  0.42928400  1
  N  1378  1  0.55850700  0.70834900  0.58834800  1
  N  1379  1  0.70230700  0.55169600  0.58668100  1
  N  1421  1  0.80692000  0.45708100  0.67890600  1
  N  1422  1  0.95357700  0.30434400  0.67863300  1
  N  1423  1  0.80839800  0.30224700  0.83661800  1
  N  1424  1  0.95330300  0.45950300  0.83630700  1
  N  1466  1  0.95244000  0.80167300  0.18062900  1
  N  1467  1  0.80881400  0.95829100  0.17921900  1
  N  1468  1  0.95490100  0.95798800  0.33687000  1
  N  1469  1  0.80652100  0.80431500  0.33786100  1
  N  1511  1  0.30936400  0.30305300  0.33770000  1
  N  1512  1  0.45276800  0.45928300  0.33658000  1
  N  1513  1  0.30611100  0.45757500  0.17967700  1
  N  1514  1  0.45386200  0.30411600  0.17878800  1
  N  1556  1  0.45299700  0.95903200  0.83723600  1
  N  1557  1  0.30832700  0.80369100  0.83858500  1
  N  1558  1  0.45397700  0.80305100  0.68069300  1
  N  1559  1  0.30701200  0.95769500  0.67986900  1
  N  1562  1  0.04005200  0.01271700  0.38513200  1
  N  1565  1  0.97622300  0.00010800  0.37803400  1
  N  1577  1  0.72395100  0.24888000  0.88629200  1
  N  1580  1  0.78763200  0.26286900  0.88001000  1
  N  1592  1  0.22153200  0.51298300  0.13139700  1
  N  1595  1  0.28509500  0.49862900  0.13775600  1
  N  1607  1  0.53896000  0.74865500  0.63199000  1
  N  1610  1  0.47512500  0.76091600  0.63948200  1
  N  1622  1  0.28837000  0.76286400  0.88175400  1
  N  1625  1  0.22452300  0.75002800  0.88848100  1
  N  1637  1  0.78685500  0.49804700  0.63584200  1
  N  1640  1  0.72332000  0.51331000  0.63072300  1
  N  1652  1  0.47381500  0.26247100  0.13613400  1
  N  1655  1  0.53751600  0.24844500  0.13010000  1
  N  1667  1  0.03811200  0.51226700  0.88610000  1
  N  1670  1  0.97422600  0.49979000  0.87908500  1
  N  1682  1  0.72242600  0.74840100  0.38627900  1
  N  1685  1  0.78572800  0.76420100  0.38055400  1
  N  1697  1  0.22302000  0.01315000  0.63097100  1
  N  1700  1  0.28639200  0.99784200  0.63711200  1
  N  1712  1  0.28916600  0.26315200  0.38154500  1
  N  1715  1  0.22538900  0.24911200  0.38700500  1
  N  1727  1  0.78893400  0.99926700  0.13606000  1
  N  1730  1  0.72500700  0.01143700  0.12895300  1
  N  1742  1  0.53767200  0.01355400  0.88579100  1
  N  1745  1  0.47419900  0.99809200  0.88066000  1
  N  1757  1  0.03702700  0.74694900  0.13228400  1
  N  1760  1  0.97366600  0.76318900  0.13671100  1
  N  1772  1  0.97289700  0.26387300  0.63515100  1
  N  1775  1  0.03619100  0.24818800  0.62918500  1
  N  1787  1  0.53681900  0.51312900  0.38630800  1
  N  1790  1  0.47334600  0.49801300  0.38045700  1
  N  1841  1  0.20374800  0.05416500  0.77688700  1
  N  1842  1  0.05686400  0.20775600  0.77587000  1
  N  1843  1  0.05983700  0.05300300  0.61784700  1
  N  1844  1  0.20407700  0.20974300  0.61947900  1
  N  1886  1  0.55853600  0.20898300  0.27595300  1
  N  1887  1  0.70388300  0.05208200  0.27564900  1
  N  1888  1  0.70423000  0.20724600  0.11814300  1
  N  1889  1  0.55769800  0.05422200  0.11817600  1
  N  1931  1  0.05798300  0.55373400  0.11801300  1
  N  1932  1  0.20322300  0.70918000  0.11974000  1
  N  1933  1  0.20191400  0.55367500  0.27723300  1
  N  1934  1  0.05720400  0.70723900  0.27751700  1
  N  1976  1  0.70298200  0.70766400  0.61872700  1
  N  1977  1  0.55636100  0.55436000  0.61842000  1
  N  1978  1  0.55850700  0.70834900  0.77748400  1
  N  1979  1  0.70230700  0.55169600  0.77581700  1
  N  2021  1  0.80692000  0.45708100  0.86804200  1
  N  2022  1  0.95357700  0.30434400  0.86776900  1
  N  2023  1  0.80839800  0.30224700  0.02575390  1
  N  2024  1  0.95330300  0.45950300  0.02544290  1
  N  2066  1  0.95244000  0.80167300  0.36976500  1
  N  2067  1  0.80881400  0.95829100  0.36835500  1
  N  2068  1  0.95490100  0.95798800  0.52600600  1
  N  2069  1  0.80652100  0.80431500  0.52699700  1
  N  2111  1  0.30936400  0.30305300  0.52683600  1
  N  2112  1  0.45276800  0.45928300  0.52571600  1
  N  2113  1  0.30611100  0.45757500  0.36881300  1
  N  2114  1  0.45386200  0.30411600  0.36792400  1
  N  2156  1  0.45299700  0.95903200  0.02637190  1
  N  2157  1  0.30832700  0.80369100  0.02772090  1
  N  2158  1  0.45397700  0.80305100  0.86982900  1
  N  2159  1  0.30701200  0.95769500  0.86900500  1
  N  2162  1  0.04005200  0.01271700  0.57426800  1
  N  2165  1  0.97622300  0.00010800  0.56717000  1
  N  2177  1  0.72395100  0.24888000  0.07542790  1
  N  2180  1  0.78763200  0.26286900  0.06914590  1
  N  2192  1  0.22153200  0.51298300  0.32053300  1
  N  2195  1  0.28509500  0.49862900  0.32689200  1
  N  2207  1  0.53896000  0.74865500  0.82112600  1
  N  2210  1  0.47512500  0.76091600  0.82861800  1
  N  2222  1  0.28837000  0.76286400  0.07088990  1
  N  2225  1  0.22452300  0.75002800  0.07761690  1
  N  2237  1  0.78685500  0.49804700  0.82497800  1
  N  2240  1  0.72332000  0.51331000  0.81985900  1
  N  2252  1  0.47381500  0.26247100  0.32527000  1
  N  2255  1  0.53751600  0.24844500  0.31923600  1
  N  2267  1  0.03811200  0.51226700  0.07523590  1
  N  2270  1  0.97422600  0.49979000  0.06822090  1
  N  2282  1  0.72242600  0.74840100  0.57541500  1
  N  2285  1  0.78572800  0.76420100  0.56969000  1
  N  2297  1  0.22302000  0.01315000  0.82010700  1
  N  2300  1  0.28639200  0.99784200  0.82624800  1
  N  2312  1  0.28916600  0.26315200  0.57068100  1
  N  2315  1  0.22538900  0.24911200  0.57614100  1
  N  2327  1  0.78893400  0.99926700  0.32519600  1
  N  2330  1  0.72500700  0.01143700  0.31808900  1
  N  2342  1  0.53767200  0.01355400  0.07492690  1
  N  2345  1  0.47419900  0.99809200  0.06979590  1
  N  2357  1  0.03702700  0.74694900  0.32142000  1
  N  2360  1  0.97366600  0.76318900  0.32584700  1
  N  2372  1  0.97289700  0.26387300  0.82428700  1
  N  2375  1  0.03619100  0.24818800  0.81832100  1
  N  2387  1  0.53681900  0.51312900  0.57544400  1
  N  2390  1  0.47334600  0.49801300  0.56959300  1
  N  2441  1  0.20374800  0.05416500  0.96602300  1
  N  2442  1  0.05686400  0.20775600  0.96500600  1
  N  2443  1  0.05983700  0.05300300  0.80698300  1
  N  2444  1  0.20407700  0.20974300  0.80861500  1
  N  2486  1  0.55853600  0.20898300  0.46508900  1
  N  2487  1  0.70388300  0.05208200  0.46478500  1
  N  2488  1  0.70423000  0.20724600  0.30727900  1
  N  2489  1  0.55769800  0.05422200  0.30731200  1
  N  2531  1  0.05798300  0.55373400  0.30714900  1
  N  2532  1  0.20322300  0.70918000  0.30887600  1
  N  2533  1  0.20191400  0.55367500  0.46636900  1
  N  2534  1  0.05720400  0.70723900  0.46665300  1
  N  2576  1  0.70298200  0.70766400  0.80786300  1
  N  2577  1  0.55636100  0.55436000  0.80755600  1
  N  2578  1  0.55850700  0.70834900  0.96662000  1
  N  2579  1  0.70230700  0.55169600  0.96495300  1
  N  2621  1  0.80692000  0.45708100  0.05717750  1
  N  2622  1  0.95357700  0.30434400  0.05690450  1
  N  2623  1  0.80839800  0.30224700  0.21489000  1
  N  2624  1  0.95330300  0.45950300  0.21457900  1
  N  2666  1  0.95244000  0.80167300  0.55890100  1
  N  2667  1  0.80881400  0.95829100  0.55749100  1
  N  2668  1  0.95490100  0.95798800  0.71514200  1
  N  2669  1  0.80652100  0.80431500  0.71613300  1
  N  2711  1  0.30936400  0.30305300  0.71597200  1
  N  2712  1  0.45276800  0.45928300  0.71485200  1
  N  2713  1  0.30611100  0.45757500  0.55794900  1
  N  2714  1  0.45386200  0.30411600  0.55706000  1
  N  2756  1  0.45299700  0.95903200  0.21550800  1
  N  2757  1  0.30832700  0.80369100  0.21685700  1
  N  2758  1  0.45397700  0.80305100  0.05896450  1
  N  2759  1  0.30701200  0.95769500  0.05814050  1
  N  2762  1  0.04005200  0.01271700  0.76340400  1
  N  2765  1  0.97622300  0.00010800  0.75630600  1
  N  2777  1  0.72395100  0.24888000  0.26456400  1
  N  2780  1  0.78763200  0.26286900  0.25828200  1
  N  2792  1  0.22153200  0.51298300  0.50966900  1
  N  2795  1  0.28509500  0.49862900  0.51602800  1
  N  2807  1  0.53896000  0.74865500  0.01026150  1
  N  2810  1  0.47512500  0.76091600  0.01775350  1
  N  2822  1  0.28837000  0.76286400  0.26002600  1
  N  2825  1  0.22452300  0.75002800  0.26675300  1
  N  2837  1  0.78685500  0.49804700  0.01411350  1
  N  2840  1  0.72332000  0.51331000  0.00899452  1
  N  2852  1  0.47381500  0.26247100  0.51440600  1
  N  2855  1  0.53751600  0.24844500  0.50837200  1
  N  2867  1  0.03811200  0.51226700  0.26437200  1
  N  2870  1  0.97422600  0.49979000  0.25735700  1
  N  2882  1  0.72242600  0.74840100  0.76455100  1
  N  2885  1  0.78572800  0.76420100  0.75882600  1
  N  2897  1  0.22302000  0.01315000  0.00924252  1
  N  2900  1  0.28639200  0.99784200  0.01538350  1
  N  2912  1  0.28916600  0.26315200  0.75981700  1
  N  2915  1  0.22538900  0.24911200  0.76527700  1
  N  2927  1  0.78893400  0.99926700  0.51433200  1
  N  2930  1  0.72500700  0.01143700  0.50722500  1
  N  2942  1  0.53767200  0.01355400  0.26406300  1
  N  2945  1  0.47419900  0.99809200  0.25893200  1
  N  2957  1  0.03702700  0.74694900  0.51055600  1
  N  2960  1  0.97366600  0.76318900  0.51498300  1
  N  2972  1  0.97289700  0.26387300  0.01342250  1
  N  2975  1  0.03619100  0.24818800  0.00745652  1
  N  2987  1  0.53681900  0.51312900  0.76458000  1
  N  2990  1  0.47334600  0.49801300  0.75872900  1
