# generated using pymatgen
data_H9C14(NO3)2
_symmetry_space_group_name_H-M   'P 1'
_cell_length_a   36.21860000
_cell_length_b   36.21860000
_cell_length_c   44.61430000
_cell_angle_alpha   90.00000000
_cell_angle_beta   90.00000000
_cell_angle_gamma   90.00000000
_symmetry_Int_Tables_number   1
_chemical_formula_structural   H9C14(NO3)2
_chemical_formula_sum   'H288 C448 N64 O192'
_cell_volume   58524.45812772
_cell_formula_units_Z   32
loop_
 _symmetry_equiv_pos_site_id
 _symmetry_equiv_pos_as_xyz
  1  'x, y, z'
loop_
 _atom_site_type_symbol
 _atom_site_label
 _atom_site_symmetry_multiplicity
 _atom_site_fract_x
 _atom_site_fract_y
 _atom_site_fract_z
 _atom_site_occupancy
  H  7  1  0.09419300  0.27931500  0.13794900  1
  H  16  1  0.00441700  0.27036500  0.07819400  1
  H  19  1  0.03366400  0.31976700  0.05034200  1
  H  20  1  0.13195800  0.28212600  0.09231300  1
  H  21  1  0.06262400  0.42002400  0.15358500  1
  H  22  1  0.07083200  0.15758600  0.03102800  1
  H  33  1  0.91681000  0.73155800  0.13786000  1
  H  42  1  0.00661500  0.74055300  0.07818000  1
  H  45  1  0.97756100  0.69073000  0.05042900  1
  H  46  1  0.87893800  0.72876900  0.09231500  1
  H  47  1  0.95099700  0.59283900  0.14915800  1
  H  48  1  0.94005500  0.85330200  0.03103400  1
  H  59  1  0.27931500  0.91670300  0.87294500  1
  H  68  1  0.27031400  0.00660600  0.93269700  1
  H  71  1  0.31977200  0.97723200  0.96055300  1
  H  72  1  0.28212300  0.87892900  0.91858000  1
  H  73  1  0.42002700  0.94826900  0.85730800  1
  H  74  1  0.15763000  0.94003600  0.97991900  1
  H  85  1  0.73156000  0.09408600  0.87303400  1
  H  94  1  0.74055600  0.00429000  0.93271700  1
  H  97  1  0.69073300  0.03333200  0.96046600  1
  H  98  1  0.72877200  0.13196100  0.91858000  1
  H  99  1  0.59283900  0.05989900  0.86173300  1
  H  100  1  0.85326600  0.07085800  0.97991900  1
  H  111  1  0.59411700  0.23162400  0.63713500  1
  H  120  1  0.50436500  0.24047300  0.57812400  1
  H  123  1  0.53366200  0.19112200  0.55032200  1
  H  124  1  0.63192600  0.22876100  0.59235500  1
  H  125  1  0.56235700  0.09084000  0.65361600  1
  H  126  1  0.57083900  0.35329100  0.53102900  1
  H  137  1  0.41689100  0.77928400  0.63704300  1
  H  146  1  0.50662100  0.77033900  0.57816900  1
  H  149  1  0.47756700  0.82016700  0.55040900  1
  H  150  1  0.37896800  0.78213400  0.59235500  1
  H  151  1  0.45103900  0.91810200  0.64911300  1
  H  152  1  0.44005500  0.65759600  0.53103400  1
  H  163  1  0.77926800  0.59410600  0.37375700  1
  H  172  1  0.77030800  0.50428200  0.43271300  1
  H  175  1  0.81977500  0.53365900  0.46057400  1
  H  176  1  0.78212800  0.63193200  0.41853900  1
  H  177  1  0.92006000  0.56236300  0.35728200  1
  H  178  1  0.65763100  0.57085800  0.47991800  1
  H  189  1  0.23160400  0.41687700  0.37385100  1
  H  198  1  0.24056400  0.50661200  0.43273100  1
  H  201  1  0.19072900  0.47756700  0.46048700  1
  H  202  1  0.22876600  0.37896500  0.41853900  1
  H  203  1  0.09278100  0.45102500  0.36175200  1
  H  204  1  0.35326300  0.44003600  0.47992000  1
  H  216  1  0.99662000  0.54071600  0.16641100  1
  H  220  1  0.00094900  0.52393500  0.02282500  1
  H  221  1  0.00989500  0.48722700  0.17165400  1
  H  222  1  0.01407100  0.46958200  0.02761500  1
  H  224  1  0.01829200  0.42429000  0.12630000  1
  H  226  1  0.97612000  0.58907600  0.06775000  1
  H  234  1  0.54071600  0.01427500  0.84448300  1
  H  238  1  0.52393500  0.00994600  0.98806900  1
  H  239  1  0.48722500  0.00099900  0.83924000  1
  H  240  1  0.46958200  0.99682400  0.98327900  1
  H  242  1  0.42428700  0.99260000  0.88459300  1
  H  244  1  0.58908900  0.03475300  0.94315100  1
  H  252  1  0.49662000  0.97018900  0.66641400  1
  H  256  1  0.50095000  0.98695900  0.52282400  1
  H  257  1  0.50989800  0.02367800  0.67165300  1
  H  258  1  0.51407000  0.04131100  0.52761400  1
  H  260  1  0.51817000  0.08657800  0.62623000  1
  H  262  1  0.47613100  0.92179100  0.56772900  1
  H  270  1  0.04070500  0.49661800  0.34447900  1
  H  274  1  0.02393200  0.50095000  0.48807200  1
  H  275  1  0.98721600  0.50989800  0.33924100  1
  H  276  1  0.96958200  0.51407000  0.48328000  1
  H  278  1  0.92431500  0.51817600  0.38466400  1
  H  280  1  0.08906600  0.47613400  0.44317400  1
  H  288  1  0.06963300  0.41415400  0.22977400  1
  H  292  1  0.20068800  0.29606300  0.24214700  1
  H  293  1  0.08548300  0.43901500  0.26818500  1
  H  294  1  0.21721800  0.32066100  0.28094600  1
  H  296  1  0.15022700  0.42836500  0.31161500  1
  H  298  1  0.13485600  0.30781100  0.19431800  1
  H  306  1  0.94126500  0.59674000  0.22976700  1
  H  310  1  0.81021000  0.71482900  0.24214400  1
  H  311  1  0.92541600  0.57187700  0.26817900  1
  H  312  1  0.79367800  0.69023100  0.28094800  1
  H  314  1  0.86039500  0.58254600  0.31139100  1
  H  316  1  0.87616000  0.70310800  0.19430900  1
  H  324  1  0.41415400  0.94126200  0.78112400  1
  H  328  1  0.29606300  0.81020800  0.76874700  1
  H  329  1  0.43901700  0.92541600  0.74271500  1
  H  330  1  0.32066400  0.79368000  0.72994600  1
  H  332  1  0.42825800  0.86080900  0.69920700  1
  H  334  1  0.30776700  0.87609100  0.81654800  1
  H  342  1  0.59674000  0.06963000  0.78112400  1
  H  346  1  0.71482900  0.20068500  0.76874900  1
  H  347  1  0.57187700  0.08548100  0.74271300  1
  H  348  1  0.69023300  0.21721800  0.72994800  1
  H  350  1  0.58249600  0.15056200  0.69953400  1
  H  352  1  0.70307500  0.13477100  0.81661100  1
  H  360  1  0.24663300  0.14774400  0.96892300  1
  H  364  1  0.11823800  0.04234200  0.02161700  1
  H  365  1  0.22325700  0.19208800  0.98961100  1
  H  366  1  0.09547400  0.08649300  0.04135800  1
  H  368  1  0.14576600  0.20523700  0.02511300  1
  H  370  1  0.18446600  0.03391400  0.98194300  1
  H  378  1  0.76426200  0.86315000  0.96892300  1
  H  382  1  0.89265700  0.96855200  0.02161700  1
  H  383  1  0.78763600  0.81880500  0.98961100  1
  H  384  1  0.91542200  0.92440000  0.04135800  1
  H  386  1  0.86512400  0.80565500  0.02511100  1
  H  388  1  0.82642900  0.97697800  0.98194300  1
  H  396  1  0.14774700  0.76426700  0.04197000  1
  H  400  1  0.04234400  0.89266000  0.98927500  1
  H  401  1  0.19208300  0.78765300  0.02127700  1
  H  402  1  0.08649900  0.91542700  0.96953500  1
  H  404  1  0.20535800  0.86589500  0.98636800  1
  H  406  1  0.03395500  0.82616100  0.02884800  1
  H  414  1  0.86315000  0.24664100  0.04197700  1
  H  418  1  0.96854100  0.11819200  0.98925300  1
  H  419  1  0.81880500  0.22324200  0.02127600  1
  H  420  1  0.92439500  0.09547400  0.96953500  1
  H  422  1  0.80553900  0.14499600  0.98636600  1
  H  424  1  0.97827300  0.18029900  0.03123900  1
  H  432  1  0.74663300  0.36315000  0.46892400  1
  H  436  1  0.61823700  0.46855200  0.52161800  1
  H  437  1  0.72325800  0.31880600  0.48961200  1
  H  438  1  0.59547300  0.42440100  0.54135800  1
  H  440  1  0.64576500  0.30565800  0.52511200  1
  H  442  1  0.68446600  0.47698100  0.48194400  1
  H  450  1  0.26426200  0.64774400  0.46892400  1
  H  454  1  0.39265700  0.54234300  0.52161800  1
  H  455  1  0.28763700  0.69208900  0.48961200  1
  H  456  1  0.41542200  0.58649400  0.54135800  1
  H  458  1  0.36512400  0.70524000  0.52511000  1
  H  460  1  0.32642600  0.53391600  0.48194200  1
  H  468  1  0.64774700  0.74663000  0.54197000  1
  H  472  1  0.54234500  0.61823500  0.48927400  1
  H  473  1  0.69208300  0.72324100  0.52127700  1
  H  474  1  0.58650000  0.59547000  0.46953300  1
  H  476  1  0.70535800  0.64500000  0.48636900  1
  H  478  1  0.53372800  0.68459000  0.52861800  1
  H  486  1  0.36314800  0.26425100  0.54197900  1
  H  490  1  0.46853800  0.39268500  0.48926000  1
  H  491  1  0.31880300  0.28765300  0.52127500  1
  H  492  1  0.42439800  0.41541900  0.46953600  1
  H  494  1  0.30553900  0.36590000  0.48636700  1
  H  496  1  0.47768000  0.33115300  0.53235200  1
  H  503  1  0.09419300  0.38975500  0.63106400  1
  H  512  1  0.00441700  0.38080500  0.57130900  1
  H  515  1  0.03366400  0.43020700  0.54345700  1
  H  516  1  0.13195800  0.39256600  0.58542800  1
  H  517  1  0.06262400  0.53046400  0.64670000  1
  H  518  1  0.07083200  0.26802600  0.52414300  1
  H  529  1  0.91681000  0.84199800  0.63097500  1
  H  538  1  0.00661500  0.85099300  0.57129500  1
  H  541  1  0.97756100  0.80117000  0.54354400  1
  H  542  1  0.87893800  0.83920900  0.58543000  1
  H  543  1  0.95099700  0.70327900  0.64227300  1
  H  544  1  0.94005500  0.96374200  0.52414900  1
  H  555  1  0.27931500  0.02714350  0.36606000  1
  H  564  1  0.27031400  0.11704600  0.42581200  1
  H  567  1  0.31977200  0.08767250  0.45366800  1
  H  568  1  0.28212300  0.98936900  0.41169500  1
  H  569  1  0.42002700  0.05870950  0.35042300  1
  H  570  1  0.15763000  0.05047650  0.47303400  1
  H  581  1  0.73156000  0.20452600  0.36614900  1
  H  590  1  0.74055600  0.11473000  0.42583200  1
  H  593  1  0.69073300  0.14377200  0.45358100  1
  H  594  1  0.72877200  0.24240100  0.41169500  1
  H  595  1  0.59283900  0.17033900  0.35484800  1
  H  596  1  0.85326600  0.18129800  0.47303400  1
  H  607  1  0.59411700  0.34206400  0.13025000  1
  H  616  1  0.50436500  0.35091300  0.07123940  1
  H  619  1  0.53366200  0.30156200  0.04343740  1
  H  620  1  0.63192600  0.33920100  0.08547040  1
  H  621  1  0.56235700  0.20128000  0.14673100  1
  H  622  1  0.57083900  0.46373100  0.02414440  1
  H  633  1  0.41689100  0.88972400  0.13015800  1
  H  642  1  0.50662100  0.88077900  0.07128440  1
  H  645  1  0.47756700  0.93060700  0.04352440  1
  H  646  1  0.37896800  0.89257400  0.08547040  1
  H  647  1  0.45103900  0.02854250  0.14222800  1
  H  648  1  0.44005500  0.76803600  0.02414940  1
  H  659  1  0.77926800  0.70454600  0.86687200  1
  H  668  1  0.77030800  0.61472200  0.92582800  1
  H  671  1  0.81977500  0.64409900  0.95368900  1
  H  672  1  0.78212800  0.74237200  0.91165400  1
  H  673  1  0.92006000  0.67280300  0.85039700  1
  H  674  1  0.65763100  0.68129800  0.97303300  1
  H  685  1  0.23160400  0.52731700  0.86696600  1
  H  694  1  0.24056400  0.61705200  0.92584600  1
  H  697  1  0.19072900  0.58800700  0.95360200  1
  H  698  1  0.22876600  0.48940500  0.91165400  1
  H  699  1  0.09278100  0.56146500  0.85486700  1
  H  700  1  0.35326300  0.55047600  0.97303500  1
  H  712  1  0.99662000  0.65115600  0.65952600  1
  H  716  1  0.00094900  0.63437500  0.51594000  1
  H  717  1  0.00989500  0.59766700  0.66476900  1
  H  718  1  0.01407100  0.58002200  0.52073000  1
  H  720  1  0.01829200  0.53473000  0.61941500  1
  H  722  1  0.97612000  0.69951600  0.56086500  1
  H  730  1  0.54071600  0.12471500  0.33759800  1
  H  734  1  0.52393500  0.12038600  0.48118400  1
  H  735  1  0.48722500  0.11143900  0.33235500  1
  H  736  1  0.46958200  0.10726400  0.47639400  1
  H  738  1  0.42428700  0.10304000  0.37770800  1
  H  740  1  0.58908900  0.14519300  0.43626600  1
  H  748  1  0.49662000  0.08062950  0.15952900  1
  H  752  1  0.50095000  0.09739950  0.01593940  1
  H  753  1  0.50989800  0.13411800  0.16476800  1
  H  754  1  0.51407000  0.15175100  0.02072940  1
  H  756  1  0.51817000  0.19701800  0.11934500  1
  H  758  1  0.47613100  0.03223150  0.06084440  1
  H  766  1  0.04070500  0.60705800  0.83759400  1
  H  770  1  0.02393200  0.61139000  0.98118700  1
  H  771  1  0.98721600  0.62033800  0.83235600  1
  H  772  1  0.96958200  0.62451000  0.97639500  1
  H  774  1  0.92431500  0.62861600  0.87777900  1
  H  776  1  0.08906600  0.58657400  0.93628900  1
  H  784  1  0.06963300  0.52459400  0.72288900  1
  H  788  1  0.20068800  0.40650300  0.73526200  1
  H  789  1  0.08548300  0.54945500  0.76130000  1
  H  790  1  0.21721800  0.43110100  0.77406100  1
  H  792  1  0.15022700  0.53880500  0.80473000  1
  H  794  1  0.13485600  0.41825100  0.68743300  1
  H  802  1  0.94126500  0.70718000  0.72288200  1
  H  806  1  0.81021000  0.82526900  0.73525900  1
  H  807  1  0.92541600  0.68231700  0.76129400  1
  H  808  1  0.79367800  0.80067100  0.77406300  1
  H  810  1  0.86039500  0.69298600  0.80450600  1
  H  812  1  0.87616000  0.81354800  0.68742400  1
  H  820  1  0.41415400  0.05170250  0.27423900  1
  H  824  1  0.29606300  0.92064800  0.26186200  1
  H  825  1  0.43901700  0.03585650  0.23583000  1
  H  826  1  0.32066400  0.90412000  0.22306100  1
  H  828  1  0.42825800  0.97124900  0.19232200  1
  H  830  1  0.30776700  0.98653100  0.30966300  1
  H  838  1  0.59674000  0.18007000  0.27423900  1
  H  842  1  0.71482900  0.31112500  0.26186400  1
  H  843  1  0.57187700  0.19592100  0.23582800  1
  H  844  1  0.69023300  0.32765800  0.22306300  1
  H  846  1  0.58249600  0.26100200  0.19264900  1
  H  848  1  0.70307500  0.24521100  0.30972600  1
  H  856  1  0.24663300  0.25818400  0.46203800  1
  H  860  1  0.11823800  0.15278200  0.51473200  1
  H  861  1  0.22325700  0.30252800  0.48272600  1
  H  862  1  0.09547400  0.19693300  0.53447300  1
  H  864  1  0.14576600  0.31567700  0.51822800  1
  H  866  1  0.18446600  0.14435400  0.47505800  1
  H  874  1  0.76426200  0.97359000  0.46203800  1
  H  878  1  0.89265700  0.07899250  0.51473200  1
  H  879  1  0.78763600  0.92924500  0.48272600  1
  H  880  1  0.91542200  0.03484050  0.53447300  1
  H  882  1  0.86512400  0.91609500  0.51822600  1
  H  884  1  0.82642900  0.08741850  0.47505800  1
  H  892  1  0.14774700  0.87470700  0.53508500  1
  H  896  1  0.04234400  0.00310049  0.48239000  1
  H  897  1  0.19208300  0.89809300  0.51439200  1
  H  898  1  0.08649900  0.02586750  0.46265000  1
  H  900  1  0.20535800  0.97633500  0.47948300  1
  H  902  1  0.03395500  0.93660100  0.52196300  1
  H  910  1  0.86315000  0.35708100  0.53509200  1
  H  914  1  0.96854100  0.22863200  0.48236800  1
  H  915  1  0.81880500  0.33368200  0.51439100  1
  H  916  1  0.92439500  0.20591400  0.46265000  1
  H  918  1  0.80553900  0.25543600  0.47948100  1
  H  920  1  0.97827300  0.29073900  0.52435400  1
  H  928  1  0.74663300  0.47359000  0.96203900  1
  H  932  1  0.61823700  0.57899200  0.01473340  1
  H  933  1  0.72325800  0.42924600  0.98272700  1
  H  934  1  0.59547300  0.53484100  0.03447340  1
  H  936  1  0.64576500  0.41609800  0.01822740  1
  H  938  1  0.68446600  0.58742100  0.97505900  1
  H  946  1  0.26426200  0.75818400  0.96203900  1
  H  950  1  0.39265700  0.65278300  0.01473340  1
  H  951  1  0.28763700  0.80252900  0.98272700  1
  H  952  1  0.41542200  0.69693400  0.03447340  1
  H  954  1  0.36512400  0.81568000  0.01822540  1
  H  956  1  0.32642600  0.64435600  0.97505700  1
  H  964  1  0.64774700  0.85707000  0.03508540  1
  H  968  1  0.54234500  0.72867500  0.98238900  1
  H  969  1  0.69208300  0.83368100  0.01439240  1
  H  970  1  0.58650000  0.70591000  0.96264800  1
  H  972  1  0.70535800  0.75544000  0.97948400  1
  H  974  1  0.53372800  0.79503000  0.02173340  1
  H  982  1  0.36314800  0.37469100  0.03509440  1
  H  986  1  0.46853800  0.50312500  0.98237500  1
  H  987  1  0.31880300  0.39809300  0.01439040  1
  H  988  1  0.42439800  0.52585900  0.96265100  1
  H  990  1  0.30553900  0.47634000  0.97948200  1
  H  992  1  0.47768000  0.44159300  0.02546740  1
  C  1  1  0.06343000  0.30198600  0.10190300  1
  C  2  1  0.08197900  0.30284700  0.13013100  1
  C  3  1  0.08337700  0.33466500  0.14867200  1
  C  4  1  0.06460000  0.36627600  0.13776400  1
  C  5  1  0.04409600  0.36664300  0.11010700  1
  C  6  1  0.04511700  0.33462400  0.09215400  1
  C  9  1  0.06222400  0.26832600  0.08468900  1
  C  10  1  0.09427700  0.24634200  0.07914400  1
  C  11  1  0.09219100  0.21264700  0.06299300  1
  C  12  1  0.05624800  0.20115800  0.05308100  1
  C  13  1  0.02372400  0.22213000  0.05800500  1
  C  14  1  0.02780000  0.25519800  0.07397500  1
  C  27  1  0.94751600  0.70867400  0.10168600  1
  C  28  1  0.92895900  0.70801200  0.12999800  1
  C  29  1  0.92740200  0.67631200  0.14857100  1
  C  30  1  0.94614600  0.64504700  0.13746600  1
  C  31  1  0.96598700  0.64352000  0.10991900  1
  C  32  1  0.96576300  0.67572200  0.09174500  1
  C  35  1  0.94870000  0.74253000  0.08468800  1
  C  36  1  0.91662300  0.76454300  0.07914400  1
  C  37  1  0.91871000  0.79823300  0.06298900  1
  C  38  1  0.95467800  0.80959500  0.05308400  1
  C  39  1  0.98699800  0.78848100  0.05791600  1
  C  40  1  0.98318500  0.75554000  0.07402500  1
  C  53  1  0.30198800  0.94746300  0.90899100  1
  C  54  1  0.30285000  0.92890900  0.88076500  1
  C  55  1  0.33465900  0.92754500  0.86221000  1
  C  56  1  0.36628700  0.94629200  0.87312800  1
  C  57  1  0.36663200  0.96677400  0.90079000  1
  C  58  1  0.33462100  0.96579100  0.91874200  1
  C  61  1  0.26834400  0.94866700  0.92619900  1
  C  62  1  0.24635500  0.91659500  0.93176000  1
  C  63  1  0.21264000  0.91870700  0.94787800  1
  C  64  1  0.20131600  0.95466900  0.95781400  1
  C  65  1  0.22232900  0.98706400  0.95279600  1
  C  66  1  0.25533900  0.98317100  0.93686100  1
  C  79  1  0.70867700  0.06337700  0.90920700  1
  C  80  1  0.70801400  0.08193700  0.88089500  1
  C  81  1  0.67631000  0.08350700  0.86232500  1
  C  82  1  0.64504700  0.06476100  0.87343100  1
  C  83  1  0.64353600  0.04487300  0.90095600  1
  C  84  1  0.67571900  0.04514300  0.91915400  1
  C  87  1  0.74253000  0.06220300  0.92621000  1
  C  88  1  0.76453200  0.09429200  0.93175800  1
  C  89  1  0.79824700  0.09218900  0.94788000  1
  C  90  1  0.80958100  0.05622500  0.95781200  1
  C  91  1  0.78856700  0.02382800  0.95279600  1
  C  92  1  0.75554800  0.02771600  0.93686800  1
  C  105  1  0.56316600  0.20882200  0.60166400  1
  C  106  1  0.58149900  0.20809700  0.62968200  1
  C  107  1  0.58295200  0.17709800  0.64854600  1
  C  108  1  0.56443400  0.14467500  0.63796600  1
  C  109  1  0.54396900  0.14414600  0.61016800  1
  C  110  1  0.54497700  0.17613100  0.59211500  1
  C  113  1  0.56219200  0.24255500  0.58465600  1
  C  114  1  0.59426900  0.26455200  0.57915500  1
  C  115  1  0.59216800  0.29824200  0.56300400  1
  C  116  1  0.55613400  0.30966100  0.55315700  1
  C  117  1  0.52351800  0.28902000  0.55853600  1
  C  118  1  0.52774000  0.25563700  0.57403800  1
  C  131  1  0.44778100  0.80230600  0.60144900  1
  C  132  1  0.42942600  0.80283600  0.62954100  1
  C  133  1  0.42783500  0.83370900  0.64843400  1
  C  134  1  0.44628200  0.86581400  0.63765200  1
  C  135  1  0.46609500  0.86747700  0.60996200  1
  C  136  1  0.46590700  0.83530500  0.59169800  1
  C  139  1  0.44873100  0.76837600  0.58464500  1
  C  140  1  0.41662600  0.74635900  0.57914900  1
  C  141  1  0.41871000  0.71266700  0.56299500  1
  C  142  1  0.45467800  0.70130200  0.55308500  1
  C  143  1  0.48707000  0.72233000  0.55810400  1
  C  144  1  0.48318800  0.75534600  0.57402200  1
  C  157  1  0.80207400  0.56316600  0.40922800  1
  C  158  1  0.80280500  0.58151000  0.38121600  1
  C  159  1  0.83378900  0.58291600  0.36232600  1
  C  160  1  0.86622900  0.56445000  0.37293200  1
  C  161  1  0.86673900  0.54399400  0.40072800  1
  C  162  1  0.83476100  0.54496600  0.41878100  1
  C  165  1  0.76835600  0.56219700  0.42624200  1
  C  166  1  0.74636200  0.59429400  0.43175400  1
  C  167  1  0.71264500  0.59218700  0.44787200  1
  C  168  1  0.70131900  0.55622800  0.45781500  1
  C  169  1  0.72232700  0.52383000  0.45279400  1
  C  170  1  0.75533300  0.52772000  0.43686500  1
  C  183  1  0.20859100  0.44778600  0.40944300  1
  C  184  1  0.20806200  0.42942800  0.38135100  1
  C  185  1  0.17717400  0.42781000  0.36247400  1
  C  186  1  0.14507900  0.44628200  0.37323000  1
  C  187  1  0.14343800  0.46614400  0.40088700  1
  C  188  1  0.17557800  0.46589000  0.41919800  1
  C  191  1  0.24251800  0.44872200  0.42625400  1
  C  192  1  0.26452600  0.41660600  0.43175200  1
  C  193  1  0.29824400  0.41870500  0.44787700  1
  C  194  1  0.30957800  0.45466700  0.45781100  1
  C  195  1  0.28856700  0.48706400  0.45279400  1
  C  196  1  0.25555400  0.48318200  0.43687100  1
  C  209  1  0.01349700  0.46700300  0.09976200  1
  C  210  1  0.00899200  0.49033900  0.12536900  1
  C  211  1  0.00032800  0.52826200  0.12214200  1
  C  212  1  0.99731900  0.54527500  0.09342100  1
  C  213  1  0.00184100  0.52145300  0.06823100  1
  C  214  1  0.01060200  0.48325400  0.07109900  1
  C  223  1  0.02255800  0.42947000  0.10557300  1
  C  225  1  0.98654500  0.58320000  0.08771000  1
  C  227  1  0.46699700  0.99741300  0.91113200  1
  C  228  1  0.49033900  0.00190200  0.88552600  1
  C  229  1  0.52826200  0.01056500  0.88875100  1
  C  230  1  0.54527500  0.01357700  0.91747300  1
  C  231  1  0.52145300  0.00905800  0.94266200  1
  C  232  1  0.48325700  0.00028900  0.93979500  1
  C  241  1  0.42947300  0.98832900  0.90531800  1
  C  243  1  0.58319700  0.02434200  0.92318900  1
  C  245  1  0.51347900  0.04387700  0.59975900  1
  C  246  1  0.50899800  0.02055200  0.62537100  1
  C  247  1  0.50034800  0.98263600  0.62213900  1
  C  248  1  0.49731100  0.96564200  0.59341300  1
  C  249  1  0.50185000  0.98944100  0.56822400  1
  C  250  1  0.51060500  0.02763300  0.57109700  1
  C  259  1  0.52266800  0.08135000  0.60553000  1
  C  261  1  0.48642700  0.92776600  0.58772400  1
  C  263  1  0.96702200  0.51349000  0.41113300  1
  C  264  1  0.99034200  0.50899200  0.38552000  1
  C  265  1  0.02825700  0.50032800  0.38875000  1
  C  266  1  0.04525400  0.49730500  0.41747600  1
  C  267  1  0.02145000  0.50183900  0.44266500  1
  C  268  1  0.98326000  0.51059700  0.43979600  1
  C  277  1  0.92954400  0.52266800  0.40536300  1
  C  279  1  0.08315800  0.48656700  0.42322100  1
  C  281  1  0.15593800  0.38531600  0.28340500  1
  C  282  1  0.12481500  0.39799400  0.26631400  1
  C  283  1  0.11288200  0.38085700  0.23906900  1
  C  284  1  0.13117100  0.34951100  0.22681300  1
  C  285  1  0.16209300  0.33661700  0.24396200  1
  C  286  1  0.17418300  0.35372400  0.27141300  1
  C  295  1  0.16307300  0.40484700  0.31156800  1
  C  297  1  0.12109800  0.33064500  0.19889500  1
  C  299  1  0.85493300  0.62556800  0.28337300  1
  C  300  1  0.88608300  0.61289800  0.26630700  1
  C  301  1  0.89801900  0.63003800  0.23906700  1
  C  302  1  0.87974100  0.66139200  0.22680900  1
  C  303  1  0.84880700  0.67427500  0.24396200  1
  C  304  1  0.83671300  0.65716800  0.27141100  1
  C  313  1  0.84782900  0.60617200  0.31155300  1
  C  315  1  0.88980500  0.68018600  0.19883200  1
  C  317  1  0.38535700  0.85493300  0.72750700  1
  C  318  1  0.39800300  0.88608000  0.74458400  1
  C  319  1  0.38085700  0.89801300  0.77182500  1
  C  320  1  0.34951400  0.87971900  0.78408100  1
  C  321  1  0.33662200  0.84879800  0.76692700  1
  C  322  1  0.35373500  0.83671600  0.73947600  1
  C  331  1  0.40477800  0.84791500  0.69928100  1
  C  333  1  0.33065900  0.88976900  0.81200700  1
  C  335  1  0.62559300  0.15593900  0.72750700  1
  C  336  1  0.61289800  0.12481300  0.74458900  1
  C  337  1  0.63003800  0.11287800  0.77182700  1
  C  338  1  0.66138900  0.13115700  0.78408700  1
  C  339  1  0.67427500  0.16208900  0.76693400  1
  C  340  1  0.65717000  0.17418600  0.73948500  1
  C  349  1  0.60614400  0.16310000  0.69935900  1
  C  351  1  0.68019700  0.12106600  0.81205400  1
  C  353  1  0.15547800  0.14892300  0.02162800  1
  C  354  1  0.18726500  0.15242400  0.00291200  1
  C  355  1  0.20380700  0.12135700  0.98800200  1
  C  356  1  0.18838900  0.08510300  0.98996100  1
  C  357  1  0.15559300  0.08244900  0.00793000  1
  C  358  1  0.13943000  0.11310600  0.02275900  1
  C  367  1  0.13784600  0.18145300  0.03403400  1
  C  369  1  0.20250500  0.05135600  0.97583300  1
  C  371  1  0.85541400  0.86197700  0.02164400  1
  C  372  1  0.82363400  0.85847000  0.00291000  1
  C  373  1  0.80709000  0.88953700  0.98800200  1
  C  374  1  0.82250200  0.92578900  0.98996100  1
  C  375  1  0.85530100  0.92844500  0.00792800  1
  C  376  1  0.87146600  0.89779000  0.02275400  1
  C  385  1  0.87304800  0.82943800  0.03403100  1
  C  387  1  0.80839400  0.95954200  0.97583500  1
  C  389  1  0.14893300  0.85540800  0.98924400  1
  C  390  1  0.15241800  0.82364600  0.00798200  1
  C  391  1  0.12134700  0.80710700  0.02289500  1
  C  392  1  0.08471700  0.82272900  0.02047500  1
  C  393  1  0.08244700  0.85532500  0.00296800  1
  C  394  1  0.11311200  0.87148000  0.98813900  1
  C  403  1  0.18163400  0.87264500  0.97671000  1
  C  405  1  0.05211900  0.80778100  0.03584500  1
  C  407  1  0.86196300  0.15548200  0.98925700  1
  C  408  1  0.85845900  0.18725800  0.00797700  1
  C  409  1  0.88932400  0.20399800  0.02295500  1
  C  410  1  0.92557100  0.18910700  0.02107300  1
  C  411  1  0.92831500  0.15590600  0.00307300  1
  C  412  1  0.89779000  0.13944200  0.98814100  1
  C  421  1  0.82926400  0.13824800  0.97670500  1
  C  423  1  0.96155500  0.19975200  0.03413700  1
  C  425  1  0.65547800  0.36197100  0.52162900  1
  C  426  1  0.68726500  0.35847000  0.50291100  1
  C  427  1  0.70380700  0.38953700  0.48800100  1
  C  428  1  0.68838600  0.42579500  0.48996200  1
  C  429  1  0.65559400  0.42844500  0.50792900  1
  C  430  1  0.63943100  0.39778700  0.52275900  1
  C  439  1  0.63784600  0.32944100  0.53403300  1
  C  441  1  0.70251400  0.45953200  0.47583000  1
  C  443  1  0.35541400  0.64892000  0.52164500  1
  C  444  1  0.32363500  0.65242400  0.50290800  1
  C  445  1  0.30708800  0.62135700  0.48800100  1
  C  446  1  0.32250500  0.58510200  0.48996200  1
  C  447  1  0.35530100  0.58244900  0.50792700  1
  C  448  1  0.37146400  0.61310700  0.52275400  1
  C  457  1  0.37304900  0.68145900  0.53403100  1
  C  459  1  0.30838300  0.55136000  0.47583200  1
  C  461  1  0.64893400  0.65548600  0.48924500  1
  C  462  1  0.65241900  0.68724900  0.50798100  1
  C  463  1  0.62136800  0.70380400  0.52290000  1
  C  464  1  0.58519100  0.68853800  0.52098300  1
  C  465  1  0.58245700  0.65559400  0.50298200  1
  C  466  1  0.61311300  0.63941400  0.48814000  1
  C  475  1  0.68163300  0.63824900  0.47671100  1
  C  477  1  0.55113100  0.70216100  0.53493200  1
  C  479  1  0.36196300  0.35541100  0.48925800  1
  C  480  1  0.35845900  0.32363200  0.50797000  1
  C  481  1  0.38932200  0.30688900  0.52295100  1
  C  482  1  0.42562100  0.32164400  0.52095900  1
  C  483  1  0.42832700  0.35496100  0.50307900  1
  C  484  1  0.39779500  0.37144400  0.48814000  1
  C  493  1  0.32926400  0.37264500  0.47670600  1
  C  495  1  0.46116900  0.31149700  0.53501300  1
  C  497  1  0.06343000  0.41242600  0.59501800  1
  C  498  1  0.08197900  0.41328700  0.62324600  1
  C  499  1  0.08337700  0.44510500  0.64178700  1
  C  500  1  0.06460000  0.47671600  0.63087900  1
  C  501  1  0.04409600  0.47708300  0.60322200  1
  C  502  1  0.04511700  0.44506400  0.58526900  1
  C  505  1  0.06222400  0.37876600  0.57780400  1
  C  506  1  0.09427700  0.35678200  0.57225900  1
  C  507  1  0.09219100  0.32308700  0.55610800  1
  C  508  1  0.05624800  0.31159800  0.54619600  1
  C  509  1  0.02372400  0.33257000  0.55112000  1
  C  510  1  0.02780000  0.36563800  0.56709000  1
  C  523  1  0.94751600  0.81911400  0.59480100  1
  C  524  1  0.92895900  0.81845200  0.62311300  1
  C  525  1  0.92740200  0.78675200  0.64168600  1
  C  526  1  0.94614600  0.75548700  0.63058100  1
  C  527  1  0.96598700  0.75396000  0.60303400  1
  C  528  1  0.96576300  0.78616200  0.58486000  1
  C  531  1  0.94870000  0.85297000  0.57780300  1
  C  532  1  0.91662300  0.87498300  0.57225900  1
  C  533  1  0.91871000  0.90867300  0.55610400  1
  C  534  1  0.95467800  0.92003500  0.54619900  1
  C  535  1  0.98699800  0.89892100  0.55103100  1
  C  536  1  0.98318500  0.86598000  0.56714000  1
  C  549  1  0.30198800  0.05790350  0.40210600  1
  C  550  1  0.30285000  0.03934950  0.37388000  1
  C  551  1  0.33465900  0.03798550  0.35532500  1
  C  552  1  0.36628700  0.05673250  0.36624300  1
  C  553  1  0.36663200  0.07721450  0.39390500  1
  C  554  1  0.33462100  0.07623150  0.41185700  1
  C  557  1  0.26834400  0.05910750  0.41931400  1
  C  558  1  0.24635500  0.02703550  0.42487500  1
  C  559  1  0.21264000  0.02914750  0.44099300  1
  C  560  1  0.20131600  0.06510950  0.45092900  1
  C  561  1  0.22232900  0.09750450  0.44591100  1
  C  562  1  0.25533900  0.09361150  0.42997600  1
  C  575  1  0.70867700  0.17381700  0.40232200  1
  C  576  1  0.70801400  0.19237700  0.37401000  1
  C  577  1  0.67631000  0.19394700  0.35544000  1
  C  578  1  0.64504700  0.17520100  0.36654600  1
  C  579  1  0.64353600  0.15531300  0.39407100  1
  C  580  1  0.67571900  0.15558300  0.41226900  1
  C  583  1  0.74253000  0.17264300  0.41932500  1
  C  584  1  0.76453200  0.20473200  0.42487300  1
  C  585  1  0.79824700  0.20262900  0.44099500  1
  C  586  1  0.80958100  0.16666500  0.45092700  1
  C  587  1  0.78856700  0.13426800  0.44591100  1
  C  588  1  0.75554800  0.13815600  0.42998300  1
  C  601  1  0.56316600  0.31926200  0.09477940  1
  C  602  1  0.58149900  0.31853700  0.12279700  1
  C  603  1  0.58295200  0.28753800  0.14166100  1
  C  604  1  0.56443400  0.25511500  0.13108100  1
  C  605  1  0.54396900  0.25458600  0.10328300  1
  C  606  1  0.54497700  0.28657100  0.08523040  1
  C  609  1  0.56219200  0.35299500  0.07777140  1
  C  610  1  0.59426900  0.37499200  0.07227040  1
  C  611  1  0.59216800  0.40868200  0.05611940  1
  C  612  1  0.55613400  0.42010100  0.04627240  1
  C  613  1  0.52351800  0.39946000  0.05165140  1
  C  614  1  0.52774000  0.36607700  0.06715340  1
  C  627  1  0.44778100  0.91274600  0.09456440  1
  C  628  1  0.42942600  0.91327600  0.12265600  1
  C  629  1  0.42783500  0.94414900  0.14154900  1
  C  630  1  0.44628200  0.97625400  0.13076700  1
  C  631  1  0.46609500  0.97791700  0.10307700  1
  C  632  1  0.46590700  0.94574500  0.08481340  1
  C  635  1  0.44873100  0.87881600  0.07776040  1
  C  636  1  0.41662600  0.85679900  0.07226440  1
  C  637  1  0.41871000  0.82310700  0.05611040  1
  C  638  1  0.45467800  0.81174200  0.04620040  1
  C  639  1  0.48707000  0.83277000  0.05121940  1
  C  640  1  0.48318800  0.86578600  0.06713740  1
  C  653  1  0.80207400  0.67360600  0.90234300  1
  C  654  1  0.80280500  0.69195000  0.87433100  1
  C  655  1  0.83378900  0.69335600  0.85544100  1
  C  656  1  0.86622900  0.67489000  0.86604700  1
  C  657  1  0.86673900  0.65443400  0.89384300  1
  C  658  1  0.83476100  0.65540600  0.91189600  1
  C  661  1  0.76835600  0.67263700  0.91935700  1
  C  662  1  0.74636200  0.70473400  0.92486900  1
  C  663  1  0.71264500  0.70262700  0.94098700  1
  C  664  1  0.70131900  0.66666667  0.95093000  1
  C  665  1  0.72232700  0.63427000  0.94590900  1
  C  666  1  0.75533300  0.63816000  0.92998000  1
  C  679  1  0.20859100  0.55822600  0.90255800  1
  C  680  1  0.20806200  0.53986800  0.87446600  1
  C  681  1  0.17717400  0.53825000  0.85558900  1
  C  682  1  0.14507900  0.55672200  0.86634500  1
  C  683  1  0.14343800  0.57658400  0.89400200  1
  C  684  1  0.17557800  0.57633000  0.91231300  1
  C  687  1  0.24251800  0.55916200  0.91936900  1
  C  688  1  0.26452600  0.52704600  0.92486700  1
  C  689  1  0.29824400  0.52914500  0.94099200  1
  C  690  1  0.30957800  0.56510700  0.95092600  1
  C  691  1  0.28856700  0.59750400  0.94590900  1
  C  692  1  0.25555400  0.59362200  0.92998600  1
  C  705  1  0.01349700  0.57744300  0.59287700  1
  C  706  1  0.00899200  0.60077900  0.61848400  1
  C  707  1  0.00032800  0.63870200  0.61525700  1
  C  708  1  0.99731900  0.65571500  0.58653600  1
  C  709  1  0.00184100  0.63189300  0.56134600  1
  C  710  1  0.01060200  0.59369400  0.56421400  1
  C  719  1  0.02255800  0.53991000  0.59868800  1
  C  721  1  0.98654500  0.69364000  0.58082500  1
  C  723  1  0.46699700  0.10785300  0.40424700  1
  C  724  1  0.49033900  0.11234200  0.37864100  1
  C  725  1  0.52826200  0.12100500  0.38186600  1
  C  726  1  0.54527500  0.12401700  0.41058800  1
  C  727  1  0.52145300  0.11949800  0.43577700  1
  C  728  1  0.48325700  0.11072900  0.43291000  1
  C  737  1  0.42947300  0.09876950  0.39843300  1
  C  739  1  0.58319700  0.13478200  0.41630400  1
  C  741  1  0.51347900  0.15431700  0.09287440  1
  C  742  1  0.50899800  0.13099200  0.11848600  1
  C  743  1  0.50034800  0.09307650  0.11525400  1
  C  744  1  0.49731100  0.07608250  0.08652840  1
  C  745  1  0.50185000  0.09988150  0.06133940  1
  C  746  1  0.51060500  0.13807300  0.06421240  1
  C  755  1  0.52266800  0.19179000  0.09864540  1
  C  757  1  0.48642700  0.03820650  0.08083940  1
  C  759  1  0.96702200  0.62393000  0.90424800  1
  C  760  1  0.99034200  0.61943200  0.87863500  1
  C  761  1  0.02825700  0.61076800  0.88186500  1
  C  762  1  0.04525400  0.60774500  0.91059100  1
  C  763  1  0.02145000  0.61227900  0.93578000  1
  C  764  1  0.98326000  0.62103700  0.93291100  1
  C  773  1  0.92954400  0.63310800  0.89847800  1
  C  775  1  0.08315800  0.59700700  0.91633600  1
  C  777  1  0.15593800  0.49575600  0.77652000  1
  C  778  1  0.12481500  0.50843400  0.75942900  1
  C  779  1  0.11288200  0.49129700  0.73218400  1
  C  780  1  0.13117100  0.45995100  0.71992800  1
  C  781  1  0.16209300  0.44705700  0.73707700  1
  C  782  1  0.17418300  0.46416400  0.76452800  1
  C  791  1  0.16307300  0.51528700  0.80468300  1
  C  793  1  0.12109800  0.44108500  0.69201000  1
  C  795  1  0.85493300  0.73600800  0.77648800  1
  C  796  1  0.88608300  0.72333800  0.75942200  1
  C  797  1  0.89801900  0.74047800  0.73218200  1
  C  798  1  0.87974100  0.77183200  0.71992400  1
  C  799  1  0.84880700  0.78471500  0.73707700  1
  C  800  1  0.83671300  0.76760800  0.76452600  1
  C  809  1  0.84782900  0.71661200  0.80466800  1
  C  811  1  0.88980500  0.79062600  0.69194700  1
  C  813  1  0.38535700  0.96537300  0.22062200  1
  C  814  1  0.39800300  0.99652000  0.23769900  1
  C  815  1  0.38085700  0.00845349  0.26494000  1
  C  816  1  0.34951400  0.99015900  0.27719600  1
  C  817  1  0.33662200  0.95923800  0.26004200  1
  C  818  1  0.35373500  0.94715600  0.23259100  1
  C  827  1  0.40477800  0.95835500  0.19239600  1
  C  829  1  0.33065900  0.00020949  0.30512200  1
  C  831  1  0.62559300  0.26637900  0.22062200  1
  C  832  1  0.61289800  0.23525300  0.23770400  1
  C  833  1  0.63003800  0.22331800  0.26494200  1
  C  834  1  0.66138900  0.24159700  0.27720200  1
  C  835  1  0.67427500  0.27252900  0.26004900  1
  C  836  1  0.65717000  0.28462600  0.23260000  1
  C  845  1  0.60614400  0.27354000  0.19247400  1
  C  847  1  0.68019700  0.23150600  0.30516900  1
  C  849  1  0.15547800  0.25936300  0.51474300  1
  C  850  1  0.18726500  0.26286400  0.49602700  1
  C  851  1  0.20380700  0.23179700  0.48111700  1
  C  852  1  0.18838900  0.19554300  0.48307600  1
  C  853  1  0.15559300  0.19288900  0.50104500  1
  C  854  1  0.13943000  0.22354600  0.51587400  1
  C  863  1  0.13784600  0.29189300  0.52714900  1
  C  865  1  0.20250500  0.16179600  0.46894800  1
  C  867  1  0.85541400  0.97241700  0.51475900  1
  C  868  1  0.82363400  0.96891000  0.49602500  1
  C  869  1  0.80709000  0.99997700  0.48111700  1
  C  870  1  0.82250200  0.03622950  0.48307600  1
  C  871  1  0.85530100  0.03888550  0.50104300  1
  C  872  1  0.87146600  0.00823049  0.51586900  1
  C  881  1  0.87304800  0.93987800  0.52714600  1
  C  883  1  0.80839400  0.06998250  0.46895000  1
  C  885  1  0.14893300  0.96584800  0.48235900  1
  C  886  1  0.15241800  0.93408600  0.50109700  1
  C  887  1  0.12134700  0.91754700  0.51601000  1
  C  888  1  0.08471700  0.93316900  0.51359000  1
  C  889  1  0.08244700  0.96576500  0.49608300  1
  C  890  1  0.11311200  0.98192000  0.48125400  1
  C  899  1  0.18163400  0.98308500  0.46982500  1
  C  901  1  0.05211900  0.91822100  0.52896000  1
  C  903  1  0.86196300  0.26592200  0.48237200  1
  C  904  1  0.85845900  0.29769800  0.50109200  1
  C  905  1  0.88932400  0.31443800  0.51607000  1
  C  906  1  0.92557100  0.29954700  0.51418800  1
  C  907  1  0.92831500  0.26634600  0.49618800  1
  C  908  1  0.89779000  0.24988200  0.48125600  1
  C  917  1  0.82926400  0.24868800  0.46982000  1
  C  919  1  0.96155500  0.31019200  0.52725200  1
  C  921  1  0.65547800  0.47241100  0.01474440  1
  C  922  1  0.68726500  0.46891000  0.99602600  1
  C  923  1  0.70380700  0.49997700  0.98111600  1
  C  924  1  0.68838600  0.53623500  0.98307700  1
  C  925  1  0.65559400  0.53888500  0.00104444  1
  C  926  1  0.63943100  0.50822700  0.01587440  1
  C  935  1  0.63784600  0.43988100  0.02714840  1
  C  937  1  0.70251400  0.56997200  0.96894500  1
  C  939  1  0.35541400  0.75936000  0.01476040  1
  C  940  1  0.32363500  0.76286400  0.99602300  1
  C  941  1  0.30708800  0.73179700  0.98111600  1
  C  942  1  0.32250500  0.69554200  0.98307700  1
  C  943  1  0.35530100  0.69288900  0.00104244  1
  C  944  1  0.37146400  0.72354700  0.01586940  1
  C  953  1  0.37304900  0.79189900  0.02714640  1
  C  955  1  0.30838300  0.66180000  0.96894700  1
  C  957  1  0.64893400  0.76592600  0.98236000  1
  C  958  1  0.65241900  0.79768900  0.00109644  1
  C  959  1  0.62136800  0.81424400  0.01601540  1
  C  960  1  0.58519100  0.79897800  0.01409840  1
  C  961  1  0.58245700  0.76603400  0.99609700  1
  C  962  1  0.61311300  0.74985400  0.98125500  1
  C  971  1  0.68163300  0.74868900  0.96982600  1
  C  973  1  0.55113100  0.81260100  0.02804740  1
  C  975  1  0.36196300  0.46585100  0.98237300  1
  C  976  1  0.35845900  0.43407200  0.00108544  1
  C  977  1  0.38932200  0.41732900  0.01606640  1
  C  978  1  0.42562100  0.43208400  0.01407440  1
  C  979  1  0.42832700  0.46540100  0.99619400  1
  C  980  1  0.39779500  0.48188400  0.98125500  1
  C  989  1  0.32926400  0.48308500  0.96982100  1
  C  991  1  0.46116900  0.42193700  0.02812840  1
  N  23  1  0.98776000  0.21760200  0.04784700  1
  N  24  1  0.12012100  0.18741000  0.05889000  1
  N  25  1  0.03123600  0.39752800  0.09534100  1
  N  26  1  0.09981600  0.33906900  0.17649800  1
  N  49  1  0.02131200  0.79648800  0.04739100  1
  N  50  1  0.89077700  0.82348500  0.05888800  1
  N  51  1  0.98253300  0.60998500  0.10640600  1
  N  52  1  0.91112800  0.67164900  0.17644700  1
  N  75  1  0.21489300  0.02159100  0.96340700  1
  N  76  1  0.18719800  0.89098100  0.95207900  1
  N  77  1  0.39752800  0.97966200  0.91555000  1
  N  78  1  0.33906900  0.91105900  0.83440500  1
  N  101  1  0.79600200  0.98930100  0.96340700  1
  N  102  1  0.82370100  0.11991000  0.95207600  1
  N  103  1  0.60997900  0.02838300  0.90449300  1
  N  104  1  0.67164400  0.09974600  0.83443700  1
  N  127  1  0.48857500  0.29295700  0.54623800  1
  N  128  1  0.62011800  0.32348300  0.55888600  1
  N  129  1  0.53110300  0.11334000  0.59530300  1
  N  130  1  0.60628200  0.17970200  0.67347700  1
  N  153  1  0.52169300  0.71498600  0.54757800  1
  N  154  1  0.39077700  0.68741200  0.55888800  1
  N  155  1  0.48267700  0.90095700  0.60642000  1
  N  156  1  0.40469800  0.83118900  0.67345900  1
  N  179  1  0.71488900  0.48930600  0.46340800  1
  N  180  1  0.68719900  0.61991300  0.45207900  1
  N  181  1  0.89755200  0.53110000  0.41558900  1
  N  182  1  0.83116900  0.60626800  0.33741200  1
  N  205  1  0.29600500  0.52158800  0.46340800  1
  N  206  1  0.32370100  0.39098400  0.45207700  1
  N  207  1  0.10990400  0.48257000  0.40450700  1
  N  208  1  0.17965100  0.40466200  0.33745500  1
  N  519  1  0.98776000  0.32804200  0.54096200  1
  N  520  1  0.12012100  0.29785000  0.55200500  1
  N  521  1  0.03123600  0.50796800  0.58845600  1
  N  522  1  0.09981600  0.44950900  0.66961300  1
  N  545  1  0.02131200  0.90692800  0.54050600  1
  N  546  1  0.89077700  0.93392500  0.55200300  1
  N  547  1  0.98253300  0.72042500  0.59952100  1
  N  548  1  0.91112800  0.78208900  0.66956200  1
  N  571  1  0.21489300  0.13203100  0.45652200  1
  N  572  1  0.18719800  0.00142149  0.44519400  1
  N  573  1  0.39752800  0.09010250  0.40866500  1
  N  574  1  0.33906900  0.02149950  0.32752000  1
  N  597  1  0.79600200  0.09974150  0.45652200  1
  N  598  1  0.82370100  0.23035000  0.44519100  1
  N  599  1  0.60997900  0.13882300  0.39760800  1
  N  600  1  0.67164400  0.21018600  0.32755200  1
  N  623  1  0.48857500  0.40339700  0.03935340  1
  N  624  1  0.62011800  0.43392300  0.05200140  1
  N  625  1  0.53110300  0.22378000  0.08841840  1
  N  626  1  0.60628200  0.29014200  0.16659200  1
  N  649  1  0.52169300  0.82542600  0.04069340  1
  N  650  1  0.39077700  0.79785200  0.05200340  1
  N  651  1  0.48267700  0.01139750  0.09953540  1
  N  652  1  0.40469800  0.94162900  0.16657400  1
  N  675  1  0.71488900  0.59974600  0.95652300  1
  N  676  1  0.68719900  0.73035300  0.94519400  1
  N  677  1  0.89755200  0.64154000  0.90870400  1
  N  678  1  0.83116900  0.71670800  0.83052700  1
  N  701  1  0.29600500  0.63202800  0.95652300  1
  N  702  1  0.32370100  0.50142400  0.94519200  1
  N  703  1  0.10990400  0.59301000  0.89762200  1
  N  704  1  0.17965100  0.51510200  0.83057000  1
  O  8  1  0.06773000  0.39453200  0.15800300  1
  O  15  1  0.04910500  0.16955800  0.03807700  1
  O  17  1  0.02663900  0.33799200  0.06542200  1
  O  18  1  0.12894100  0.25579200  0.08816400  1
  O  34  1  0.94387100  0.61620500  0.15700000  1
  O  41  1  0.96178200  0.84133500  0.03809300  1
  O  43  1  0.98453500  0.67230600  0.06540900  1
  O  44  1  0.88195500  0.75510100  0.08816300  1
  O  60  1  0.39453500  0.94317000  0.85288600  1
  O  67  1  0.16955900  0.96176800  0.97280100  1
  O  69  1  0.33799200  0.98425900  0.94547500  1
  O  70  1  0.25578700  0.88194400  0.92272900  1
  O  86  1  0.61620500  0.06702400  0.85389500  1
  O  93  1  0.84133500  0.04912700  0.97280100  1
  O  95  1  0.67230600  0.02636000  0.94548600  1
  O  96  1  0.75510600  0.12894800  0.92272700  1
  O  112  1  0.56807800  0.11626600  0.65784300  1
  O  119  1  0.54910400  0.34131600  0.53807400  1
  O  121  1  0.52660500  0.17287700  0.56538200  1
  O  122  1  0.62893600  0.25508900  0.58816600  1
  O  138  1  0.44359500  0.89478800  0.65688800  1
  O  145  1  0.46178200  0.66956200  0.53809200  1
  O  147  1  0.48457100  0.83861300  0.56536800  1
  O  148  1  0.38195800  0.75580700  0.58816400  1
  O  164  1  0.89463100  0.56807000  0.35305100  1
  O  171  1  0.66955900  0.54912600  0.47279900  1
  O  173  1  0.83801900  0.52660200  0.44551400  1
  O  174  1  0.75580200  0.62894700  0.42272800  1
  O  190  1  0.11611000  0.44358700  0.35399400  1
  O  197  1  0.34133600  0.46176800  0.47279900  1
  O  199  1  0.17227900  0.48456900  0.44552800  1
  O  200  1  0.25509200  0.38195000  0.42272600  1
  O  215  1  0.99602400  0.55053700  0.14622800  1
  O  217  1  0.01314100  0.47379800  0.15311700  1
  O  218  1  0.99763300  0.53821200  0.04098000  1
  O  219  1  0.01642300  0.45967800  0.04770800  1
  O  233  1  0.55053700  0.01486900  0.86466700  1
  O  235  1  0.47379500  0.99775500  0.85777700  1
  O  236  1  0.53821500  0.01326000  0.96991400  1
  O  237  1  0.45967800  0.99447200  0.96318500  1
  O  251  1  0.49604600  0.96037400  0.64623000  1
  O  253  1  0.51314800  0.03710400  0.65311600  1
  O  254  1  0.49762800  0.97268200  0.54097900  1
  O  255  1  0.51642500  0.05121200  0.54770800  1
  O  269  1  0.05052500  0.49605200  0.36466300  1
  O  271  1  0.97378900  0.51314800  0.35777800  1
  O  272  1  0.03821000  0.49763600  0.46991500  1
  O  273  1  0.95968300  0.51642500  0.46318600  1
  O  287  1  0.08332800  0.39288100  0.22278300  1
  O  289  1  0.10659100  0.42814400  0.27809500  1
  O  290  1  0.17949600  0.30643900  0.23193000  1
  O  291  1  0.20353500  0.34190700  0.28813200  1
  O  305  1  0.92756700  0.61801100  0.22277400  1
  O  307  1  0.90431400  0.58275600  0.27809700  1
  O  308  1  0.83140400  0.70445300  0.23192800  1
  O  309  1  0.80736400  0.66899000  0.28813400  1
  O  323  1  0.39287800  0.92756700  0.78811100  1
  O  325  1  0.42814200  0.90431400  0.73280300  1
  O  326  1  0.30643900  0.83140100  0.77896400  1
  O  327  1  0.34190700  0.80736400  0.72276000  1
  O  341  1  0.61801100  0.08332700  0.78812000  1
  O  343  1  0.58275300  0.10658300  0.73279700  1
  O  344  1  0.70445300  0.17949100  0.77896600  1
  O  345  1  0.66899000  0.20353400  0.72276200  1
  O  359  1  0.23509400  0.12372600  0.97104800  1
  O  361  1  0.20106800  0.18764400  0.00119100  1
  O  362  1  0.14034900  0.04763800  0.01034100  1
  O  363  1  0.10889400  0.10954900  0.04027300  1
  O  377  1  0.77580000  0.88716800  0.97104800  1
  O  379  1  0.80982700  0.82325100  0.00119100  1
  O  380  1  0.87054700  0.96325600  0.01034100  1
  O  381  1  0.90200000  0.90134600  0.04027200  1
  O  395  1  0.12372800  0.77580300  0.03984300  1
  O  397  1  0.18763700  0.80983500  0.00968900  1
  O  398  1  0.04763900  0.87055800  0.00056300  1
  O  399  1  0.10955600  0.90200600  0.97061100  1
  O  413  1  0.88716300  0.23510300  0.03985600  1
  O  415  1  0.82325600  0.20105800  0.00968700  1
  O  416  1  0.96321500  0.14028400  0.00046200  1
  O  417  1  0.90134000  0.10888800  0.97061300  1
  O  431  1  0.73509400  0.38716800  0.47104900  1
  O  433  1  0.70106800  0.32325100  0.50118900  1
  O  434  1  0.64034800  0.46325600  0.51034100  1
  O  435  1  0.60889400  0.40134600  0.54027300  1
  O  449  1  0.27580000  0.62372600  0.47104900  1
  O  451  1  0.30982700  0.68764400  0.50118900  1
  O  452  1  0.37054700  0.54763800  0.51034100  1
  O  453  1  0.40200000  0.60954800  0.54027100  1
  O  467  1  0.62372900  0.73509200  0.53984300  1
  O  469  1  0.68763800  0.70105900  0.50968900  1
  O  470  1  0.54763800  0.64033400  0.50056200  1
  O  471  1  0.60955700  0.60889100  0.47061200  1
  O  485  1  0.38715500  0.27579200  0.53986300  1
  O  487  1  0.32325400  0.30983800  0.50968700  1
  O  488  1  0.46322000  0.37057500  0.50048500  1
  O  489  1  0.40134100  0.40200600  0.47061400  1
  O  504  1  0.06773000  0.50497200  0.65111800  1
  O  511  1  0.04910500  0.27999800  0.53119200  1
  O  513  1  0.02663900  0.44843200  0.55853700  1
  O  514  1  0.12894100  0.36623200  0.58127900  1
  O  530  1  0.94387100  0.72664500  0.65011500  1
  O  537  1  0.96178200  0.95177500  0.53120800  1
  O  539  1  0.98453500  0.78274600  0.55852400  1
  O  540  1  0.88195500  0.86554100  0.58127800  1
  O  556  1  0.39453500  0.05361050  0.34600100  1
  O  563  1  0.16955900  0.07220850  0.46591600  1
  O  565  1  0.33799200  0.09469950  0.43859000  1
  O  566  1  0.25578700  0.99238400  0.41584400  1
  O  582  1  0.61620500  0.17746400  0.34701000  1
  O  589  1  0.84133500  0.15956700  0.46591600  1
  O  591  1  0.67230600  0.13680000  0.43860100  1
  O  592  1  0.75510600  0.23938800  0.41584200  1
  O  608  1  0.56807800  0.22670600  0.15095800  1
  O  615  1  0.54910400  0.45175600  0.03118940  1
  O  617  1  0.52660500  0.28331700  0.05849740  1
  O  618  1  0.62893600  0.36552900  0.08128140  1
  O  634  1  0.44359500  0.00522849  0.15000300  1
  O  641  1  0.46178200  0.78000200  0.03120740  1
  O  643  1  0.48457100  0.94905300  0.05848340  1
  O  644  1  0.38195800  0.86624700  0.08127940  1
  O  660  1  0.89463100  0.67851000  0.84616600  1
  O  667  1  0.66955900  0.65956600  0.96591400  1
  O  669  1  0.83801900  0.63704200  0.93862900  1
  O  670  1  0.75580200  0.73938700  0.91584300  1
  O  686  1  0.11611000  0.55402700  0.84710900  1
  O  693  1  0.34133600  0.57220800  0.96591400  1
  O  695  1  0.17227900  0.59500900  0.93864300  1
  O  696  1  0.25509200  0.49239000  0.91584100  1
  O  711  1  0.99602400  0.66097700  0.63934300  1
  O  713  1  0.01314100  0.58423800  0.64623200  1
  O  714  1  0.99763300  0.64865200  0.53409500  1
  O  715  1  0.01642300  0.57011800  0.54082300  1
  O  729  1  0.55053700  0.12530900  0.35778200  1
  O  731  1  0.47379500  0.10819500  0.35089200  1
  O  732  1  0.53821500  0.12370000  0.46302900  1
  O  733  1  0.45967800  0.10491200  0.45630000  1
  O  747  1  0.49604600  0.07081450  0.13934500  1
  O  749  1  0.51314800  0.14754400  0.14623100  1
  O  750  1  0.49762800  0.08312250  0.03409440  1
  O  751  1  0.51642500  0.16165200  0.04082340  1
  O  765  1  0.05052500  0.60649200  0.85777800  1
  O  767  1  0.97378900  0.62358800  0.85089300  1
  O  768  1  0.03821000  0.60807600  0.96303000  1
  O  769  1  0.95968300  0.62686500  0.95630100  1
  O  783  1  0.08332800  0.50332100  0.71589800  1
  O  785  1  0.10659100  0.53858400  0.77121000  1
  O  786  1  0.17949600  0.41687900  0.72504500  1
  O  787  1  0.20353500  0.45234700  0.78124700  1
  O  801  1  0.92756700  0.72845100  0.71588900  1
  O  803  1  0.90431400  0.69319600  0.77121200  1
  O  804  1  0.83140400  0.81489300  0.72504300  1
  O  805  1  0.80736400  0.77943000  0.78124900  1
  O  819  1  0.39287800  0.03800750  0.28122600  1
  O  821  1  0.42814200  0.01475450  0.22591800  1
  O  822  1  0.30643900  0.94184100  0.27207900  1
  O  823  1  0.34190700  0.91780400  0.21587500  1
  O  837  1  0.61801100  0.19376700  0.28123500  1
  O  839  1  0.58275300  0.21702300  0.22591200  1
  O  840  1  0.70445300  0.28993100  0.27208100  1
  O  841  1  0.66899000  0.31397400  0.21587700  1
  O  855  1  0.23509400  0.23416600  0.46416300  1
  O  857  1  0.20106800  0.29808400  0.49430600  1
  O  858  1  0.14034900  0.15807800  0.50345600  1
  O  859  1  0.10889400  0.21998900  0.53338800  1
  O  873  1  0.77580000  0.99760800  0.46416300  1
  O  875  1  0.80982700  0.93369100  0.49430600  1
  O  876  1  0.87054700  0.07369650  0.50345600  1
  O  877  1  0.90200000  0.01178650  0.53338700  1
  O  891  1  0.12372800  0.88624300  0.53295800  1
  O  893  1  0.18763700  0.92027500  0.50280400  1
  O  894  1  0.04763900  0.98099800  0.49367800  1
  O  895  1  0.10955600  0.01244650  0.46372600  1
  O  909  1  0.88716300  0.34554300  0.53297100  1
  O  911  1  0.82325600  0.31149800  0.50280200  1
  O  912  1  0.96321500  0.25072400  0.49357700  1
  O  913  1  0.90134000  0.21932800  0.46372800  1
  O  927  1  0.73509400  0.49760800  0.96416400  1
  O  929  1  0.70106800  0.43369100  0.99430400  1
  O  930  1  0.64034800  0.57369600  0.00345644  1
  O  931  1  0.60889400  0.51178600  0.03338840  1
  O  945  1  0.27580000  0.73416600  0.96416400  1
  O  947  1  0.30982700  0.79808400  0.99430400  1
  O  948  1  0.37054700  0.65807800  0.00345644  1
  O  949  1  0.40200000  0.71998800  0.03338640  1
  O  963  1  0.62372900  0.84553200  0.03295840  1
  O  965  1  0.68763800  0.81149900  0.00280444  1
  O  966  1  0.54763800  0.75077400  0.99367700  1
  O  967  1  0.60955700  0.71933100  0.96372700  1
  O  981  1  0.38715500  0.38623200  0.03297840  1
  O  983  1  0.32325400  0.42027800  0.00280244  1
  O  984  1  0.46322000  0.48101500  0.99360000  1
  O  985  1  0.40134100  0.51244600  0.96372900  1
