# generated using pymatgen
data_H24C41(N2O)2
_symmetry_space_group_name_H-M   'P 1'
_cell_length_a   43.31170000
_cell_length_b   63.16695000
_cell_length_c   63.16700000
_cell_angle_alpha   120.00007855
_cell_angle_beta   90.00000000
_cell_angle_gamma   90.00000000
_symmetry_Int_Tables_number   1
_chemical_formula_structural   H24C41(N2O)2
_chemical_formula_sum   'H576 C984 N96 O48'
_cell_volume   149663.42413502
_cell_formula_units_Z   24
loop_
 _symmetry_equiv_pos_site_id
 _symmetry_equiv_pos_as_xyz
  1  'x, y, z'
loop_
 _atom_site_type_symbol
 _atom_site_label
 _atom_site_symmetry_multiplicity
 _atom_site_fract_x
 _atom_site_fract_y
 _atom_site_fract_z
 _atom_site_occupancy
  H  26  1  0.88542600  0.51178500  0.72722200  1
  H  27  1  0.87604600  0.51114200  0.68986300  1
  H  28  1  0.97313500  0.54291800  0.73200000  1
  H  29  1  0.96384000  0.54221100  0.69449400  1
  H  30  1  0.96179500  0.50105100  0.64714100  1
  H  31  1  0.96799000  0.45947800  0.61589500  1
  H  32  1  0.87120300  0.45117600  0.60974300  1
  H  33  1  0.86496700  0.49218800  0.64140900  1
  H  34  1  0.87453000  0.52653200  0.62823700  1
  H  35  1  0.82273000  0.53850400  0.62776800  1
  H  36  1  0.81829700  0.57029300  0.70441800  1
  H  37  1  0.87058600  0.55963700  0.70511100  1
  H  38  1  0.92822800  0.57678400  0.69581600  1
  H  39  1  0.93416100  0.52187700  0.62159300  1
  H  40  1  0.96282600  0.54849000  0.61301300  1
  H  41  1  0.95755500  0.60360200  0.68710900  1
  H  67  1  0.88542500  0.15832400  0.45910000  1
  H  68  1  0.87603700  0.12161900  0.45975200  1
  H  69  1  0.97313000  0.13195500  0.42796700  1
  H  70  1  0.96382500  0.09516200  0.42868500  1
  H  71  1  0.96178100  0.08900100  0.46984700  1
  H  72  1  0.96799300  0.09934700  0.51142100  1
  H  73  1  0.87121000  0.10149100  0.51974200  1
  H  74  1  0.86495900  0.09212700  0.47872800  1
  H  75  1  0.87450900  0.04460400  0.44438900  1
  H  76  1  0.82270300  0.03216200  0.43242200  1
  H  77  1  0.81827600  0.07699900  0.40059900  1
  H  78  1  0.87057000  0.08834200  0.41124800  1
  H  79  1  0.92820000  0.06188800  0.39410900  1
  H  80  1  0.93411600  0.04260800  0.44903600  1
  H  81  1  0.96277400  0.00740600  0.42243800  1
  H  82  1  0.95751700  0.02635600  0.36730200  1
  H  108  1  0.88544400  0.24366800  0.81257100  1
  H  109  1  0.87605700  0.28102700  0.84927600  1
  H  110  1  0.97315200  0.23890900  0.83894000  1
  H  111  1  0.96384700  0.27641600  0.87573000  1
  H  112  1  0.96183600  0.32372400  0.88191500  1
  H  113  1  0.96808600  0.35494900  0.87156900  1
  H  114  1  0.87130900  0.36115400  0.86939800  1
  H  115  1  0.86502100  0.32950400  0.87876000  1
  H  116  1  0.87454900  0.34268600  0.92629000  1
  H  117  1  0.82275200  0.34318000  0.93875000  1
  H  118  1  0.81827200  0.26652900  0.89391200  1
  H  119  1  0.87055900  0.26581300  0.88254600  1
  H  120  1  0.92818000  0.27507500  0.90897700  1
  H  121  1  0.93414900  0.34929700  0.92832400  1
  H  122  1  0.96278500  0.35786000  0.96352500  1
  H  123  1  0.95747800  0.28375600  0.94450400  1
  H  149  1  0.38548000  0.43068100  0.27198000  1
  H  150  1  0.37606400  0.43134900  0.30934600  1
  H  151  1  0.47320900  0.39961100  0.26729200  1
  H  152  1  0.46387400  0.40033600  0.30480100  1
  H  153  1  0.46184500  0.44144100  0.35209300  1
  H  154  1  0.46809000  0.48301200  0.38331200  1
  H  155  1  0.37131300  0.49139700  0.38949500  1
  H  156  1  0.36502600  0.45038400  0.35784500  1
  H  157  1  0.37452900  0.41606000  0.37104500  1
  H  158  1  0.32272300  0.40408800  0.37152400  1
  H  159  1  0.31829700  0.37223900  0.29487000  1
  H  160  1  0.37058100  0.38288800  0.29416400  1
  H  161  1  0.42824400  0.36573200  0.30344100  1
  H  162  1  0.43411100  0.42064000  0.37766200  1
  H  163  1  0.46277100  0.39403800  0.38626000  1
  H  164  1  0.45757100  0.33892200  0.31216200  1
  H  190  1  0.38548700  0.78416200  0.54018500  1
  H  191  1  0.37606200  0.82085600  0.53951600  1
  H  192  1  0.47318400  0.81057300  0.57130300  1
  H  193  1  0.46384400  0.84735500  0.57057200  1
  H  194  1  0.46181700  0.85348800  0.52942000  1
  H  195  1  0.46807200  0.84312000  0.48784600  1
  H  196  1  0.37129900  0.84093600  0.47945600  1
  H  197  1  0.36500300  0.85031400  0.52047100  1
  H  198  1  0.37450600  0.89784600  0.55481000  1
  H  199  1  0.32267500  0.91028800  0.56677700  1
  H  200  1  0.31827400  0.86547100  0.59861600  1
  H  201  1  0.37056500  0.85413800  0.58797900  1
  H  202  1  0.42822600  0.88062700  0.60514200  1
  H  203  1  0.43407400  0.89985500  0.55017100  1
  H  204  1  0.46274100  0.93506000  0.57673300  1
  H  205  1  0.45755700  0.91617100  0.63191500  1
  H  231  1  0.38548200  0.69892400  0.18671700  1
  H  232  1  0.37605100  0.66156700  0.15002100  1
  H  233  1  0.47320700  0.70360200  0.16032400  1
  H  234  1  0.46385800  0.66609300  0.12353700  1
  H  235  1  0.46179200  0.61880000  0.11739800  1
  H  236  1  0.46800300  0.58757400  0.12774500  1
  H  237  1  0.37122300  0.58141500  0.12991800  1
  H  238  1  0.36496800  0.61306800  0.12055700  1
  H  239  1  0.37451100  0.59987800  0.07301500  1
  H  240  1  0.32269100  0.59940800  0.06057400  1
  H  241  1  0.31828100  0.67606200  0.10543900  1
  H  242  1  0.37056700  0.67675100  0.11677600  1
  H  243  1  0.42822600  0.66741700  0.09028000  1
  H  244  1  0.43409300  0.59320700  0.07102000  1
  H  245  1  0.46276400  0.58458600  0.03582200  1
  H  246  1  0.45756400  0.65866600  0.05474400  1
  H  272  1  0.11327600  0.78385000  0.27256000  1
  H  273  1  0.12263400  0.82046900  0.31001100  1
  H  274  1  0.02665300  0.81112200  0.26685300  1
  H  275  1  0.03591800  0.84782600  0.30441600  1
  H  276  1  0.03754400  0.85219700  0.35157600  1
  H  277  1  0.03124500  0.84190400  0.38284400  1
  H  278  1  0.12797900  0.84163000  0.39045100  1
  H  279  1  0.13434400  0.85103000  0.35885600  1
  H  280  1  0.12377500  0.89844800  0.37144800  1
  H  281  1  0.17558300  0.91123600  0.37242700  1
  H  282  1  0.18190000  0.86509100  0.29603100  1
  H  283  1  0.12971100  0.85339000  0.29479900  1
  H  284  1  0.07326400  0.88153300  0.30432000  1
  H  285  1  0.06227100  0.89865000  0.37760200  1
  H  286  1  0.03207900  0.93297100  0.38567700  1
  H  287  1  0.04329000  0.91668400  0.31273400  1
  H  313  1  0.11328800  0.69835400  0.53930800  1
  H  314  1  0.12264300  0.66089700  0.53847300  1
  H  315  1  0.02666000  0.70405100  0.57227500  1
  H  316  1  0.03592500  0.66648500  0.57140800  1
  H  317  1  0.03755100  0.61929900  0.52863200  1
  H  318  1  0.03126600  0.58803300  0.48707000  1
  H  319  1  0.12800400  0.58048800  0.47918000  1
  H  320  1  0.13435800  0.61207700  0.52017900  1
  H  321  1  0.12377200  0.59944200  0.55498100  1
  H  322  1  0.17557600  0.59844600  0.56678900  1
  H  323  1  0.18191600  0.67484700  0.59708200  1
  H  324  1  0.12972400  0.67609500  0.58661900  1
  H  325  1  0.07326900  0.66657500  0.60521800  1
  H  326  1  0.06227600  0.59329800  0.54903800  1
  H  327  1  0.03209000  0.58521300  0.57528300  1
  H  328  1  0.04330000  0.65815200  0.63194900  1
  H  354  1  0.11338000  0.43162100  0.18701600  1
  H  355  1  0.12268500  0.43243400  0.15037700  1
  H  356  1  0.02674800  0.39862900  0.15980600  1
  H  357  1  0.03595500  0.39947700  0.12309100  1
  H  358  1  0.03758300  0.44227700  0.11865300  1
  H  359  1  0.03133500  0.48383500  0.12891000  1
  H  360  1  0.12808300  0.49165100  0.12918700  1
  H  361  1  0.13439500  0.45065700  0.11981000  1
  H  362  1  0.12375800  0.41583100  0.07238000  1
  H  363  1  0.17553700  0.40400300  0.05956900  1
  H  364  1  0.18190000  0.37377900  0.10573200  1
  H  365  1  0.12972200  0.38426100  0.11746100  1
  H  366  1  0.07324500  0.36566900  0.08936700  1
  H  367  1  0.06224400  0.42181600  0.07222500  1
  H  368  1  0.03203000  0.39556200  0.03791500  1
  H  369  1  0.04325100  0.33892800  0.05423100  1
  H  395  1  0.61339100  0.15867300  0.72669500  1
  H  396  1  0.62271100  0.12204100  0.68924400  1
  H  397  1  0.52674900  0.13145200  0.73244300  1
  H  398  1  0.53597500  0.09473900  0.69487600  1
  H  399  1  0.53762100  0.09034600  0.64768200  1
  H  400  1  0.53136700  0.10062600  0.61639800  1
  H  401  1  0.62811200  0.10089300  0.60884500  1
  H  402  1  0.63443100  0.09149900  0.64045000  1
  H  403  1  0.62382900  0.04407100  0.62782500  1
  H  404  1  0.67561200  0.03127100  0.62686200  1
  H  405  1  0.68189200  0.07736900  0.70326100  1
  H  406  1  0.62971400  0.08908400  0.70448500  1
  H  407  1  0.57322400  0.06098100  0.69493100  1
  H  408  1  0.56237200  0.04388300  0.62164900  1
  H  409  1  0.53217500  0.00955300  0.61352900  1
  H  410  1  0.54324300  0.02582300  0.68647600  1
  H  436  1  0.61331900  0.24417800  0.45995900  1
  H  437  1  0.62265600  0.28164300  0.46080800  1
  H  438  1  0.52668900  0.23846800  0.42699100  1
  H  439  1  0.53592900  0.27604400  0.42787300  1
  H  440  1  0.53756100  0.32321600  0.47066700  1
  H  441  1  0.53128100  0.35448800  0.51222900  1
  H  442  1  0.62802200  0.36206100  0.52009400  1
  H  443  1  0.63436900  0.33046200  0.47909400  1
  H  444  1  0.62379400  0.34309100  0.44428900  1
  H  445  1  0.67557500  0.34406400  0.43245700  1
  H  446  1  0.68186900  0.26766400  0.40214600  1
  H  447  1  0.62969100  0.26643100  0.41263400  1
  H  448  1  0.57321700  0.27597800  0.39406800  1
  H  449  1  0.56234200  0.34925900  0.45024500  1
  H  450  1  0.53215600  0.35737300  0.42402400  1
  H  451  1  0.54324600  0.28442400  0.36735400  1
  H  477  1  0.61330100  0.51095900  0.81222500  1
  H  478  1  0.62265800  0.51011000  0.84883900  1
  H  479  1  0.52666800  0.54391400  0.83950000  1
  H  480  1  0.53593100  0.54303500  0.87619200  1
  H  481  1  0.53756100  0.50024400  0.88056000  1
  H  482  1  0.53127400  0.45868700  0.87027200  1
  H  483  1  0.62801000  0.45080600  0.86997300  1
  H  484  1  0.63436900  0.49180400  0.87937200  1
  H  485  1  0.62380800  0.52660300  0.92680100  1
  H  486  1  0.67559600  0.53843500  0.93960400  1
  H  487  1  0.68188700  0.56873900  0.89351100  1
  H  488  1  0.62971400  0.55825800  0.88179300  1
  H  489  1  0.57321400  0.57684600  0.90992800  1
  H  490  1  0.56235600  0.52064400  0.92700200  1
  H  491  1  0.53215900  0.54685000  0.96133600  1
  H  492  1  0.54323200  0.60354400  0.94509200  1
  H  518  1  0.11311000  0.43135000  0.27239200  1
  H  519  1  0.12302400  0.43161500  0.30948000  1
  H  520  1  0.02598600  0.39936000  0.26747600  1
  H  521  1  0.03556700  0.40009100  0.30495600  1
  H  522  1  0.03749800  0.44142000  0.35296300  1
  H  523  1  0.03134700  0.48290500  0.38442600  1
  H  524  1  0.12809400  0.49182000  0.38890500  1
  H  525  1  0.13424500  0.45082700  0.35720700  1
  H  526  1  0.12550600  0.41693800  0.37127800  1
  H  527  1  0.17750600  0.40525400  0.37158400  1
  H  528  1  0.18081700  0.37208800  0.29476100  1
  H  529  1  0.12845200  0.38276000  0.29429700  1
  H  530  1  0.07115100  0.36587900  0.30374700  1
  H  531  1  0.06607400  0.42069400  0.37803600  1
  H  532  1  0.03733800  0.39418900  0.38673100  1
  H  533  1  0.04175300  0.33916900  0.31256200  1
  H  559  1  0.11303600  0.78393900  0.53955200  1
  H  560  1  0.12296600  0.82075700  0.53928500  1
  H  561  1  0.02591200  0.81102800  0.57153500  1
  H  562  1  0.03551200  0.84777600  0.57080700  1
  H  563  1  0.03744200  0.85445900  0.52950600  1
  H  564  1  0.03126600  0.84442600  0.48801700  1
  H  565  1  0.12800900  0.83998900  0.47907300  1
  H  566  1  0.13418000  0.84928600  0.52006500  1
  H  567  1  0.12547200  0.89724200  0.55397800  1
  H  568  1  0.17747400  0.90921400  0.56564800  1
  H  569  1  0.18078200  0.86552200  0.59878000  1
  H  570  1  0.12841500  0.85439900  0.58811200  1
  H  571  1  0.07116500  0.88073400  0.60501900  1
  H  572  1  0.06600300  0.90027500  0.55025400  1
  H  573  1  0.03727600  0.93547200  0.57680900  1
  H  574  1  0.04178300  0.91624900  0.63177200  1
  H  600  1  0.11302700  0.69853700  0.18695100  1
  H  601  1  0.12297100  0.66145500  0.15013400  1
  H  602  1  0.02588900  0.70340100  0.15986000  1
  H  603  1  0.03550500  0.66592900  0.12311300  1
  H  604  1  0.03746800  0.61791500  0.11640300  1
  H  605  1  0.03133300  0.58643900  0.12641400  1
  H  606  1  0.12807800  0.58201900  0.13090200  1
  H  607  1  0.13421100  0.61372200  0.12161400  1
  H  608  1  0.12548800  0.59964800  0.07366700  1
  H  609  1  0.17749200  0.59935300  0.06170300  1
  H  610  1  0.18077300  0.67618200  0.10534800  1
  H  611  1  0.12839900  0.67662900  0.11647100  1
  H  612  1  0.07115100  0.66718600  0.09015000  1
  H  613  1  0.06600500  0.59288400  0.07062800  1
  H  614  1  0.03728500  0.58422800  0.03542600  1
  H  615  1  0.04177400  0.65841000  0.05462800  1
  H  641  1  0.61306300  0.51121100  0.72690200  1
  H  642  1  0.62299500  0.51093000  0.68980700  1
  H  643  1  0.52594100  0.54319600  0.73177900  1
  H  644  1  0.53554600  0.54244900  0.69429700  1
  H  645  1  0.53749000  0.50113700  0.64629600  1
  H  646  1  0.53133700  0.45964600  0.61485000  1
  H  647  1  0.62807700  0.45071600  0.61038300  1
  H  648  1  0.63423500  0.49171600  0.64206500  1
  H  649  1  0.62550300  0.52558500  0.62799300  1
  H  650  1  0.67749600  0.53726500  0.62768000  1
  H  651  1  0.68082300  0.57046300  0.70450900  1
  H  652  1  0.62844900  0.55977800  0.70497300  1
  H  653  1  0.57121000  0.57666200  0.69554000  1
  H  654  1  0.56600600  0.52186400  0.62124800  1
  H  655  1  0.53728400  0.54840900  0.61259100  1
  H  656  1  0.54183000  0.60340400  0.68676500  1
  H  682  1  0.61312100  0.15856400  0.45968900  1
  H  683  1  0.62302600  0.12174400  0.45996900  1
  H  684  1  0.52599900  0.13148400  0.42769200  1
  H  685  1  0.53557300  0.09474300  0.42843600  1
  H  686  1  0.53751500  0.08809300  0.46978800  1
  H  687  1  0.53137800  0.09812300  0.51128100  1
  H  688  1  0.62813000  0.10251600  0.52016000  1
  H  689  1  0.63426300  0.09321100  0.47916100  1
  H  690  1  0.62550500  0.04526700  0.44529300  1
  H  691  1  0.67747500  0.03326400  0.43360300  1
  H  692  1  0.68081400  0.07689800  0.40041300  1
  H  693  1  0.62845100  0.08806000  0.41110300  1
  H  694  1  0.57118000  0.06175000  0.39423800  1
  H  695  1  0.56601300  0.04227300  0.44905000  1
  H  696  1  0.53727500  0.00707700  0.42252400  1
  H  697  1  0.54178600  0.02623200  0.36751100  1
  H  723  1  0.61311400  0.24406500  0.81232300  1
  H  724  1  0.62302100  0.28115100  0.84915100  1
  H  725  1  0.52600300  0.23911800  0.83939900  1
  H  726  1  0.53558000  0.27659100  0.87615200  1
  H  727  1  0.53749400  0.32459700  0.88285000  1
  H  728  1  0.53131600  0.35604500  0.87280400  1
  H  729  1  0.62805900  0.36055600  0.86837400  1
  H  730  1  0.63423000  0.32887400  0.87769300  1
  H  731  1  0.62551200  0.34293100  0.92564100  1
  H  732  1  0.67749100  0.34324300  0.93762900  1
  H  733  1  0.68083700  0.26641700  0.89397400  1
  H  734  1  0.62846500  0.26594700  0.88283000  1
  H  735  1  0.57121300  0.27536500  0.90913200  1
  H  736  1  0.56604100  0.34966300  0.92867300  1
  H  737  1  0.53732300  0.35830600  0.96387200  1
  H  738  1  0.54183300  0.28411800  0.94464100  1
  H  764  1  0.88652100  0.15892700  0.72625500  1
  H  765  1  0.87667600  0.12218300  0.68906600  1
  H  766  1  0.97241300  0.13091500  0.73229500  1
  H  767  1  0.96293000  0.09425700  0.69475600  1
  H  768  1  0.96148200  0.08947400  0.64687000  1
  H  769  1  0.96768700  0.09945700  0.61537200  1
  H  770  1  0.87090300  0.10181200  0.60936000  1
  H  771  1  0.86467700  0.09246400  0.64099800  1
  H  772  1  0.87454900  0.04462500  0.62758000  1
  H  773  1  0.82259300  0.03227000  0.62678000  1
  H  774  1  0.81734900  0.07736900  0.70337400  1
  H  775  1  0.86960300  0.08889200  0.70436800  1
  H  776  1  0.92564900  0.06079800  0.69464300  1
  H  777  1  0.93593900  0.04350400  0.62127000  1
  H  778  1  0.96618100  0.00917800  0.61311000  1
  H  779  1  0.95566500  0.02565700  0.68616400  1
  H  805  1  0.88653800  0.24461700  0.46065700  1
  H  806  1  0.87667300  0.28180400  0.46110500  1
  H  807  1  0.97243100  0.23860500  0.42661600  1
  H  808  1  0.96292700  0.27614200  0.42749800  1
  H  809  1  0.96146500  0.32403200  0.47061200  1
  H  810  1  0.96765400  0.35554400  0.51208800  1
  H  811  1  0.87086800  0.36152600  0.52044200  1
  H  812  1  0.86465400  0.32987600  0.47946200  1
  H  813  1  0.87452500  0.34330500  0.44505000  1
  H  814  1  0.82255800  0.34409800  0.43349800  1
  H  815  1  0.81732500  0.26750800  0.40202300  1
  H  816  1  0.86958200  0.26651500  0.41253700  1
  H  817  1  0.92566400  0.27625600  0.39414900  1
  H  818  1  0.93589800  0.34962400  0.45026400  1
  H  819  1  0.96615700  0.35781300  0.42412700  1
  H  820  1  0.95569500  0.28477100  0.36751400  1
  H  846  1  0.88655600  0.51020900  0.81196100  1
  H  847  1  0.87669800  0.50976600  0.84870300  1
  H  848  1  0.97244300  0.54426200  0.83998500  1
  H  849  1  0.96294600  0.54338700  0.87664500  1
  H  850  1  0.96149600  0.50028800  0.88144200  1
  H  851  1  0.96769900  0.45881200  0.87147000  1
  H  852  1  0.87091800  0.45043700  0.86909200  1
  H  853  1  0.86468900  0.49141500  0.87842600  1
  H  854  1  0.87457100  0.52586300  0.92628000  1
  H  855  1  0.82258400  0.53740500  0.93862500  1
  H  856  1  0.81732800  0.56883000  0.89346300  1
  H  857  1  0.86958700  0.55832600  0.88196500  1
  H  858  1  0.92564800  0.57674000  0.91007333  1
  H  859  1  0.93595100  0.52065100  0.92737900  1
  H  860  1  0.96620300  0.54681400  0.96170000  1
  H  861  1  0.95567200  0.60339800  0.94523300  1
  H  887  1  0.38661800  0.78357900  0.27298400  1
  H  888  1  0.37673200  0.82030800  0.31017500  1
  H  889  1  0.47249300  0.81164800  0.26699500  1
  H  890  1  0.46296700  0.84829400  0.30453500  1
  H  891  1  0.46150600  0.85304500  0.35240000  1
  H  892  1  0.46772600  0.84304500  0.38388700  1
  H  893  1  0.37094800  0.84067500  0.38990500  1
  H  894  1  0.36470500  0.85003200  0.35827600  1
  H  895  1  0.37456800  0.89788600  0.37167400  1
  H  896  1  0.32258500  0.91022000  0.37247300  1
  H  897  1  0.31733900  0.86504300  0.29588400  1
  H  898  1  0.36959700  0.85355700  0.29489600  1
  H  899  1  0.42562100  0.88172800  0.30463900  1
  H  900  1  0.43597700  0.89898600  0.37800200  1
  H  901  1  0.46622000  0.93331300  0.38616100  1
  H  902  1  0.45563400  0.91687500  0.31312400  1
  H  928  1  0.38662000  0.69789500  0.53859800  1
  H  929  1  0.37673900  0.66070300  0.53813700  1
  H  930  1  0.47249800  0.70388600  0.57265500  1
  H  931  1  0.46297400  0.66634800  0.57176300  1
  H  932  1  0.46151900  0.61848900  0.52865300  1
  H  933  1  0.46774400  0.58699800  0.48716900  1
  H  934  1  0.37096600  0.58096400  0.47877600  1
  H  935  1  0.36471900  0.61259600  0.51976000  1
  H  936  1  0.37457300  0.59919700  0.55418600  1
  H  937  1  0.32258700  0.59839400  0.56571300  1
  H  938  1  0.31734800  0.67499000  0.59718100  1
  H  939  1  0.36961400  0.67597800  0.58668000  1
  H  940  1  0.42564500  0.66624400  0.60509200  1
  H  941  1  0.43599100  0.59287900  0.54898700  1
  H  942  1  0.46623400  0.58471900  0.57515500  1
  H  943  1  0.45566200  0.65775800  0.63175100  1
  H  969  1  0.38657200  0.43227600  0.18730600  1
  H  970  1  0.37669000  0.43274500  0.15057700  1
  H  971  1  0.47246300  0.39824600  0.15924600  1
  H  972  1  0.46293900  0.39914800  0.12260300  1
  H  973  1  0.46146900  0.44225000  0.11784200  1
  H  974  1  0.46767500  0.48373500  0.12784300  1
  H  975  1  0.37089700  0.49212000  0.13023200  1
  H  976  1  0.36466100  0.45113100  0.12086600  1
  H  977  1  0.37452900  0.41672600  0.07303400  1
  H  978  1  0.32255200  0.40517700  0.06068100  1
  H  979  1  0.31731800  0.37366800  0.10577300  1
  H  980  1  0.36958300  0.38418300  0.11727900  1
  H  981  1  0.42562600  0.36580800  0.08915300  1
  H  982  1  0.43593000  0.42193600  0.07192100  1
  H  983  1  0.46619000  0.39579100  0.03759600  1
  H  984  1  0.45566400  0.33917100  0.05401000  1
  H  994  1  0.72308400  0.51869000  0.64588200  1
  H  995  1  0.77750200  0.51911000  0.64586700  1
  H  998  1  0.72008900  0.63965400  0.70672900  1
  H  999  1  0.69487400  0.60229200  0.68809300  1
  H  1009  1  0.72302900  0.07002500  0.45217900  1
  H  1010  1  0.77744900  0.06962400  0.45179400  1
  H  1013  1  0.72015600  0.00991800  0.33121300  1
  H  1014  1  0.69490400  0.02864300  0.36855800  1
  H  1024  1  0.72306100  0.32508100  0.90088000  1
  H  1025  1  0.77748200  0.32511700  0.90131600  1
  H  1028  1  0.72013600  0.26416200  0.96092400  1
  H  1029  1  0.69490000  0.28280000  0.94221000  1
  H  1039  1  0.22304800  0.42384100  0.35337700  1
  H  1040  1  0.27747000  0.42344800  0.35341700  1
  H  1043  1  0.22015000  0.30287400  0.29259000  1
  H  1044  1  0.19490500  0.34022400  0.31117300  1
  H  1054  1  0.22301100  0.87238000  0.54703600  1
  H  1055  1  0.27743500  0.87279700  0.54742200  1
  H  1058  1  0.22013200  0.93261600  0.66800200  1
  H  1059  1  0.19488200  0.91382700  0.63065300  1
  H  1069  1  0.22302900  0.61757800  0.09851900  1
  H  1070  1  0.27745400  0.61755000  0.09809600  1
  H  1073  1  0.22012000  0.67832800  0.03830400  1
  H  1074  1  0.19488000  0.65974000  0.05706800  1
  H  1084  1  0.27616100  0.87434900  0.35598100  1
  H  1085  1  0.22174300  0.87478300  0.35603500  1
  H  1088  1  0.27896600  0.93078100  0.29153200  1
  H  1089  1  0.30423600  0.91317100  0.31123600  1
  H  1099  1  0.27615800  0.61490100  0.54635100  1
  H  1100  1  0.22174600  0.61485500  0.54673600  1
  H  1103  1  0.27898400  0.67932100  0.66723200  1
  H  1104  1  0.30425000  0.65960300  0.62991600  1
  H  1114  1  0.27608700  0.42450000  0.09649800  1
  H  1115  1  0.22167700  0.42408000  0.09603200  1
  H  1118  1  0.27903300  0.30362100  0.04012200  1
  H  1119  1  0.30426200  0.34095200  0.05769800  1
  H  1129  1  0.77616500  0.06809200  0.64327100  1
  H  1130  1  0.72174900  0.06768800  0.64324900  1
  H  1133  1  0.77899200  0.01165600  0.70771600  1
  H  1134  1  0.80425600  0.02925300  0.68799400  1
  H  1144  1  0.77614000  0.32761300  0.45285200  1
  H  1145  1  0.72172200  0.32766400  0.45247300  1
  H  1148  1  0.77894800  0.26316000  0.33197000  1
  H  1149  1  0.80421700  0.28287300  0.36928500  1
  H  1159  1  0.77616800  0.51803200  0.90275900  1
  H  1160  1  0.72174700  0.51840700  0.90317800  1
  H  1163  1  0.77896400  0.63891500  0.95922100  1
  H  1164  1  0.80423700  0.60160100  0.94160800  1
  H  1174  1  0.94644700  0.49260400  0.77904300  1
  H  1175  1  0.94626400  0.49292300  0.74153300  1
  H  1178  1  0.90447500  0.60893400  0.83897300  1
  H  1179  1  0.91825600  0.57329000  0.83841800  1
  H  1189  1  0.94645800  0.22930800  0.47826500  1
  H  1190  1  0.94627800  0.19147500  0.47794100  1
  H  1193  1  0.90445500  0.17292000  0.36194200  1
  H  1194  1  0.91824600  0.20800500  0.39758600  1
  H  1204  1  0.94638400  0.19186400  0.74157300  1
  H  1205  1  0.94623600  0.22936500  0.77940700  1
  H  1208  1  0.90442400  0.13192300  0.79796500  1
  H  1209  1  0.91819700  0.13248200  0.76287600  1
  H  1219  1  0.44640800  0.44989000  0.22020800  1
  H  1220  1  0.44625300  0.44956900  0.25771000  1
  H  1223  1  0.40451900  0.33354700  0.16027500  1
  H  1224  1  0.41828900  0.36919300  0.16082900  1
  H  1234  1  0.44650000  0.71320600  0.52100500  1
  H  1235  1  0.44632000  0.75103300  0.52133000  1
  H  1238  1  0.40444000  0.76957100  0.63730900  1
  H  1239  1  0.41827200  0.73449200  0.60167200  1
  H  1249  1  0.44651400  0.75068300  0.25768600  1
  H  1250  1  0.44634100  0.71318000  0.21985800  1
  H  1253  1  0.40442600  0.81061200  0.20131300  1
  H  1254  1  0.41826100  0.81005900  0.23639600  1
  H  1264  1  0.05235300  0.71335500  0.22034200  1
  H  1265  1  0.05273400  0.75121000  0.25781700  1
  H  1268  1  0.09493900  0.76939100  0.16021500  1
  H  1269  1  0.08063800  0.73442900  0.16084100  1
  H  1279  1  0.05239200  0.75053500  0.52099000  1
  H  1280  1  0.05277500  0.71306800  0.52139200  1
  H  1283  1  0.09490900  0.81071800  0.63717400  1
  H  1284  1  0.08063600  0.81007000  0.60156900  1
  H  1294  1  0.05244500  0.44991000  0.25755600  1
  H  1295  1  0.05283800  0.44953000  0.21969400  1
  H  1298  1  0.09489500  0.33370800  0.20149700  1
  H  1299  1  0.08066400  0.36931200  0.23646700  1
  H  1309  1  0.55244600  0.22919500  0.77892100  1
  H  1310  1  0.55283000  0.19132800  0.74144500  1
  H  1313  1  0.59493100  0.17316400  0.83908400  1
  H  1314  1  0.58070000  0.20812900  0.83844100  1
  H  1324  1  0.55244900  0.19195700  0.47824800  1
  H  1325  1  0.55278800  0.22943300  0.47786200  1
  H  1328  1  0.59494800  0.13183500  0.36205700  1
  H  1329  1  0.58071800  0.13246100  0.39765800  1
  H  1339  1  0.55243700  0.49265200  0.74172800  1
  H  1340  1  0.55280000  0.49303900  0.77958600  1
  H  1343  1  0.59487800  0.60885000  0.79777900  1
  H  1344  1  0.58063700  0.57324700  0.76281000  1
  H  1354  1  0.05309200  0.59631300  0.62648000  1
  H  1355  1  0.02310000  0.57844900  0.64490400  1
  H  1358  1  0.92850600  0.64946000  0.61355800  1
  H  1359  1  0.98113400  0.64202600  0.60919900  1
  H  1369  1  0.05309400  0.97305200  0.37454800  1
  H  1370  1  0.02308300  0.00933700  0.39244500  1
  H  1373  1  0.92849400  0.90697600  0.32141800  1
  H  1374  1  0.98112700  0.91005400  0.32883900  1
  H  1384  1  0.05304800  0.34435600  0.99785800  1
  H  1385  1  0.02305800  0.32592500  0.96156200  1
  H  1388  1  0.92841900  0.35738700  0.06392500  1
  H  1389  1  0.98105900  0.36170900  0.06085100  1
  H  1399  1  0.55309500  0.34624400  0.37279900  1
  H  1400  1  0.52308900  0.36408800  0.35434500  1
  H  1403  1  0.42851700  0.29308400  0.38573100  1
  H  1404  1  0.48113300  0.30055700  0.39012500  1
  H  1414  1  0.55310000  0.96945700  0.62462600  1
  H  1415  1  0.52308500  0.93315900  0.60672000  1
  H  1418  1  0.42853500  0.03551400  0.67787400  1
  H  1419  1  0.48114900  0.03243900  0.67039600  1
  H  1429  1  0.55310200  0.59806900  0.00144800  1
  H  1430  1  0.52308900  0.61649900  0.03775400  1
  H  1433  1  0.42852100  0.58521100  0.93538200  1
  H  1434  1  0.48113500  0.58080300  0.93845400  1
  H  1444  1  0.94612000  0.34690100  0.37306500  1
  H  1445  1  0.97655300  0.36467300  0.35476200  1
  H  1448  1  0.06986100  0.29286100  0.38592400  1
  H  1449  1  0.01732500  0.30067600  0.39032300  1
  H  1459  1  0.94614200  0.96905400  0.62403700  1
  H  1460  1  0.97655400  0.93298200  0.60629100  1
  H  1463  1  0.06988600  0.03596600  0.67800500  1
  H  1464  1  0.01734100  0.03254300  0.67022400  1
  H  1474  1  0.94614400  0.59785400  0.00182500  1
  H  1475  1  0.97655600  0.61617800  0.03789900  1
  H  1478  1  0.06989800  0.58492400  0.93492300  1
  H  1479  1  0.01735100  0.58056700  0.93834200  1
  H  1489  1  0.44615900  0.59563200  0.62621300  1
  H  1490  1  0.47658700  0.57789800  0.64454200  1
  H  1493  1  0.56988500  0.64962000  0.61326500  1
  H  1494  1  0.51734300  0.64182900  0.60890500  1
  H  1504  1  0.44612200  0.97345000  0.37524600  1
  H  1505  1  0.47654500  0.00952100  0.39301400  1
  H  1508  1  0.56986200  0.90654900  0.32123900  1
  H  1509  1  0.51731700  0.90997000  0.32902600  1
  H  1519  1  0.44616300  0.34470700  0.99742100  1
  H  1520  1  0.47659800  0.32634000  0.96135500  1
  H  1523  1  0.56985000  0.35765000  0.06438700  1
  H  1524  1  0.51731700  0.36204200  0.06094600  1
  H  1534  1  0.94212200  0.40403900  0.53006400  1
  H  1535  1  0.94224900  0.44143800  0.56756200  1
  H  1538  1  0.88423200  0.34696000  0.58494000  1
  H  1539  1  0.90168200  0.34667200  0.55013000  1
  H  1549  1  0.94216600  0.06895000  0.56686600  1
  H  1550  1  0.94227400  0.06905500  0.52946900  1
  H  1553  1  0.88418300  0.18087300  0.62395100  1
  H  1554  1  0.90168600  0.14636200  0.62423800  1
  H  1564  1  0.94220100  0.44080700  0.90196200  1
  H  1565  1  0.94237100  0.40330000  0.90183800  1
  H  1568  1  0.88418900  0.38595900  0.79004500  1
  H  1569  1  0.90166300  0.42076400  0.82455800  1
  H  1579  1  0.44221300  0.53848000  0.46915300  1
  H  1580  1  0.44234400  0.50109800  0.43165900  1
  H  1583  1  0.38418200  0.59555600  0.41431800  1
  H  1584  1  0.40170900  0.59585100  0.44911300  1
  H  1594  1  0.44218300  0.87352700  0.43240000  1
  H  1595  1  0.44232400  0.87339500  0.46977300  1
  H  1598  1  0.38413400  0.76162200  0.37528600  1
  H  1599  1  0.40167000  0.79612800  0.37500700  1
  H  1609  1  0.44215700  0.50174900  0.09736000  1
  H  1610  1  0.44227500  0.53924600  0.09747000  1
  H  1613  1  0.38416400  0.55658000  0.20928300  1
  H  1614  1  0.40165800  0.52178200  0.17477000  1
  H  1624  1  0.05692000  0.87370200  0.46940000  1
  H  1625  1  0.05683400  0.87332100  0.43176800  1
  H  1628  1  0.11468500  0.76170200  0.41513100  1
  H  1629  1  0.09699200  0.79626300  0.44977600  1
  H  1639  1  0.05700500  0.50149700  0.43230900  1
  H  1640  1  0.05688700  0.53913300  0.46956100  1
  H  1643  1  0.11465500  0.55579700  0.37457200  1
  H  1644  1  0.09703800  0.52113700  0.37449600  1
  H  1654  1  0.05704200  0.53857700  0.09711700  1
  H  1655  1  0.05697300  0.50130800  0.09747400  1
  H  1658  1  0.11456900  0.59630500  0.20919600  1
  H  1659  1  0.09697300  0.59638800  0.17461100  1
  H  1669  1  0.55705000  0.06881200  0.52985500  1
  H  1670  1  0.55697600  0.06918900  0.56749100  1
  H  1673  1  0.61470700  0.18084700  0.58414900  1
  H  1674  1  0.59706700  0.14626900  0.54949400  1
  H  1684  1  0.55701300  0.44104100  0.56696900  1
  H  1685  1  0.55690700  0.40340300  0.52972100  1
  H  1688  1  0.61469300  0.38675100  0.62470900  1
  H  1689  1  0.59705100  0.42140500  0.62478800  1
  H  1699  1  0.55699300  0.40395400  0.90208900  1
  H  1700  1  0.55690500  0.44119300  0.90169700  1
  H  1703  1  0.61471100  0.34619200  0.79007600  1
  H  1704  1  0.59702600  0.34611800  0.82464300  1
  C  1  1  0.96360700  0.57832500  0.64938400  1
  C  2  1  0.95646800  0.55441600  0.63072900  1
  C  3  1  0.93983400  0.53856100  0.63603500  1
  C  4  1  0.93012500  0.54553300  0.66017500  1
  C  5  1  0.93626300  0.57017000  0.67840800  1
  C  6  1  0.95338200  0.58611600  0.67336900  1
  C  7  1  0.90968400  0.52908500  0.66567700  1
  C  8  1  0.87769700  0.53991000  0.66650300  1
  C  9  1  0.86105100  0.55467500  0.68849400  1
  C  10  1  0.83024200  0.56162100  0.68828100  1
  C  11  1  0.81546000  0.55552500  0.66604200  1
  C  12  1  0.83282800  0.54344900  0.64425600  1
  C  13  1  0.86346100  0.53629900  0.64463600  1
  C  14  1  0.91269400  0.50188900  0.64657900  1
  C  15  1  0.91778500  0.52852600  0.68898800  1
  C  16  1  0.89669700  0.51799900  0.69841500  1
  C  17  1  0.90218200  0.51818600  0.72041500  1
  C  18  1  0.92991400  0.52789200  0.73335000  1
  C  19  1  0.95260400  0.53614000  0.72314000  1
  C  20  1  0.94666000  0.53619600  0.70123600  1
  C  21  1  0.94235400  0.49081800  0.63960200  1
  C  22  1  0.94614700  0.46627400  0.62119900  1
  C  23  1  0.92019600  0.45137700  0.60976700  1
  C  24  1  0.89051700  0.46150000  0.61764100  1
  C  25  1  0.88695900  0.48602900  0.63606500  1
  C  42  1  0.96357500  0.01393000  0.39259600  1
  C  43  1  0.95642900  0.01919400  0.41650500  1
  C  44  1  0.93981300  0.04036800  0.43235600  1
  C  45  1  0.93011300  0.05753600  0.42538200  1
  C  46  1  0.93623500  0.05110300  0.40073400  1
  C  47  1  0.95336300  0.03011800  0.38479500  1
  C  48  1  0.90966400  0.07948200  0.44181600  1
  C  49  1  0.87767400  0.06948500  0.43100000  1
  C  50  1  0.86103100  0.07669700  0.41622100  1
  C  51  1  0.83022000  0.06954200  0.40928000  1
  C  52  1  0.81544300  0.05341900  0.41540200  1
  C  53  1  0.83280300  0.04370200  0.42747500  1
  C  54  1  0.86343800  0.05123200  0.43461800  1
  C  55  1  0.91268100  0.08758800  0.46901200  1
  C  56  1  0.91776400  0.10334100  0.44235500  1
  C  57  1  0.89668400  0.12330100  0.45288100  1
  C  58  1  0.90217900  0.14511800  0.45270500  1
  C  59  1  0.92990300  0.14833100  0.44297800  1
  C  60  1  0.95258000  0.12986200  0.43471400  1
  C  61  1  0.94664300  0.10791700  0.43468700  1
  C  62  1  0.94234400  0.09169600  0.48008300  1
  C  63  1  0.94614700  0.09784300  0.50462700  1
  C  64  1  0.92020300  0.10131300  0.51953100  1
  C  65  1  0.89052000  0.09905700  0.50941300  1
  C  66  1  0.88695300  0.09294600  0.48488100  1
  C  83  1  0.96357500  0.32147900  0.95695900  1
  C  84  1  0.95643900  0.34014400  0.95171900  1
  C  85  1  0.93983600  0.33484500  0.93054700  1
  C  86  1  0.93012800  0.31071000  0.91336000  1
  C  87  1  0.93623000  0.29247900  0.91977300  1
  C  88  1  0.95336000  0.29749500  0.94074700  1
  C  89  1  0.90968900  0.30522400  0.89141700  1
  C  90  1  0.87769200  0.30441800  0.90140900  1
  C  91  1  0.86103300  0.28243400  0.89419700  1
  C  92  1  0.83022400  0.28266300  0.90136500  1
  C  93  1  0.81545600  0.30490800  0.91750600  1
  C  94  1  0.83283700  0.32668700  0.92720200  1
  C  95  1  0.86346900  0.32629200  0.91966300  1
  C  96  1  0.91273300  0.32432300  0.88332400  1
  C  97  1  0.91778500  0.28190700  0.86755100  1
  C  98  1  0.89670700  0.27247500  0.84759200  1
  C  99  1  0.90220900  0.25049000  0.82576900  1
  C  100  1  0.92993000  0.23754700  0.82255900  1
  C  101  1  0.95261200  0.24775600  0.84102100  1
  C  102  1  0.94666800  0.26966700  0.86297300  1
  C  103  1  0.94240600  0.33129400  0.87924700  1
  C  104  1  0.94623400  0.34967200  0.87307600  1
  C  105  1  0.92030400  0.36110900  0.86959500  1
  C  106  1  0.89061000  0.35325800  0.87184500  1
  C  107  1  0.88702000  0.33484000  0.87795600  1
  C  124  1  0.46359700  0.36420500  0.34988800  1
  C  125  1  0.45643300  0.38811000  0.36853900  1
  C  126  1  0.43981600  0.40396300  0.36322000  1
  C  127  1  0.43012100  0.39698600  0.33907500  1
  C  128  1  0.43627000  0.37234900  0.32085200  1
  C  129  1  0.45339700  0.35641100  0.32589600  1
  C  130  1  0.40969500  0.41344500  0.33357900  1
  C  131  1  0.37769900  0.40264100  0.33277100  1
  C  132  1  0.36106400  0.38784000  0.31078200  1
  C  133  1  0.33024100  0.38092700  0.31100700  1
  C  134  1  0.31545500  0.38704900  0.33325300  1
  C  135  1  0.33281500  0.39916500  0.35503900  1
  C  136  1  0.36345800  0.40628400  0.35464800  1
  C  137  1  0.41274000  0.44064100  0.35266300  1
  C  138  1  0.41779900  0.41397800  0.31025700  1
  C  139  1  0.39672200  0.42448600  0.30080500  1
  C  140  1  0.40222800  0.42429500  0.27880500  1
  C  141  1  0.42997800  0.41459700  0.26589200  1
  C  142  1  0.45266300  0.40637800  0.27613200  1
  C  143  1  0.44669900  0.40633700  0.29804000  1
  C  144  1  0.44241400  0.45168900  0.35962900  1
  C  145  1  0.44623900  0.47622800  0.37803100  1
  C  146  1  0.42030900  0.49115200  0.38945800  1
  C  147  1  0.39061500  0.48105300  0.38160000  1
  C  148  1  0.38702500  0.45652400  0.36318200  1
  C  165  1  0.46356700  0.92857400  0.60660100  1
  C  166  1  0.45640100  0.92328800  0.58268500  1
  C  167  1  0.43977900  0.90211100  0.56685500  1
  C  168  1  0.43008900  0.88496200  0.57386000  1
  C  169  1  0.43624200  0.89140600  0.59850500  1
  C  170  1  0.45336000  0.91240400  0.61442700  1
  C  171  1  0.40966700  0.86299800  0.55741800  1
  C  172  1  0.37767100  0.87298800  0.56822000  1
  C  173  1  0.36104100  0.86580200  0.58302700  1
  C  174  1  0.33022700  0.87295600  0.58996500  1
  C  175  1  0.31543000  0.88905600  0.58381600  1
  C  176  1  0.33277600  0.89873200  0.57170200  1
  C  177  1  0.36340700  0.89120100  0.56455500  1
  C  178  1  0.41271300  0.85486400  0.53021600  1
  C  179  1  0.41778300  0.83915300  0.55690800  1
  C  180  1  0.39671500  0.81918600  0.54638800  1
  C  181  1  0.40223100  0.79737500  0.54657400  1
  C  182  1  0.42996900  0.79417200  0.55629300  1
  C  183  1  0.45263500  0.81264900  0.56454400  1
  C  184  1  0.44667600  0.83459000  0.56456700  1
  C  185  1  0.44238800  0.85077100  0.51916800  1
  C  186  1  0.44621900  0.84462700  0.49462800  1
  C  187  1  0.42029300  0.84112300  0.47969600  1
  C  188  1  0.39059900  0.84338200  0.48980000  1
  C  189  1  0.38700400  0.84950200  0.51433000  1
  C  206  1  0.46358100  0.62094500  0.04232800  1
  C  207  1  0.45640800  0.60230600  0.04759500  1
  C  208  1  0.43979500  0.60764100  0.06877400  1
  C  209  1  0.43009400  0.63178900  0.08592200  1
  C  210  1  0.43624900  0.65000300  0.07949700  1
  C  211  1  0.45338300  0.64494100  0.05851100  1
  C  212  1  0.40966700  0.63731800  0.10788700  1
  C  213  1  0.37767600  0.63814200  0.09789700  1
  C  214  1  0.36104500  0.66013600  0.10509800  1
  C  215  1  0.33022700  0.65992500  0.09795400  1
  C  216  1  0.31543600  0.63768100  0.08183000  1
  C  217  1  0.33278700  0.61589100  0.07213400  1
  C  218  1  0.36341400  0.61627000  0.07967100  1
  C  219  1  0.41268700  0.61823900  0.11600900  1
  C  220  1  0.41779000  0.66064100  0.13173700  1
  C  221  1  0.39673100  0.67008000  0.15171000  1
  C  222  1  0.40224400  0.69208200  0.17351500  1
  C  223  1  0.42998500  0.70500000  0.17671900  1
  C  224  1  0.45265600  0.69476900  0.15824500  1
  C  225  1  0.44668700  0.67285700  0.13630200  1
  C  226  1  0.44235100  0.61126100  0.12009400  1
  C  227  1  0.44615900  0.59287400  0.12625500  1
  C  228  1  0.42021600  0.58144700  0.12974000  1
  C  229  1  0.39053200  0.58930900  0.12748000  1
  C  230  1  0.38696200  0.60772700  0.12136800  1
  C  247  1  0.03422800  0.92776100  0.34981800  1
  C  248  1  0.04015500  0.92196800  0.36827900  1
  C  249  1  0.05757800  0.90121800  0.36321400  1
  C  250  1  0.06905700  0.88482800  0.33940600  1
  C  251  1  0.06414900  0.89181800  0.32144900  1
  C  252  1  0.04668000  0.91260300  0.32633200  1
  C  253  1  0.08956400  0.86290100  0.33393800  1
  C  254  1  0.12159700  0.87293600  0.33329200  1
  C  255  1  0.13881700  0.86535600  0.31148500  1
  C  256  1  0.16957700  0.87273700  0.31199900  1
  C  257  1  0.18378600  0.88936400  0.33433400  1
  C  258  1  0.16592700  0.89927300  0.35588700  1
  C  259  1  0.13529300  0.89159900  0.35520500  1
  C  260  1  0.08657700  0.85467100  0.35295100  1
  C  261  1  0.08146300  0.83914900  0.31048800  1
  C  262  1  0.10219800  0.81897700  0.30126000  1
  C  263  1  0.09673300  0.79722600  0.27919300  1
  C  264  1  0.06934300  0.79428600  0.26595700  1
  C  265  1  0.04696600  0.81300300  0.27591100  1
  C  266  1  0.05289500  0.83489500  0.29788300  1
  C  267  1  0.05695900  0.84994000  0.35945300  1
  C  268  1  0.05310100  0.84380900  0.37785800  1
  C  269  1  0.07900100  0.84091200  0.38971800  1
  C  270  1  0.10870200  0.84367100  0.38225300  1
  C  271  1  0.11231100  0.84982200  0.36386700  1
  C  288  1  0.03424200  0.62106700  0.60593700  1
  C  289  1  0.04017100  0.60261100  0.58168200  1
  C  290  1  0.05758700  0.60768200  0.56599800  1
  C  291  1  0.06906400  0.63149200  0.57342200  1
  C  292  1  0.06415100  0.64944600  0.59837000  1
  C  293  1  0.04668900  0.64455500  0.61426900  1
  C  294  1  0.08957100  0.63696600  0.55696900  1
  C  295  1  0.12160400  0.63760200  0.56764600  1
  C  296  1  0.13882800  0.65940500  0.58188500  1
  C  297  1  0.16959600  0.65887700  0.58872900  1
  C  298  1  0.18379300  0.63653900  0.58302200  1
  C  299  1  0.16592500  0.61499000  0.57137200  1
  C  300  1  0.13529600  0.61568200  0.56438300  1
  C  301  1  0.08658800  0.61796200  0.52972200  1
  C  302  1  0.08147600  0.66042300  0.55667800  1
  C  303  1  0.10222600  0.66966700  0.54575700  1
  C  304  1  0.09674900  0.69172400  0.54605500  1
  C  305  1  0.06936000  0.70495800  0.55635000  1
  C  306  1  0.04698000  0.69499800  0.56510500  1
  C  307  1  0.05290900  0.67302400  0.56502300  1
  C  308  1  0.05697300  0.61147100  0.51848700  1
  C  309  1  0.05312200  0.59304400  0.49395700  1
  C  310  1  0.07902400  0.58119400  0.47920000  1
  C  311  1  0.10872300  0.58867300  0.48942300  1
  C  312  1  0.11232700  0.60706800  0.51395600  1
  C  329  1  0.03418400  0.36492400  0.04314100  1
  C  330  1  0.04010400  0.38917700  0.04892700  1
  C  331  1  0.05754500  0.40486400  0.06966700  1
  C  332  1  0.06903600  0.39745200  0.08605700  1
  C  333  1  0.06412100  0.37251000  0.07908100  1
  C  334  1  0.04664500  0.35660300  0.05830100  1
  C  335  1  0.08957100  0.41390700  0.10796700  1
  C  336  1  0.12158800  0.40320200  0.09790900  1
  C  337  1  0.13881200  0.38897300  0.10548500  1
  C  338  1  0.16957300  0.38211100  0.09809600  1
  C  339  1  0.18376500  0.38777200  0.08143000  1
  C  340  1  0.16587600  0.39938900  0.07150400  1
  C  341  1  0.13527300  0.40644000  0.07923700  1
  C  342  1  0.08661400  0.44115000  0.11618400  1
  C  343  1  0.08149500  0.41423700  0.13173600  1
  C  344  1  0.10227200  0.42515800  0.15188300  1
  C  345  1  0.09683300  0.42485900  0.17364400  1
  C  346  1  0.06944700  0.41458000  0.17661300  1
  C  347  1  0.04703500  0.40583300  0.15792200  1
  C  348  1  0.05294600  0.40587900  0.13601000  1
  C  349  1  0.05701000  0.45240600  0.12094000  1
  C  350  1  0.05318400  0.47693600  0.12703600  1
  C  351  1  0.07910300  0.49166300  0.12990100  1
  C  352  1  0.10879200  0.48142900  0.12716600  1
  C  353  1  0.11237100  0.45689300  0.12102500  1
  C  370  1  0.53423400  0.01475900  0.64938900  1
  C  371  1  0.54020700  0.02056100  0.63094000  1
  C  372  1  0.55762700  0.04132000  0.63603300  1
  C  373  1  0.56906300  0.05771600  0.65985400  1
  C  374  1  0.56412700  0.05070300  0.67779400  1
  C  375  1  0.54665300  0.02991100  0.67288500  1
  C  376  1  0.58960700  0.07962800  0.66533800  1
  C  377  1  0.62162400  0.06957200  0.66598700  1
  C  378  1  0.63882300  0.07712600  0.68779900  1
  C  379  1  0.66958100  0.06974500  0.68728600  1
  C  380  1  0.68380100  0.05309900  0.66495900  1
  C  381  1  0.66593300  0.04318800  0.64340700  1
  C  382  1  0.63532700  0.05091500  0.64407800  1
  C  383  1  0.58665200  0.08786000  0.64632400  1
  C  384  1  0.58152900  0.10338400  0.68878700  1
  C  385  1  0.60230100  0.12353200  0.69802400  1
  C  386  1  0.59685000  0.14529600  0.72008400  1
  C  387  1  0.56946300  0.14825600  0.73332500  1
  C  388  1  0.54706400  0.12955400  0.72337900  1
  C  389  1  0.55297000  0.10765500  0.70140700  1
  C  390  1  0.55704600  0.09261700  0.63982600  1
  C  391  1  0.55321500  0.09873600  0.62140900  1
  C  392  1  0.57913400  0.10160700  0.60955000  1
  C  393  1  0.60882400  0.09886100  0.61703900  1
  C  394  1  0.61240500  0.09271600  0.63543100  1
  C  411  1  0.53422700  0.32151200  0.39337500  1
  C  412  1  0.54019100  0.33996400  0.41762600  1
  C  413  1  0.55760400  0.33487400  0.43329800  1
  C  414  1  0.56904200  0.31105300  0.42587600  1
  C  415  1  0.56411500  0.29311300  0.40092500  1
  C  416  1  0.54665100  0.29801600  0.38503400  1
  C  417  1  0.58957000  0.30557200  0.44231300  1
  C  418  1  0.62159400  0.30492800  0.43162200  1
  C  419  1  0.63879700  0.28311900  0.41736500  1
  C  420  1  0.66955800  0.28363600  0.41049900  1
  C  421  1  0.68377100  0.30596400  0.41618300  1
  C  422  1  0.66590100  0.32751500  0.42782700  1
  C  423  1  0.63529700  0.32684000  0.43488100  1
  C  424  1  0.58659700  0.32458200  0.46955800  1
  C  425  1  0.58148000  0.28212100  0.44261300  1
  C  426  1  0.60223900  0.27287200  0.45352100  1
  C  427  1  0.59676900  0.25081700  0.45322900  1
  C  428  1  0.56938600  0.23757400  0.44292400  1
  C  429  1  0.54699300  0.24753800  0.43418400  1
  C  430  1  0.55291700  0.26950900  0.43426100  1
  C  431  1  0.55698300  0.33108000  0.48079800  1
  C  432  1  0.55313400  0.34948500  0.50533600  1
  C  433  1  0.57904200  0.36134700  0.52007900  1
  C  434  1  0.60874100  0.35386700  0.50985700  1
  C  435  1  0.61233800  0.33548000  0.48532000  1
  C  452  1  0.53422300  0.57750900  0.95614200  1
  C  453  1  0.54019300  0.55325800  0.95033400  1
  C  454  1  0.55761400  0.53759500  0.92957200  1
  C  455  1  0.56906500  0.54503700  0.91319200  1
  C  456  1  0.56411800  0.56998300  0.92020100  1
  C  457  1  0.54664700  0.58586400  0.94099800  1
  C  458  1  0.58958000  0.52859100  0.89126500  1
  C  459  1  0.62160300  0.53928100  0.90131200  1
  C  460  1  0.63880200  0.55355200  0.89377300  1
  C  461  1  0.66957400  0.56038800  0.90113300  1
  C  462  1  0.68379200  0.55469600  0.91777100  1
  C  463  1  0.66592600  0.54303500  0.92766200  1
  C  464  1  0.63531100  0.53600900  0.91995600  1
  C  465  1  0.58659900  0.50134400  0.88301700  1
  C  466  1  0.58148500  0.52830300  0.86752000  1
  C  467  1  0.60224100  0.51739800  0.84736000  1
  C  468  1  0.59676900  0.51771000  0.82560800  1
  C  469  1  0.56936600  0.52798900  0.82266500  1
  C  470  1  0.54697000  0.53671400  0.84136700  1
  C  471  1  0.55291300  0.53664600  0.86326400  1
  C  472  1  0.55698300  0.49010700  0.87827300  1
  C  473  1  0.55312800  0.46557700  0.87216400  1
  C  474  1  0.57903000  0.45082800  0.86927500  1
  C  475  1  0.60873400  0.46104600  0.87201600  1
  C  476  1  0.61233800  0.48558200  0.87816300  1
  C  493  1  0.03609600  0.36442100  0.35033400  1
  C  494  1  0.04356500  0.38825300  0.36898800  1
  C  495  1  0.06021900  0.40405100  0.36361200  1
  C  496  1  0.06958100  0.39712000  0.33940400  1
  C  497  1  0.06331000  0.37249600  0.32120600  1
  C  498  1  0.04615800  0.35660700  0.32630800  1
  C  499  1  0.08974200  0.41363400  0.33379900  1
  C  500  1  0.12184000  0.40298000  0.33294000  1
  C  501  1  0.13822600  0.38792500  0.31088700  1
  C  502  1  0.16907400  0.38097500  0.31098100  1
  C  503  1  0.18426900  0.38766600  0.33321700  1
  C  504  1  0.16718300  0.40007000  0.35511900  1
  C  505  1  0.13644100  0.40703500  0.35483600  1
  C  506  1  0.08662300  0.44083600  0.35285400  1
  C  507  1  0.08144900  0.41411300  0.31047800  1
  C  508  1  0.10233900  0.42473000  0.30101000  1
  C  509  1  0.09652100  0.42479700  0.27917800  1
  C  510  1  0.06874500  0.41506300  0.26632500  1
  C  511  1  0.04649100  0.40626300  0.27632600  1
  C  512  1  0.05259500  0.40625500  0.29823400  1
  C  513  1  0.05693600  0.45175100  0.36023200  1
  C  514  1  0.05317000  0.47625100  0.37876300  1
  C  515  1  0.07912800  0.49129800  0.38982300  1
  C  516  1  0.10876000  0.48140300  0.38131800  1
  C  517  1  0.11229500  0.45687400  0.36289000  1
  C  534  1  0.03607500  0.92880300  0.60655000  1
  C  535  1  0.04352800  0.92365300  0.58272500  1
  C  536  1  0.06016600  0.90248100  0.56689600  1
  C  537  1  0.06955400  0.88519300  0.57380200  1
  C  538  1  0.06331000  0.89159000  0.59842200  1
  C  539  1  0.04615300  0.91256700  0.61433200  1
  C  540  1  0.08969800  0.86306600  0.55727100  1
  C  541  1  0.12180300  0.87284400  0.56791500  1
  C  542  1  0.13819100  0.86582600  0.58295200  1
  C  543  1  0.16904900  0.87285200  0.58988700  1
  C  544  1  0.18423900  0.88841500  0.58321700  1
  C  545  1  0.16715300  0.89793300  0.57083400  1
  C  546  1  0.13640900  0.89069100  0.56387000  1
  C  547  1  0.08656500  0.85494000  0.53007500  1
  C  548  1  0.08138900  0.83926200  0.55677700  1
  C  549  1  0.10226100  0.81916300  0.54613500  1
  C  550  1  0.09643500  0.79726900  0.54608000  1
  C  551  1  0.06866000  0.79416000  0.55582000  1
  C  552  1  0.04641400  0.81296700  0.56462400  1
  C  553  1  0.05253300  0.83488500  0.56463900  1
  C  554  1  0.05687100  0.85142300  0.51917300  1
  C  555  1  0.05309400  0.84542800  0.49466700  1
  C  556  1  0.07904300  0.84143200  0.47960800  1
  C  557  1  0.10867900  0.84282700  0.48949800  1
  C  558  1  0.11222800  0.84893300  0.51402800  1
  C  575  1  0.03607500  0.62063600  0.04208600  1
  C  576  1  0.04353300  0.60196400  0.04724100  1
  C  577  1  0.06018200  0.60731500  0.06840900  1
  C  578  1  0.06955400  0.63151300  0.08569800  1
  C  579  1  0.06330400  0.64973200  0.07929700  1
  C  580  1  0.04613300  0.64465900  0.05832200  1
  C  581  1  0.08970500  0.63711800  0.10782400  1
  C  582  1  0.12180700  0.63798600  0.09804400  1
  C  583  1  0.13820000  0.66004300  0.10507500  1
  C  584  1  0.16904900  0.65995700  0.09803300  1
  C  585  1  0.18424600  0.63772400  0.08249400  1
  C  586  1  0.16717200  0.61581700  0.07299200  1
  C  587  1  0.13639700  0.61609500  0.08017600  1
  C  588  1  0.08658800  0.61805100  0.11595600  1
  C  589  1  0.08139100  0.66043000  0.13162800  1
  C  590  1  0.10226100  0.66989500  0.15172500  1
  C  591  1  0.09643500  0.69173800  0.17361500  1
  C  592  1  0.06864600  0.70457300  0.17672700  1
  C  593  1  0.04640500  0.69456400  0.15791600  1
  C  594  1  0.05252800  0.67266000  0.13600300  1
  C  595  1  0.05690300  0.61066000  0.11948400  1
  C  596  1  0.05315200  0.59210700  0.12542300  1
  C  597  1  0.07911500  0.58107200  0.12943800  1
  C  598  1  0.10873900  0.58959500  0.12806400  1
  C  599  1  0.11226500  0.60802700  0.12196800  1
  C  616  1  0.53610900  0.57816800  0.64899300  1
  C  617  1  0.54355300  0.55433700  0.63032400  1
  C  618  1  0.56019900  0.53851800  0.63567500  1
  C  619  1  0.56958700  0.54543400  0.65987200  1
  C  620  1  0.56335100  0.57005700  0.67808700  1
  C  621  1  0.54619200  0.58596100  0.67301200  1
  C  622  1  0.58973700  0.52891100  0.66547600  1
  C  623  1  0.62184100  0.53955200  0.66633400  1
  C  624  1  0.63824500  0.55458000  0.68838400  1
  C  625  1  0.66909600  0.56151800  0.68828500  1
  C  626  1  0.68427500  0.55484100  0.66604700  1
  C  627  1  0.66718900  0.54243300  0.64414700  1
  C  628  1  0.63641900  0.53552300  0.64443600  1
  C  629  1  0.58661500  0.50171100  0.64641600  1
  C  630  1  0.58142900  0.52843100  0.68879400  1
  C  631  1  0.60230600  0.51780900  0.69826700  1
  C  632  1  0.59646700  0.51774000  0.72009700  1
  C  633  1  0.56869800  0.52749800  0.73295000  1
  C  634  1  0.54645300  0.53629600  0.72294000  1
  C  635  1  0.55257100  0.53629500  0.70103000  1
  C  636  1  0.55692600  0.49079700  0.63904400  1
  C  637  1  0.55316000  0.46630100  0.62050800  1
  C  638  1  0.57911600  0.45124100  0.60946300  1
  C  639  1  0.60874500  0.46114200  0.61795800  1
  C  640  1  0.61228200  0.48566800  0.63639100  1
  C  657  1  0.53608400  0.01370800  0.39275800  1
  C  658  1  0.54352300  0.01888400  0.41659400  1
  C  659  1  0.56019000  0.04004800  0.43239800  1
  C  660  1  0.56957600  0.05732200  0.42547500  1
  C  661  1  0.56332600  0.05090800  0.40085000  1
  C  662  1  0.54617100  0.02992300  0.38495200  1
  C  663  1  0.58974100  0.07944300  0.44198400  1
  C  664  1  0.62183600  0.06964500  0.43132800  1
  C  665  1  0.63823800  0.07666300  0.41629700  1
  C  666  1  0.66908500  0.06961100  0.40934700  1
  C  667  1  0.68426100  0.05403000  0.41600000  1
  C  668  1  0.66715700  0.04452400  0.42839000  1
  C  669  1  0.63641200  0.05177700  0.43535500  1
  C  670  1  0.58663600  0.08758500  0.46918600  1
  C  671  1  0.58144800  0.10324900  0.44247500  1
  C  672  1  0.60234300  0.12333100  0.45308500  1
  C  673  1  0.59653600  0.14522000  0.45312700  1
  C  674  1  0.56875800  0.14833800  0.44339600  1
  C  675  1  0.54649400  0.12954400  0.43460800  1
  C  676  1  0.55260300  0.10762400  0.43459300  1
  C  677  1  0.55695300  0.09112300  0.48011000  1
  C  678  1  0.55319900  0.09711600  0.50461700  1
  C  679  1  0.57916400  0.10109800  0.51965600  1
  C  680  1  0.60879100  0.09969900  0.50975000  1
  C  681  1  0.61231500  0.09358400  0.48521600  1
  C  698  1  0.53611100  0.32189300  0.95719700  1
  C  699  1  0.54356200  0.34056900  0.95204700  1
  C  700  1  0.56020400  0.33522500  0.93087800  1
  C  701  1  0.56957800  0.31103200  0.91357400  1
  C  702  1  0.56335600  0.29281500  0.91998600  1
  C  703  1  0.54619400  0.29787700  0.94096100  1
  C  704  1  0.58974600  0.30544400  0.89146300  1
  C  705  1  0.62184800  0.30458800  0.90124800  1
  C  706  1  0.63825500  0.28253900  0.89422500  1
  C  707  1  0.66910500  0.28263800  0.90126300  1
  C  708  1  0.68427500  0.30487600  0.91683600  1
  C  709  1  0.66717300  0.32677400  0.92636600  1
  C  710  1  0.63642100  0.32648200  0.91912200  1
  C  711  1  0.58661500  0.32451800  0.88334200  1
  C  712  1  0.58145500  0.28213100  0.86765300  1
  C  713  1  0.60234300  0.27267300  0.84756900  1
  C  714  1  0.59653400  0.25083500  0.82566800  1
  C  715  1  0.56876100  0.23797900  0.82254500  1
  C  716  1  0.54651000  0.24796900  0.84135100  1
  C  717  1  0.55261000  0.26987300  0.86327000  1
  C  718  1  0.55692100  0.33188600  0.87980200  1
  C  719  1  0.55314600  0.35040300  0.87381600  1
  C  720  1  0.57909500  0.36146300  0.86981700  1
  C  721  1  0.60873100  0.35297100  0.87121600  1
  C  722  1  0.61227800  0.33455200  0.87732900  1
  C  739  1  0.96443300  0.01449400  0.64901900  1
  C  740  1  0.95822600  0.02020800  0.63054000  1
  C  741  1  0.94079200  0.04096900  0.63565700  1
  C  742  1  0.92962400  0.05748400  0.65953700  1
  C  743  1  0.93460700  0.05046900  0.67746800  1
  C  744  1  0.95210000  0.02968100  0.67254400  1
  C  745  1  0.90935500  0.07956200  0.66511100  1
  C  746  1  0.87723100  0.06972000  0.66581900  1
  C  747  1  0.86025700  0.07714100  0.68770500  1
  C  748  1  0.82946000  0.06987100  0.68731200  1
  C  749  1  0.81486500  0.05372000  0.66498400  1
  C  750  1  0.83248400  0.04394700  0.64331400  1
  C  751  1  0.86320300  0.05139300  0.64388900  1
  C  752  1  0.91239700  0.08781300  0.64611600  1
  C  753  1  0.91763700  0.10326600  0.68855200  1
  C  754  1  0.89709800  0.12356200  0.69779000  1
  C  755  1  0.90288500  0.14541600  0.71968100  1
  C  756  1  0.93026200  0.14824600  0.73289600  1
  C  757  1  0.95218400  0.12918500  0.72318700  1
  C  758  1  0.94611600  0.10731800  0.70122500  1
  C  759  1  0.94204500  0.09206700  0.63925200  1
  C  760  1  0.94584400  0.09802100  0.62071200  1
  C  761  1  0.91989400  0.10136400  0.60919300  1
  C  762  1  0.89022600  0.09941100  0.61726700  1
  C  763  1  0.88667600  0.09326000  0.63565900  1
  C  780  1  0.96443700  0.32191200  0.39352000  1
  C  781  1  0.95821000  0.34037900  0.41771400  1
  C  782  1  0.94076700  0.33524600  0.43334300  1
  C  783  1  0.92959700  0.31135900  0.42594900  1
  C  784  1  0.93461300  0.29343700  0.40100600  1
  C  785  1  0.95211200  0.29838200  0.38516000  1
  C  786  1  0.90933900  0.30577500  0.44245200  1
  C  787  1  0.87721600  0.30506300  0.43189900  1
  C  788  1  0.86025000  0.28317600  0.41742400  1
  C  789  1  0.82943600  0.28357100  0.41058100  1
  C  790  1  0.81483400  0.30589800  0.41676200  1
  C  791  1  0.83244700  0.32757000  0.42866900  1
  C  792  1  0.86317900  0.32699500  0.43551100  1
  C  793  1  0.91237800  0.32476000  0.46970200  1
  C  794  1  0.91763100  0.28233000  0.44270500  1
  C  795  1  0.89709500  0.27308500  0.45375800  1
  C  796  1  0.90288100  0.25118200  0.45369700  1
  C  797  1  0.93027700  0.23798900  0.44333500  1
  C  798  1  0.95220000  0.24770900  0.43399600  1
  C  799  1  0.94611800  0.26967000  0.43409100  1
  C  800  1  0.94202300  0.33162800  0.48082400  1
  C  801  1  0.94581300  0.35019500  0.50530600  1
  C  802  1  0.91985900  0.36170700  0.52016600  1
  C  803  1  0.89019400  0.35361800  0.51013800  1
  C  804  1  0.88665100  0.33522200  0.48560100  1
  C  821  1  0.96443900  0.57741400  0.95639200  1
  C  822  1  0.95823900  0.55321700  0.95067500  1
  C  823  1  0.94080000  0.53757300  0.92991400  1
  C  824  1  0.92961100  0.54495200  0.91341600  1
  C  825  1  0.93461000  0.56989300  0.92042200  1
  C  826  1  0.95210100  0.58575600  0.94121100  1
  C  827  1  0.90936000  0.52843600  0.89133000  1
  C  828  1  0.87723300  0.53898200  0.90116600  1
  C  829  1  0.86026000  0.55344900  0.89374800  1
  C  830  1  0.82946000  0.56032300  0.90101200  1
  C  831  1  0.81485900  0.55412300  0.91714500  1
  C  832  1  0.83247100  0.54222800  0.92692100  1
  C  833  1  0.86319000  0.53536100  0.91948000  1
  C  834  1  0.91240900  0.50118600  0.88307300  1
  C  835  1  0.91765100  0.52817800  0.86762900  1
  C  836  1  0.89711800  0.51711500  0.84733100  1
  C  837  1  0.90290600  0.51716400  0.82548200  1
  C  838  1  0.93029100  0.52753900  0.82265200  1
  C  839  1  0.95220900  0.53689000  0.84171500  1
  C  840  1  0.94613800  0.53679000  0.86357800  1
  C  841  1  0.94205700  0.49007100  0.87882200  1
  C  842  1  0.94585600  0.46558500  0.87289400  1
  C  843  1  0.91990900  0.45071600  0.86953800  1
  C  844  1  0.89024100  0.46074300  0.87148800  1
  C  845  1  0.88668900  0.48528200  0.87763400  1
  C  862  1  0.46442600  0.92801900  0.35026100  1
  C  863  1  0.45824300  0.92229500  0.36873600  1
  C  864  1  0.44081100  0.90153100  0.36362000  1
  C  865  1  0.42961100  0.88504100  0.33974500  1
  C  866  1  0.43458900  0.89205400  0.32181300  1
  C  867  1  0.45207600  0.91284500  0.32674000  1
  C  868  1  0.40937200  0.86294300  0.33415900  1
  C  869  1  0.37723700  0.87276800  0.33344400  1
  C  870  1  0.36026700  0.86533900  0.31155500  1
  C  871  1  0.32945800  0.87258600  0.31194400  1
  C  872  1  0.31485900  0.88873100  0.33427300  1
  C  873  1  0.33246900  0.89852000  0.35594400  1
  C  874  1  0.36318800  0.89107800  0.35537500  1
  C  875  1  0.41242400  0.85468200  0.35314800  1
  C  876  1  0.41768100  0.83925000  0.31071500  1
  C  877  1  0.39717400  0.81893300  0.30147900  1
  C  878  1  0.40297200  0.79709800  0.27957100  1
  C  879  1  0.43035700  0.79428900  0.26637300  1
  C  880  1  0.45225900  0.81336200  0.27609300  1
  C  881  1  0.44616800  0.83522100  0.29805800  1
  C  882  1  0.44207400  0.85043200  0.36000900  1
  C  883  1  0.44587900  0.84447300  0.37854500  1
  C  884  1  0.41993700  0.84111500  0.39006000  1
  C  885  1  0.39026600  0.84308000  0.38199700  1
  C  886  1  0.38670800  0.84923900  0.36361300  1
  C  903  1  0.46444500  0.62062000  0.60576000  1
  C  904  1  0.45825500  0.60214300  0.58156200  1
  C  905  1  0.44081400  0.60725900  0.56591900  1
  C  906  1  0.42962000  0.63113500  0.57330000  1
  C  907  1  0.43460100  0.64906800  0.59824600  1
  C  908  1  0.45209700  0.64414100  0.61410700  1
  C  909  1  0.40938100  0.63672100  0.55678900  1
  C  910  1  0.37724700  0.63743200  0.56732600  1
  C  911  1  0.36026500  0.65931800  0.58177200  1
  C  912  1  0.32946500  0.65893000  0.58864900  1
  C  913  1  0.31486200  0.63659600  0.58243400  1
  C  914  1  0.33246900  0.61492300  0.57053300  1
  C  915  1  0.36321600  0.61549900  0.56372200  1
  C  916  1  0.41243800  0.61773400  0.52954000  1
  C  917  1  0.41768800  0.66016700  0.55654100  1
  C  918  1  0.39717900  0.66940200  0.54546100  1
  C  919  1  0.40296900  0.69131500  0.54554200  1
  C  920  1  0.43035900  0.70451100  0.55592500  1
  C  921  1  0.45225900  0.69479400  0.56528100  1
  C  922  1  0.44617300  0.67282500  0.56517000  1
  C  923  1  0.44208800  0.61087500  0.51843100  1
  C  924  1  0.44589800  0.59232700  0.49394200  1
  C  925  1  0.41995600  0.58081300  0.47906400  1
  C  926  1  0.39028500  0.58887700  0.48909000  1
  C  927  1  0.38672200  0.60726200  0.51363100  1
  C  944  1  0.46442900  0.36517600  0.04287900  1
  C  945  1  0.45821500  0.38937200  0.04860500  1
  C  946  1  0.44076500  0.40500300  0.06936300  1
  C  947  1  0.42958600  0.39760900  0.08585100  1
  C  948  1  0.43458700  0.37266500  0.07883200  1
  C  949  1  0.45208800  0.35681600  0.05804400  1
  C  950  1  0.40933700  0.41410700  0.10794800  1
  C  951  1  0.37720500  0.40356700  0.09811300  1
  C  952  1  0.36022800  0.38910500  0.10553800  1
  C  953  1  0.32942600  0.38224200  0.09828200  1
  C  954  1  0.31482900  0.38844200  0.08214900  1
  C  955  1  0.33243200  0.40035800  0.07239200  1
  C  956  1  0.36317400  0.40717900  0.07979100  1
  C  957  1  0.41238300  0.44136100  0.11622300  1
  C  958  1  0.41764000  0.41434500  0.13163700  1
  C  959  1  0.39711600  0.42539900  0.15194500  1
  C  960  1  0.40291900  0.42533300  0.17378200  1
  C  961  1  0.43030800  0.41494800  0.17659000  1
  C  962  1  0.45221700  0.40560900  0.15752400  1
  C  963  1  0.44613100  0.40572800  0.13567000  1
  C  964  1  0.44203300  0.45247600  0.12048900  1
  C  965  1  0.44583100  0.47696300  0.12641600  1
  C  966  1  0.41988600  0.49183500  0.12977900  1
  C  967  1  0.39021800  0.48180300  0.12781400  1
  C  968  1  0.38666200  0.45726800  0.12167600  1
  C  985  1  0.71690100  0.55725600  0.66539600  1
  C  986  1  0.73298200  0.57999600  0.67696000  1
  C  987  1  0.76612300  0.58026700  0.67673600  1
  C  988  1  0.78283800  0.55778900  0.66520600  1
  C  989  1  0.76623200  0.53558300  0.65372900  1
  C  990  1  0.73397900  0.53531400  0.65376000  1
  C  991  1  0.78046900  0.60361500  0.68792200  1
  C  993  1  0.73218300  0.62360400  0.69874600  1
  C  1000  1  0.71688700  0.05098000  0.41360900  1
  C  1001  1  0.73298900  0.03982200  0.39087700  1
  C  1002  1  0.76613200  0.03934400  0.39062800  1
  C  1003  1  0.78282000  0.05030000  0.41311700  1
  C  1004  1  0.76619500  0.06100900  0.43531300  1
  C  1005  1  0.73394200  0.06129000  0.43556100  1
  C  1006  1  0.78050100  0.02719500  0.36729000  1
  C  1008  1  0.73223400  0.01800900  0.34727100  1
  C  1015  1  0.71690300  0.30553300  0.91989900  1
  C  1016  1  0.73299400  0.29395600  0.93105700  1
  C  1017  1  0.76613500  0.29419400  0.93155500  1
  C  1018  1  0.78283600  0.30575800  0.92063600  1
  C  1019  1  0.76622000  0.31724000  0.90991700  1
  C  1020  1  0.73396800  0.31720400  0.90962100  1
  C  1021  1  0.78049500  0.28299200  0.94369500  1
  C  1023  1  0.73221800  0.27213700  0.95284500  1
  C  1030  1  0.21690000  0.38527200  0.33384300  1
  C  1031  1  0.23299400  0.36253800  0.32230200  1
  C  1032  1  0.26613800  0.36228300  0.32254000  1
  C  1033  1  0.28283300  0.38476900  0.33408700  1
  C  1034  1  0.26621400  0.40696900  0.34554400  1
  C  1035  1  0.23396000  0.40722300  0.34548000  1
  C  1036  1  0.28050100  0.33894300  0.31137500  1
  C  1038  1  0.23223000  0.31893000  0.30054400  1
  C  1045  1  0.21687200  0.89142600  0.58560500  1
  C  1046  1  0.23297100  0.90262500  0.60833700  1
  C  1047  1  0.26611300  0.90311500  0.60858900  1
  C  1048  1  0.28280300  0.89213800  0.58609900  1
  C  1049  1  0.26618000  0.88138400  0.56390200  1
  C  1050  1  0.23392700  0.88109600  0.56365200  1
  C  1051  1  0.28047800  0.91531800  0.63192700  1
  C  1053  1  0.23220900  0.92450600  0.65194400  1
  C  1060  1  0.21687400  0.63708200  0.07945400  1
  C  1061  1  0.23297100  0.64863000  0.06826900  1
  C  1062  1  0.26611500  0.64839600  0.06778100  1
  C  1063  1  0.28281200  0.63687700  0.07874600  1
  C  1064  1  0.26619100  0.62543500  0.08950400  1
  C  1065  1  0.23393900  0.62547500  0.08979800  1
  C  1066  1  0.28047600  0.65955000  0.05559300  1
  C  1068  1  0.23220300  0.67037500  0.04640700  1
  C  1075  1  0.28228100  0.89214600  0.33524400  1
  C  1076  1  0.26616800  0.90267400  0.32306600  1
  C  1077  1  0.23303400  0.90318400  0.32332200  1
  C  1078  1  0.21634800  0.89290200  0.33550800  1
  C  1079  1  0.23298800  0.88293800  0.34770100  1
  C  1080  1  0.26524400  0.88265500  0.34766500  1
  C  1081  1  0.21865200  0.91467000  0.31146800  1
  C  1083  1  0.26689800  0.92316800  0.29997300  1
  C  1090  1  0.28228800  0.63560100  0.58488700  1
  C  1091  1  0.26617700  0.64778300  0.60759400  1
  C  1092  1  0.23304300  0.64753400  0.60785000  1
  C  1093  1  0.21635500  0.63535600  0.58538600  1
  C  1094  1  0.23298800  0.62315100  0.56322500  1
  C  1095  1  0.26524700  0.62320400  0.56297700  1
  C  1096  1  0.21866600  0.65939500  0.63119300  1
  C  1098  1  0.26691400  0.67086200  0.65118200  1
  C  1105  1  0.28225800  0.38596900  0.07868400  1
  C  1106  1  0.26616800  0.36325200  0.06816100  1
  C  1107  1  0.23303400  0.36297300  0.06763900  1
  C  1108  1  0.21632500  0.38542700  0.07789500  1
  C  1109  1  0.23293700  0.40759900  0.08785400  1
  C  1110  1  0.26519400  0.40786700  0.08817500  1
  C  1111  1  0.21867700  0.33962400  0.05617600  1
  C  1113  1  0.26694600  0.31966500  0.04769100  1
  C  1120  1  0.78229300  0.05027400  0.66398700  1
  C  1121  1  0.76618100  0.03976600  0.67618700  1
  C  1122  1  0.73304700  0.03927900  0.67595600  1
  C  1123  1  0.71636500  0.04958800  0.66379700  1
  C  1124  1  0.73299400  0.05950100  0.65155100  1
  C  1125  1  0.76525300  0.05978600  0.65158900  1
  C  1126  1  0.71866900  0.02781800  0.68783700  1
  C  1128  1  0.76692200  0.01927100  0.69927700  1
  C  1135  1  0.78225900  0.30689000  0.41431800  1
  C  1136  1  0.76614900  0.29469900  0.39160900  1
  C  1137  1  0.73301400  0.29495000  0.39135600  1
  C  1138  1  0.71633300  0.30713600  0.41382300  1
  C  1139  1  0.73296400  0.31935900  0.43598300  1
  C  1140  1  0.76522300  0.31931100  0.43623000  1
  C  1141  1  0.71863000  0.28307400  0.36801600  1
  C  1143  1  0.76688000  0.27160400  0.34802400  1
  C  1150  1  0.78228200  0.55656700  0.92056700  1
  C  1151  1  0.76616900  0.57927400  0.93109000  1
  C  1152  1  0.73303500  0.57952600  0.93158500  1
  C  1153  1  0.71635400  0.55705700  0.92130000  1
  C  1154  1  0.73298900  0.53489800  0.91135900  1
  C  1155  1  0.76524600  0.53465300  0.91104300  1
  C  1156  1  0.71865100  0.60286500  0.94305800  1
  C  1158  1  0.76689700  0.62286000  0.95160100  1
  C  1165  1  0.93412900  0.52988600  0.80160200  1
  C  1166  1  0.92649900  0.55183200  0.80158400  1
  C  1167  1  0.92614500  0.55200400  0.77897200  1
  C  1168  1  0.93367700  0.53024400  0.75674200  1
  C  1169  1  0.94161200  0.50889900  0.75736400  1
  C  1170  1  0.94173100  0.50869100  0.77944000  1
  C  1171  1  0.91707600  0.57427900  0.78028100  1
  C  1173  1  0.91036900  0.59357400  0.82300600  1
  C  1180  1  0.93411900  0.21459400  0.44099000  1
  C  1181  1  0.92648700  0.19262900  0.41904300  1
  C  1182  1  0.92612600  0.16984400  0.41886900  1
  C  1183  1  0.93367400  0.16937000  0.44062500  1
  C  1184  1  0.94163100  0.19133300  0.46196500  1
  C  1185  1  0.94173800  0.21361900  0.46217800  1
  C  1186  1  0.91705600  0.14887900  0.39659300  1
  C  1188  1  0.91035000  0.17231200  0.37730200  1
  C  1195  1  0.93409700  0.16929600  0.75629300  1
  C  1196  1  0.92647200  0.16931100  0.77825700  1
  C  1197  1  0.92613800  0.19191900  0.80104200  1
  C  1198  1  0.93371200  0.21415000  0.80152700  1
  C  1199  1  0.94160300  0.21352800  0.77955000  1
  C  1200  1  0.94171300  0.19145700  0.75726400  1
  C  1201  1  0.91708200  0.19060800  0.82200900  1
  C  1203  1  0.91033600  0.14788900  0.79857400  1
  C  1210  1  0.43417800  0.41259100  0.19763100  1
  C  1211  1  0.42655000  0.39064900  0.19765800  1
  C  1212  1  0.42621300  0.39047400  0.22027000  1
  C  1213  1  0.43378600  0.41222300  0.24249400  1
  C  1214  1  0.44167300  0.43357800  0.24187400  1
  C  1215  1  0.44176000  0.43378900  0.21980000  1
  C  1216  1  0.41716200  0.36819700  0.21896200  1
  C  1218  1  0.41041100  0.34890900  0.17624200  1
  C  1225  1  0.43420800  0.72791400  0.55829100  1
  C  1226  1  0.42654000  0.74987700  0.58022800  1
  C  1227  1  0.42618300  0.77266400  0.58040600  1
  C  1228  1  0.43377200  0.77314400  0.55866100  1
  C  1229  1  0.44171900  0.75118200  0.53731700  1
  C  1230  1  0.44181800  0.72889600  0.53710300  1
  C  1231  1  0.41709500  0.79362500  0.60267600  1
  C  1233  1  0.41034600  0.77018400  0.62195400  1
  C  1240  1  0.43421000  0.77325200  0.24296900  1
  C  1241  1  0.42654300  0.77323100  0.22101000  1
  C  1242  1  0.42619200  0.75062100  0.19822500  1
  C  1243  1  0.43378600  0.72839800  0.19774600  1
  C  1244  1  0.44173500  0.72901600  0.21970800  1
  C  1245  1  0.44183200  0.75108800  0.24199600  1
  C  1246  1  0.41710400  0.75192800  0.17726300  1
  C  1248  1  0.41034600  0.79464700  0.20070200  1
  C  1255  1  0.06477900  0.72798600  0.19772700  1
  C  1256  1  0.07265200  0.74989400  0.19771700  1
  C  1257  1  0.07322500  0.77268500  0.22031400  1
  C  1258  1  0.06557300  0.77323700  0.24256500  1
  C  1259  1  0.05740200  0.75131900  0.24196900  1
  C  1260  1  0.05713400  0.72901900  0.21991200  1
  C  1261  1  0.08261700  0.79356000  0.21895900  1
  C  1263  1  0.08904500  0.77005500  0.17620900  1
  C  1270  1  0.06480200  0.77316100  0.55824000  1
  C  1271  1  0.07265400  0.77319300  0.58017100  1
  C  1272  1  0.07321300  0.75060100  0.58037800  1
  C  1273  1  0.06557500  0.72834400  0.55868300  1
  C  1274  1  0.05743400  0.72892100  0.53734500  1
  C  1275  1  0.05720100  0.75096900  0.53708200  1
  C  1276  1  0.08259600  0.75196900  0.60261700  1
  C  1278  1  0.08901900  0.79472100  0.62184800  1
  C  1285  1  0.06489000  0.41266800  0.24291700  1
  C  1286  1  0.07271700  0.39073300  0.22100800  1
  C  1287  1  0.07329400  0.39054200  0.19821700  1
  C  1288  1  0.06571200  0.41226100  0.19768000  1
  C  1289  1  0.05755000  0.43358400  0.21959300  1
  C  1290  1  0.05727300  0.43382700  0.24189500  1
  C  1291  1  0.08265900  0.36830200  0.17733900  1
  C  1293  1  0.08903100  0.34904400  0.20083600  1
  C  1300  1  0.56491400  0.21457000  0.80153100  1
  C  1301  1  0.57274100  0.19266300  0.80156000  1
  C  1302  1  0.57331600  0.16986900  0.77896500  1
  C  1303  1  0.56571500  0.16932300  0.75670800  1
  C  1304  1  0.55753700  0.19123300  0.75729400  1
  C  1305  1  0.55727900  0.21353600  0.77934600  1
  C  1306  1  0.58267600  0.14899200  0.78032900  1
  C  1308  1  0.58906200  0.17249800  0.82308300  1
  C  1315  1  0.56489600  0.16935300  0.44100500  1
  C  1316  1  0.57271800  0.16933500  0.41907500  1
  C  1317  1  0.57326300  0.19193300  0.41888100  1
  C  1318  1  0.56562100  0.21418400  0.44058300  1
  C  1319  1  0.55749100  0.21358600  0.46191200  1
  C  1320  1  0.55723500  0.19152900  0.46215500  1
  C  1321  1  0.58261600  0.19057700  0.39664200  1
  C  1323  1  0.58905500  0.14782800  0.37739000  1
  C  1330  1  0.56481700  0.52990700  0.75636100  1
  C  1331  1  0.57265600  0.55183500  0.77827300  1
  C  1332  1  0.57321400  0.55203200  0.80106600  1
  C  1333  1  0.56557900  0.53033100  0.80161600  1
  C  1334  1  0.55745000  0.50899800  0.77969600  1
  C  1335  1  0.55720700  0.50874900  0.75739200  1
  C  1336  1  0.58257200  0.57427200  0.82194600  1
  C  1338  1  0.58900500  0.59351500  0.79844100  1
  C  1345  1  0.01623500  0.61537100  0.62121700  1
  C  1346  1  0.98393900  0.62020500  0.62467200  1
  C  1347  1  0.96576300  0.60932800  0.63570800  1
  C  1348  1  0.98020400  0.59391300  0.64329000  1
  C  1349  1  0.01241000  0.59018200  0.64046000  1
  C  1350  1  0.03012300  0.60067800  0.62954500  1
  C  1351  1  0.93352400  0.61418300  0.63766300  1
  C  1353  1  0.93875200  0.63871800  0.61941400  1
  C  1360  1  0.01621900  0.94873700  0.35551400  1
  C  1361  1  0.98392000  0.94734500  0.35068900  1
  C  1362  1  0.96573800  0.96925600  0.36159000  1
  C  1363  1  0.98018200  0.99224900  0.37702900  1
  C  1364  1  0.01239600  0.99316000  0.38071500  1
  C  1365  1  0.03011900  0.97175300  0.37019800  1
  C  1366  1  0.93349700  0.96635400  0.35674500  1
  C  1368  1  0.93873700  0.92357400  0.33216800  1
  C  1375  1  0.01617500  0.34963200  0.02217100  1
  C  1376  1  0.98387100  0.34621200  0.02355500  1
  C  1377  1  0.96570000  0.33517200  0.00164200  1
  C  1378  1  0.98015600  0.32755700  0.97864400  1
  C  1379  1  0.01236300  0.33037800  0.97774000  1
  C  1380  1  0.03007900  0.34128100  0.99915000  1
  C  1381  1  0.93345600  0.33323800  0.00453800  1
  C  1383  1  0.93867200  0.35151300  0.04732600  1
  C  1390  1  0.51622500  0.32723700  0.37811400  1
  C  1391  1  0.48393600  0.32236500  0.37463600  1
  C  1392  1  0.46575600  0.33321600  0.36357500  1
  C  1393  1  0.48020300  0.34863000  0.35599600  1
  C  1394  1  0.51240600  0.35236900  0.35881100  1
  C  1395  1  0.53011300  0.34191100  0.36976600  1
  C  1396  1  0.43352000  0.32834900  0.36161100  1
  C  1398  1  0.43875900  0.30382500  0.37987200  1
  C  1405  1  0.51623200  0.99377300  0.64365600  1
  C  1406  1  0.48394100  0.99515200  0.64851700  1
  C  1407  1  0.46575200  0.97324200  0.63762100  1
  C  1408  1  0.48018900  0.95025900  0.62213800  1
  C  1409  1  0.51239000  0.94934800  0.61841000  1
  C  1410  1  0.53011300  0.97075300  0.62894000  1
  C  1411  1  0.43351800  0.97614400  0.64249900  1
  C  1413  1  0.43877000  0.01891800  0.66710200  1
  C  1420  1  0.51622300  0.59276100  0.97713400  1
  C  1421  1  0.48393400  0.59624500  0.97574600  1
  C  1422  1  0.46575200  0.60727500  0.99765600  1
  C  1423  1  0.48020000  0.61481200  0.02064200  1
  C  1424  1  0.51240200  0.61199700  0.02156000  1
  C  1425  1  0.53011500  0.60109100  0.00015200  1
  C  1426  1  0.43352000  0.60925900  0.99475800  1
  C  1428  1  0.43876100  0.59104900  0.95197900  1
  C  1435  1  0.98268000  0.32762800  0.37835900  1
  C  1436  1  0.01493600  0.32257400  0.37491500  1
  C  1437  1  0.03336500  0.33333333  0.36389133  1
  C  1438  1  0.01920900  0.34897600  0.35645800  1
  C  1439  1  0.98703500  0.35289100  0.35923800  1
  C  1440  1  0.96906400  0.34242800  0.37005000  1
  C  1441  1  0.06553900  0.32828800  0.36195400  1
  C  1443  1  0.05981500  0.30370100  0.38010200  1
  C  1450  1  0.98267900  0.99363100  0.64334000  1
  C  1451  1  0.01494200  0.99523400  0.64836900  1
  C  1452  1  0.03336900  0.97345200  0.63757800  1
  C  1453  1  0.01920900  0.95036900  0.62204000  1
  C  1454  1  0.98703600  0.94923000  0.61810400  1
  C  1455  1  0.96908000  0.97051500  0.62852900  1
  C  1456  1  0.06555000  0.97656000  0.64265200  1
  C  1458  1  0.05983600  0.01930100  0.66718400  1
  C  1465  1  0.98268700  0.59259900  0.97725500  1
  C  1466  1  0.01494900  0.59601900  0.97565200  1
  C  1467  1  0.03337400  0.60700900  0.99743400  1
  C  1468  1  0.01920900  0.61455100  0.02051600  1
  C  1469  1  0.98703700  0.61174900  0.02165400  1
  C  1470  1  0.96908200  0.60088800  0.00036700  1
  C  1471  1  0.06555200  0.60897600  0.99432900  1
  C  1473  1  0.05984500  0.59076800  0.95158700  1
  C  1480  1  0.48269800  0.61493900  0.62094300  1
  C  1481  1  0.51495500  0.61997800  0.62436400  1
  C  1482  1  0.53338200  0.60919100  0.63535900  1
  C  1483  1  0.51924100  0.59365200  0.64291300  1
  C  1484  1  0.48706400  0.58971200  0.64010600  1
  C  1485  1  0.46909700  0.60012700  0.62924400  1
  C  1486  1  0.56556100  0.61427000  0.63732300  1
  C  1488  1  0.55983900  0.63880300  0.61911400  1
  C  1495  1  0.48267100  0.94888700  0.35594500  1
  C  1496  1  0.51493200  0.94727700  0.35091500  1
  C  1497  1  0.53335700  0.96906000  0.36172300  1
  C  1498  1  0.51920800  0.99214300  0.37729300  1
  C  1499  1  0.48702800  0.99327500  0.38119600  1
  C  1500  1  0.46905800  0.97199800  0.37075000  1
  C  1501  1  0.56553800  0.96595000  0.35664900  1
  C  1503  1  0.55981600  0.92321200  0.33207300  1
  C  1510  1  0.48268500  0.35001100  0.02201400  1
  C  1511  1  0.51493700  0.34655800  0.02363200  1
  C  1512  1  0.53337100  0.33553200  0.00185400  1
  C  1513  1  0.51923600  0.32796400  0.97875700  1
  C  1514  1  0.48706900  0.33079100  0.97761200  1
  C  1515  1  0.46910900  0.34170000  0.99889100  1
  C  1516  1  0.56554700  0.33355800  0.00497500  1
  C  1518  1  0.55980900  0.35179600  0.04771700  1
  C  1525  1  0.92309000  0.38242000  0.54396700  1
  C  1526  1  0.91227200  0.38311600  0.56562200  1
  C  1527  1  0.91268600  0.40572400  0.58841600  1
  C  1528  1  0.92349100  0.42746200  0.58923800  1
  C  1529  1  0.93503500  0.42603400  0.56766000  1
  C  1530  1  0.93493600  0.40392600  0.54546400  1
  C  1531  1  0.90238000  0.40483800  0.60932000  1
  C  1533  1  0.89171400  0.36263800  0.58561700  1
  C  1540  1  0.92314000  0.10447400  0.58849500  1
  C  1541  1  0.91228600  0.12542200  0.58779600  1
  C  1542  1  0.91269200  0.12561000  0.56518900  1
  C  1543  1  0.92351400  0.10470400  0.54344700  1
  C  1544  1  0.93507300  0.08455900  0.54487800  1
  C  1545  1  0.93497600  0.08446500  0.56698400  1
  C  1546  1  0.90235300  0.14739300  0.56607800  1
  C  1548  1  0.89167900  0.16587900  0.60827300  1
  C  1555  1  0.92314500  0.42691400  0.86644700  1
  C  1556  1  0.91232300  0.40526200  0.84548800  1
  C  1557  1  0.91277100  0.38246300  0.84529000  1
  C  1558  1  0.92363300  0.38162100  0.86618300  1
  C  1559  1  0.93516300  0.40320500  0.88633600  1
  C  1560  1  0.93506300  0.42540600  0.88642900  1
  C  1561  1  0.90244500  0.36156300  0.82350600  1
  C  1563  1  0.89169400  0.38527700  0.80503600  1
  C  1570  1  0.42321800  0.56011900  0.45525300  1
  C  1571  1  0.41235900  0.55941800  0.43360900  1
  C  1572  1  0.41278400  0.53681200  0.41081100  1
  C  1573  1  0.42364000  0.51507700  0.40997000  1
  C  1574  1  0.43519900  0.51651000  0.43154800  1
  C  1575  1  0.43508500  0.53861500  0.45375100  1
  C  1576  1  0.40243100  0.53769600  0.38991800  1
  C  1578  1  0.39172100  0.57988500  0.41362900  1
  C  1585  1  0.42319700  0.83799000  0.41074900  1
  C  1586  1  0.41233900  0.81703800  0.41143900  1
  C  1587  1  0.41276600  0.81683400  0.43403700  1
  C  1588  1  0.42363100  0.83771800  0.45577500  1
  C  1589  1  0.43517500  0.85787600  0.45435700  1
  C  1590  1  0.43506000  0.85798600  0.43225800  1
  C  1591  1  0.40240600  0.79505400  0.43314400  1
  C  1593  1  0.39168400  0.77659600  0.39095800  1
  C  1600  1  0.42313300  0.51564300  0.13288600  1
  C  1601  1  0.41228300  0.53728700  0.15383800  1
  C  1602  1  0.41269200  0.56008400  0.15402900  1
  C  1603  1  0.42351600  0.56091500  0.13312200  1
  C  1604  1  0.43512200  0.53935100  0.11298900  1
  C  1605  1  0.43501600  0.51714900  0.11289100  1
  C  1606  1  0.40233200  0.58097600  0.17580600  1
  C  1608  1  0.39166300  0.55726500  0.19429100  1
  C  1615  1  0.07587100  0.83818200  0.45572700  1
  C  1616  1  0.08670600  0.81714100  0.43414700  1
  C  1617  1  0.08644300  0.81683100  0.41129000  1
  C  1618  1  0.07559100  0.83764200  0.41030000  1
  C  1619  1  0.06397100  0.85785700  0.43178200  1
  C  1620  1  0.06403300  0.85810400  0.45405800  1
  C  1621  1  0.09696200  0.79504300  0.39049300  1
  C  1623  1  0.10727600  0.77666800  0.41435800  1
  C  1630  1  0.07597700  0.51517100  0.41047000  1
  C  1631  1  0.08675700  0.53676200  0.41100400  1
  C  1632  1  0.08647500  0.55962000  0.43354900  1
  C  1633  1  0.07562800  0.56060600  0.45534900  1
  C  1634  1  0.06403500  0.53911900  0.45408500  1
  C  1635  1  0.06416700  0.51683400  0.43206400  1
  C  1636  1  0.09694800  0.58042500  0.43255300  1
  C  1638  1  0.10726200  0.55656500  0.39031300  1
  C  1645  1  0.07598600  0.56041000  0.13264200  1
  C  1646  1  0.08675700  0.55987100  0.15369900  1
  C  1647  1  0.08650500  0.53731700  0.15399600  1
  C  1648  1  0.07572700  0.51551000  0.13315400  1
  C  1649  1  0.06416000  0.51677700  0.11292700  1
  C  1650  1  0.06421600  0.53881300  0.11269400  1
  C  1651  1  0.09694100  0.53831100  0.17580500  1
  C  1653  1  0.10720200  0.58056200  0.19421300  1
  C  1660  1  0.57601700  0.10432700  0.54353100  1
  C  1661  1  0.58681600  0.12538000  0.56511800  1
  C  1662  1  0.58655500  0.12568600  0.58797200  1
  C  1663  1  0.57575000  0.10485900  0.58895500  1
  C  1664  1  0.56415900  0.08463700  0.56746700  1
  C  1665  1  0.56422800  0.08438900  0.54518900  1
  C  1666  1  0.59702100  0.14749100  0.60877700  1
  C  1668  1  0.60731600  0.16587400  0.58491700  1
  C  1675  1  0.57596200  0.42736700  0.58881800  1
  C  1676  1  0.58676300  0.40577900  0.58828200  1
  C  1677  1  0.58647900  0.38292100  0.56573700  1
  C  1678  1  0.57564100  0.38193000  0.54393200  1
  C  1679  1  0.56408500  0.40342800  0.54519600  1
  C  1680  1  0.56413800  0.42570400  0.56722800  1
  C  1681  1  0.59694700  0.36211600  0.56673500  1
  C  1683  1  0.60729500  0.38598100  0.60896900  1
  C  1690  1  0.57591100  0.38208800  0.86655900  1
  C  1691  1  0.58673300  0.38262600  0.84551400  1
  C  1692  1  0.58646500  0.40516900  0.84519700  1
  C  1693  1  0.57562300  0.42697700  0.86600700  1
  C  1694  1  0.56403000  0.42571400  0.88623300  1
  C  1695  1  0.56411100  0.40368700  0.88648700  1
  C  1696  1  0.59695600  0.40416600  0.82339700  1
  C  1698  1  0.60727900  0.36192900  0.80503200  1
  N  992  1  0.76330400  0.62425900  0.69841200  1
  N  997  1  0.71732300  0.60179800  0.68798700  1
  N  1007  1  0.76335500  0.01702300  0.34663600  1
  N  1012  1  0.71735100  0.02904400  0.36906500  1
  N  1022  1  0.76334100  0.27249400  0.95384600  1
  N  1027  1  0.71734600  0.28289900  0.94180800  1
  N  1037  1  0.26335100  0.31829200  0.30090600  1
  N  1042  1  0.21735400  0.34072800  0.31127500  1
  N  1052  1  0.26333300  0.92550600  0.65258000  1
  N  1057  1  0.21733100  0.91342600  0.63014800  1
  N  1067  1  0.26332300  0.67002200  0.04541400  1
  N  1072  1  0.21732900  0.65964500  0.05747600  1
  N  1082  1  0.23577700  0.92419700  0.30035100  1
  N  1087  1  0.28178700  0.91276500  0.31135400  1
  N  1097  1  0.23579500  0.67050600  0.65183500  1
  N  1102  1  0.28180100  0.65948900  0.62939500  1
  N  1112  1  0.23582700  0.31899400  0.04667300  1
  N  1117  1  0.28181300  0.34146000  0.05808100  1
  N  1127  1  0.73580100  0.01827100  0.69893200  1
  N  1132  1  0.78180800  0.02966000  0.68788200  1
  N  1142  1  0.73576000  0.27196900  0.34737300  1
  N  1147  1  0.78177000  0.28298800  0.36981000  1
  N  1157  1  0.73577800  0.62350900  0.95261000  1
  N  1162  1  0.78178900  0.60107600  0.94119300  1
  N  1172  1  0.90967500  0.59407800  0.80192900  1
  N  1177  1  0.91843500  0.57272700  0.82275000  1
  N  1187  1  0.90965300  0.15073000  0.37679700  1
  N  1192  1  0.91842100  0.19290200  0.39814800  1
  N  1202  1  0.90966400  0.16896300  0.82015800  1
  N  1207  1  0.91839300  0.14814500  0.77798200  1
  N  1217  1  0.40974600  0.34840000  0.19731700  1
  N  1222  1  0.41847600  0.36975400  0.17649500  1
  N  1232  1  0.40966300  0.79176700  0.62246400  1
  N  1237  1  0.41844800  0.74959700  0.60111300  1
  N  1247  1  0.40966500  0.77357300  0.17911800  1
  N  1252  1  0.41844300  0.79439500  0.22128900  1
  N  1262  1  0.09003500  0.79163200  0.19727900  1
  N  1267  1  0.08070100  0.74953800  0.17650700  1
  N  1277  1  0.09000800  0.77365500  0.62236500  1
  N  1282  1  0.08069100  0.79440800  0.60102300  1
  N  1292  1  0.09003300  0.34853900  0.17926000  1
  N  1297  1  0.08072800  0.36986900  0.22135800  1
  N  1307  1  0.59005700  0.15091900  0.80201500  1
  N  1312  1  0.58075700  0.19301800  0.82277600  1
  N  1322  1  0.59002300  0.16889900  0.37688300  1
  N  1327  1  0.58075700  0.14812600  0.39821300  1
  N  1337  1  0.58997400  0.59402800  0.82002200  1
  N  1342  1  0.58069100  0.57269200  0.77791900  1
  N  1352  1  0.92122800  0.62861300  0.62968700  1
  N  1357  1  0.96955300  0.63440100  0.61680700  1
  N  1367  1  0.92120700  0.94394900  0.34229700  1
  N  1372  1  0.96954100  0.92528500  0.33648000  1
  N  1382  1  0.92115200  0.34123500  0.02694700  1
  N  1387  1  0.96947800  0.35410700  0.04561900  1
  N  1397  1  0.42123200  0.31391400  0.36958400  1
  N  1402  1  0.46955400  0.30816800  0.38250300  1
  N  1412  1  0.42123900  0.99854500  0.65697400  1
  N  1417  1  0.46956600  0.01720900  0.66275400  1
  N  1427  1  0.42123200  0.60131500  0.97235600  1
  N  1432  1  0.46955400  0.58840600  0.95368500  1
  N  1442  1  0.07756300  0.31372200  0.36986700  1
  N  1447  1  0.02906100  0.30824400  0.38273500  1
  N  1457  1  0.07757900  0.99904300  0.65718300  1
  N  1462  1  0.02907700  0.01738700  0.66266500  1
  N  1472  1  0.07758600  0.60102400  0.97184600  1
  N  1477  1  0.02908400  0.58816800  0.95350000  1
  N  1487  1  0.57758700  0.62880400  0.62937100  1
  N  1492  1  0.52908100  0.63427900  0.61650900  1
  N  1502  1  0.57756400  0.94346900  0.34209500  1
  N  1507  1  0.52905800  0.92512500  0.33659800  1
  N  1517  1  0.57756200  0.34151800  0.02746400  1
  N  1522  1  0.52905800  0.35442000  0.04579300  1
  N  1532  1  0.89242400  0.38362300  0.60731000  1
  N  1537  1  0.90171700  0.36240800  0.56517300  1
  N  1547  1  0.89237800  0.16659100  0.58729000  1
  N  1552  1  0.90171100  0.14567200  0.60850300  1
  N  1562  1  0.89244100  0.36357700  0.80431500  1
  N  1567  1  0.90171900  0.40571800  0.82524300  1
  N  1577  1  0.39243000  0.55890200  0.39193300  1
  N  1582  1  0.40175300  0.58011800  0.43406700  1
  N  1592  1  0.39239000  0.77587300  0.41193600  1
  N  1597  1  0.40173600  0.79679900  0.39073200  1
  N  1607  1  0.39236500  0.57896000  0.19500400  1
  N  1612  1  0.40170900  0.53683000  0.17408800  1
  N  1622  1  0.10682800  0.77588900  0.39262800  1
  N  1627  1  0.09714900  0.79691500  0.43471300  1
  N  1637  1  0.10679300  0.57829600  0.41126300  1
  N  1642  1  0.09717700  0.53620200  0.39020800  1
  N  1652  1  0.10675800  0.55960400  0.19497800  1
  N  1657  1  0.09713000  0.58067100  0.17395300  1
  N  1667  1  0.60686800  0.16665100  0.60664700  1
  N  1672  1  0.59722000  0.14561800  0.56455700  1
  N  1682  1  0.60682000  0.36424800  0.58801900  1
  N  1687  1  0.59719200  0.40634100  0.60907700  1
  N  1697  1  0.60683400  0.38287900  0.80425100  1
  N  1702  1  0.59717100  0.36183000  0.82528800  1
  O  996  1  0.81128000  0.60707900  0.68799100  1
  O  1011  1  0.81131000  0.02377300  0.36384400  1
  O  1026  1  0.81130100  0.28297500  0.94713300  1
  O  1041  1  0.31130800  0.33549400  0.31136600  1
  O  1056  1  0.31129000  0.91872400  0.63537100  1
  O  1071  1  0.31128700  0.65960000  0.05219300  1
  O  1086  1  0.18784700  0.91809600  0.31139900  1
  O  1101  1  0.18786100  0.65948000  0.63469000  1
  O  1116  1  0.18787700  0.33610600  0.05275900  1
  O  1131  1  0.68786500  0.02439400  0.68791500  1
  O  1146  1  0.68783000  0.28301800  0.36451700  1
  O  1161  1  0.68784900  0.60636200  0.94649900  1
  O  1176  1  0.91487200  0.57762600  0.76080600  1
  O  1191  1  0.91484800  0.12605800  0.39324600  1
  O  1206  1  0.91490800  0.21008200  0.84483600  1
  O  1221  1  0.41500100  0.36484700  0.23843800  1
  O  1236  1  0.41490600  0.81644900  0.60602700  1
  O  1251  1  0.41491800  0.73245300  0.15443900  1
  O  1266  1  0.08521700  0.81635300  0.23842300  1
  O  1281  1  0.08518900  0.73251300  0.60596000  1
  O  1296  1  0.08526800  0.36497400  0.15454600  1
  O  1311  1  0.58527800  0.12619600  0.76087100  1
  O  1326  1  0.58517900  0.21004100  0.39330700  1
  O  1341  1  0.58513500  0.57761000  0.84474500  1
  O  1356  1  0.91309500  0.60541300  0.64756500  1
  O  1371  1  0.91306000  0.98502100  0.36553500  1
  O  1386  1  0.91303800  0.32331600  0.98585900  1
  O  1401  1  0.41309600  0.33709300  0.35168200  1
  O  1416  1  0.41307500  0.95748100  0.63369800  1
  O  1431  1  0.41308400  0.61915000  0.01342700  1
  O  1446  1  0.08616100  0.33695400  0.35208300  1
  O  1461  1  0.08616100  0.95801800  0.63401000  1
  O  1476  1  0.08616300  0.61887600  0.01287300  1
  O  1491  1  0.58617900  0.60564000  0.64723200  1
  O  1506  1  0.58615800  0.98448600  0.36530500  1
  O  1521  1  0.58616000  0.32361900  0.98643700  1
  O  1536  1  0.90324800  0.42408000  0.63235800  1
  O  1551  1  0.90321100  0.15119400  0.54683600  1
  O  1566  1  0.90335400  0.33851900  0.81969800  1
  O  1581  1  0.40331100  0.51845800  0.36687400  1
  O  1596  1  0.40328100  0.79124000  0.45237800  1
  O  1611  1  0.40323500  0.60402400  0.17962300  1
  O  1626  1  0.09637100  0.79118900  0.36742600  1
  O  1641  1  0.09633200  0.60349200  0.45176300  1
  O  1656  1  0.09640100  0.51908100  0.17963000  1
  O  1671  1  0.59647600  0.15132800  0.63183800  1
  O  1686  1  0.59637200  0.33905400  0.54751500  1
  O  1701  1  0.59640500  0.42338600  0.81955300  1
