# generated using pymatgen
data_H20C39(N2O)4
_symmetry_space_group_name_H-M   'P 1'
_cell_length_a   38.84120000
_cell_length_b   38.84120000
_cell_length_c   46.11470000
_cell_angle_alpha   90.00160000
_cell_angle_beta   89.99840000
_cell_angle_gamma   90.00000000
_symmetry_Int_Tables_number   1
_chemical_formula_structural   H20C39(N2O)4
_chemical_formula_sum   'H320 C624 N128 O64'
_cell_volume   69570.42642035
_cell_formula_units_Z   16
loop_
 _symmetry_equiv_pos_site_id
 _symmetry_equiv_pos_as_xyz
  1  'x, y, z'
loop_
 _atom_site_type_symbol
 _atom_site_label
 _atom_site_symmetry_multiplicity
 _atom_site_fract_x
 _atom_site_fract_y
 _atom_site_fract_z
 _atom_site_occupancy
  H  25  1  0.83008700  0.13965600  0.74700900  1
  H  26  1  0.84459200  0.08020300  0.74806100  1
  H  27  1  0.84705800  0.01599100  0.74630600  1
  H  28  1  0.83905900  0.95534700  0.74027600  1
  H  29  1  0.76108400  0.97466400  0.67823100  1
  H  30  1  0.76173000  0.12216400  0.67722900  1
  H  31  1  0.72177900  0.04889900  0.73227200  1
  H  32  1  0.62995800  0.04905400  0.68292100  1
  H  33  1  0.66337700  0.04907600  0.63920400  1
  H  34  1  0.82257000  0.04891100  0.64177100  1
  H  35  1  0.70796500  0.04906400  0.59921200  1
  H  36  1  0.75693900  0.04904800  0.56846700  1
  H  42  1  0.77850400  0.18280100  0.69284200  1
  H  43  1  0.77561200  0.91605100  0.69187300  1
  H  44  1  0.84709000  0.04902800  0.59067500  1
  H  45  1  0.66612300  0.04902500  0.75645100  1
  H  70  1  0.26793100  0.95838100  0.74699600  1
  H  71  1  0.25340200  0.01781100  0.74806700  1
  H  72  1  0.25095900  0.08209300  0.74633900  1
  H  73  1  0.25897400  0.14273500  0.74027600  1
  H  74  1  0.33689300  0.12336400  0.67818900  1
  H  75  1  0.33624200  0.97589700  0.67717900  1
  H  76  1  0.37637800  0.04915100  0.73214400  1
  H  77  1  0.46704300  0.04899200  0.68114300  1
  H  78  1  0.43360100  0.04897000  0.63823500  1
  H  79  1  0.27514800  0.04913500  0.64158700  1
  H  80  1  0.38986500  0.04898900  0.59909100  1
  H  81  1  0.34097500  0.04900400  0.56829600  1
  H  87  1  0.31953500  0.91522600  0.69283300  1
  H  88  1  0.32242900  0.18199500  0.69184700  1
  H  89  1  0.25081800  0.04902300  0.59057100  1
  H  90  1  0.43530400  0.04902300  0.75549700  1
  H  115  1  0.13964300  0.26794900  0.24701900  1
  H  116  1  0.08021100  0.25344100  0.24806200  1
  H  117  1  0.01599100  0.25098500  0.24632100  1
  H  118  1  0.95534600  0.25898100  0.24029000  1
  H  119  1  0.97466500  0.33695600  0.17824500  1
  H  120  1  0.12216600  0.33631700  0.17723800  1
  H  121  1  0.04890200  0.37626100  0.23228400  1
  H  122  1  0.04906100  0.46808400  0.18293300  1
  H  123  1  0.04908300  0.43466500  0.13921600  1
  H  124  1  0.04891000  0.27547300  0.14178100  1
  H  125  1  0.04906600  0.39007700  0.09922400  1
  H  126  1  0.04904900  0.34110500  0.06847900  1
  H  132  1  0.18282300  0.31954900  0.19287600  1
  H  133  1  0.91605300  0.32240700  0.19186700  1
  H  134  1  0.04902500  0.25095400  0.09068700  1
  H  135  1  0.04903000  0.43191900  0.25646300  1
  H  160  1  0.95835900  0.83011400  0.24706400  1
  H  161  1  0.01778800  0.84463500  0.24813100  1
  H  162  1  0.08207300  0.84708300  0.24640500  1
  H  163  1  0.14271500  0.83907100  0.24034200  1
  H  164  1  0.12335100  0.76115000  0.17825500  1
  H  165  1  0.97588500  0.76181400  0.17723000  1
  H  166  1  0.04913700  0.72166200  0.23220800  1
  H  167  1  0.04896800  0.63100400  0.18119600  1
  H  168  1  0.04895200  0.66444600  0.13829400  1
  H  169  1  0.04912200  0.82289500  0.14164700  1
  H  170  1  0.04896800  0.70817700  0.09915500  1
  H  171  1  0.04898500  0.75706900  0.06835800  1
  H  177  1  0.91522400  0.77851000  0.19288900  1
  H  178  1  0.18198100  0.77563500  0.19189300  1
  H  179  1  0.04900700  0.84722300  0.09062400  1
  H  180  1  0.04900400  0.66272500  0.25555200  1
  H  205  1  0.83902000  0.95535000  0.25194600  1
  H  206  1  0.84699800  0.01599700  0.24592800  1
  H  207  1  0.84457400  0.08016400  0.24421700  1
  H  208  1  0.83010600  0.13960800  0.24524900  1
  H  209  1  0.76175500  0.12217300  0.31505600  1
  H  210  1  0.76108300  0.97464100  0.31403900  1
  H  211  1  0.72192300  0.04887800  0.26019700  1
  H  212  1  0.63010200  0.04903100  0.30940900  1
  H  213  1  0.66344400  0.04905300  0.35317600  1
  H  214  1  0.82261000  0.04889600  0.35023500  1
  H  215  1  0.70897400  0.04905500  0.39392600  1
  H  216  1  0.75896500  0.04903800  0.42459600  1
  H  222  1  0.77558600  0.91605100  0.30036200  1
  H  223  1  0.77851800  0.18280100  0.29938200  1
  H  224  1  0.84830300  0.04902100  0.39824200  1
  H  225  1  0.66620200  0.04901100  0.23587500  1
  H  250  1  0.25900800  0.14272100  0.25194300  1
  H  251  1  0.25101700  0.08207700  0.24590200  1
  H  252  1  0.25345300  0.01785600  0.24418000  1
  H  253  1  0.26795500  0.95841300  0.24524300  1
  H  254  1  0.33622000  0.97589300  0.31509500  1
  H  255  1  0.33688700  0.12339600  0.31407100  1
  H  256  1  0.37623100  0.04916600  0.26032500  1
  H  257  1  0.46690400  0.04901600  0.31117600  1
  H  258  1  0.43352300  0.04899400  0.35414700  1
  H  259  1  0.27511700  0.04914800  0.35040200  1
  H  260  1  0.38886000  0.04899000  0.39403700  1
  H  261  1  0.33892500  0.04900700  0.42476700  1
  H  267  1  0.32243400  0.18200800  0.30037500  1
  H  268  1  0.31951700  0.91524600  0.29940800  1
  H  269  1  0.24962900  0.04902100  0.39831300  1
  H  270  1  0.43522600  0.04903400  0.23682700  1
  H  295  1  0.14267700  0.83903400  0.75192900  1
  H  296  1  0.08203000  0.84700500  0.74591600  1
  H  297  1  0.01787200  0.84456600  0.74419700  1
  H  298  1  0.95843700  0.83010300  0.74522900  1
  H  299  1  0.97586400  0.76176200  0.81504800  1
  H  300  1  0.12340200  0.76109800  0.81402200  1
  H  301  1  0.04915300  0.72192900  0.76018500  1
  H  302  1  0.04899600  0.63011100  0.80939500  1
  H  303  1  0.04897400  0.66345300  0.85316100  1
  H  304  1  0.04913900  0.82262400  0.85024100  1
  H  305  1  0.04897600  0.70898100  0.89391100  1
  H  306  1  0.04899500  0.75896800  0.92459000  1
  H  312  1  0.18199700  0.77560800  0.80032900  1
  H  313  1  0.91523400  0.77852200  0.79936900  1
  H  314  1  0.04899900  0.84818300  0.89823600  1
  H  315  1  0.04901700  0.66620900  0.73586100  1
  H  340  1  0.95532500  0.25901100  0.75188600  1
  H  341  1  0.01597200  0.25101700  0.74584000  1
  H  342  1  0.08019500  0.25346000  0.74411200  1
  H  343  1  0.13963700  0.26796000  0.74518100  1
  H  344  1  0.12215800  0.33623500  0.81502700  1
  H  345  1  0.97466000  0.33689400  0.81401600  1
  H  346  1  0.04888700  0.37623500  0.76026500  1
  H  347  1  0.04904000  0.46690500  0.81112600  1
  H  348  1  0.04906200  0.43352200  0.85409100  1
  H  349  1  0.04890200  0.27510800  0.85036600  1
  H  350  1  0.04906300  0.38886700  0.89397500  1
  H  351  1  0.04904400  0.33894500  0.92471400  1
  H  357  1  0.91605300  0.32244800  0.80032500  1
  H  358  1  0.18280800  0.31953800  0.79933400  1
  H  359  1  0.04902700  0.24961900  0.89832200  1
  H  360  1  0.04901900  0.43524100  0.73677200  1
  H  367  1  0.80333700  0.83375900  0.73605800  1
  H  371  1  0.94490500  0.87085700  0.78640900  1
  H  380  1  0.29469900  0.26429400  0.73602800  1
  H  384  1  0.15317800  0.22717700  0.78639000  1
  H  393  1  0.83375500  0.29469100  0.23606600  1
  H  397  1  0.87085000  0.15316200  0.28641400  1
  H  406  1  0.26428100  0.80335000  0.23609200  1
  H  410  1  0.22716200  0.94490100  0.28645700  1
  H  419  1  0.29470700  0.26430300  0.25618900  1
  H  423  1  0.15318900  0.22718900  0.20582200  1
  H  432  1  0.80332400  0.83373600  0.25620200  1
  H  436  1  0.94488900  0.87084000  0.20585200  1
  H  445  1  0.26428700  0.80333200  0.75613800  1
  H  449  1  0.22718400  0.94485200  0.70577900  1
  H  458  1  0.83374500  0.29470800  0.75616700  1
  H  462  1  0.87085100  0.15318900  0.70581000  1
  H  471  1  0.52500700  0.04903600  0.69184400  1
  H  475  1  0.62338400  0.04897000  0.79553800  1
  H  484  1  0.04904800  0.57304300  0.19186500  1
  H  488  1  0.04897700  0.47465600  0.29555200  1
  H  497  1  0.52499500  0.04897400  0.30037900  1
  H  501  1  0.62338300  0.04904800  0.19669400  1
  H  510  1  0.04905100  0.52499500  0.80035900  1
  H  514  1  0.04898000  0.62339300  0.69668200  1
  H  523  1  0.76977900  0.04902800  0.51650300  1
  H  527  1  0.89298200  0.04896100  0.43361900  1
  H  536  1  0.32825600  0.04902300  0.51648600  1
  H  540  1  0.20504200  0.04908900  0.43359900  1
  H  549  1  0.04902800  0.32826400  0.01651700  1
  H  553  1  0.04895600  0.20505600  0.93362700  1
  H  562  1  0.04900500  0.76978800  0.01653000  1
  H  566  1  0.04907500  0.89299900  0.93364700  1
  H  593  1  0.39240700  0.72772200  0.48678800  1
  H  594  1  0.40691200  0.66826900  0.48784000  1
  H  595  1  0.40937800  0.60405700  0.48608500  1
  H  596  1  0.40137900  0.54341300  0.48005500  1
  H  597  1  0.32340400  0.56273000  0.41801000  1
  H  598  1  0.32405000  0.71023000  0.41700800  1
  H  599  1  0.28409900  0.63696500  0.47205100  1
  H  600  1  0.19227800  0.63712000  0.42270000  1
  H  601  1  0.22569700  0.63714200  0.37898300  1
  H  602  1  0.38489000  0.63697700  0.38155000  1
  H  603  1  0.27028500  0.63713000  0.33899100  1
  H  604  1  0.31925900  0.63711400  0.30824600  1
  H  610  1  0.34082400  0.77086700  0.43262100  1
  H  611  1  0.33793200  0.50411700  0.43165200  1
  H  612  1  0.40941000  0.63709400  0.33045400  1
  H  613  1  0.22844300  0.63709100  0.49623000  1
  H  638  1  0.83025100  0.54644700  0.48677500  1
  H  639  1  0.81572200  0.60587700  0.48784600  1
  H  640  1  0.81327900  0.67015900  0.48611800  1
  H  641  1  0.82129400  0.73080100  0.48005500  1
  H  642  1  0.89921300  0.71143000  0.41796800  1
  H  643  1  0.89856200  0.56396300  0.41695800  1
  H  644  1  0.93869840  0.63721700  0.47192300  1
  H  645  1  0.02936300  0.63705800  0.42092200  1
  H  646  1  0.99592142  0.63703600  0.37801400  1
  H  647  1  0.83746800  0.63720100  0.38136600  1
  H  648  1  0.95218540  0.63705500  0.33887000  1
  H  649  1  0.90329540  0.63707000  0.30807500  1
  H  655  1  0.88185500  0.50329200  0.43261200  1
  H  656  1  0.88474900  0.77006100  0.43162600  1
  H  657  1  0.81313800  0.63708900  0.33035000  1
  H  658  1  0.99762442  0.63708900  0.49527600  1
  H  683  1  0.70196300  0.85601500  0.98679830  1
  H  684  1  0.64253100  0.84150700  0.98784130  1
  H  685  1  0.57831100  0.83905100  0.98610030  1
  H  686  1  0.51766600  0.84704700  0.98006930  1
  H  687  1  0.53698500  0.92502230  0.91802430  1
  H  688  1  0.68448600  0.92438330  0.91701730  1
  H  689  1  0.61122200  0.96432730  0.97206330  1
  H  690  1  0.61138100  0.05615000  0.92271230  1
  H  691  1  0.61140300  0.02273100  0.87899500  1
  H  692  1  0.61123000  0.86353900  0.88156000  1
  H  693  1  0.61138600  0.97814330  0.83900300  1
  H  694  1  0.61136900  0.92917130  0.80825800  1
  H  700  1  0.74514300  0.90761530  0.93265530  1
  H  701  1  0.47837300  0.91047330  0.93164630  1
  H  702  1  0.61134500  0.83902000  0.83046600  1
  H  703  1  0.61135000  0.01998500  0.99624229  1
  H  728  1  0.52067900  0.41818000  0.98684330  1
  H  729  1  0.58010800  0.43270100  0.98791030  1
  H  730  1  0.64439300  0.43514900  0.98618430  1
  H  731  1  0.70503500  0.42713700  0.98012130  1
  H  732  1  0.68567100  0.34921600  0.91803430  1
  H  733  1  0.53820500  0.34988000  0.91700930  1
  H  734  1  0.61145700  0.30972800  0.97198730  1
  H  735  1  0.61128800  0.21907000  0.92097530  1
  H  736  1  0.61127200  0.25251200  0.87807300  1
  H  737  1  0.61144200  0.41096100  0.88142600  1
  H  738  1  0.61128800  0.29624300  0.83893400  1
  H  739  1  0.61130500  0.34513500  0.80813700  1
  H  745  1  0.47754400  0.36657600  0.93266830  1
  H  746  1  0.74430100  0.36370100  0.93167230  1
  H  747  1  0.61132700  0.43528900  0.83040300  1
  H  748  1  0.61132400  0.25079100  0.99533129  1
  H  773  1  0.40134000  0.54341600  0.99172529  1
  H  774  1  0.40931800  0.60406300  0.98570730  1
  H  775  1  0.40689400  0.66823000  0.98399630  1
  H  776  1  0.39242600  0.72767400  0.98502830  1
  H  777  1  0.32407500  0.71023900  0.05483500  1
  H  778  1  0.32340300  0.56270700  0.05381800  1
  H  779  1  0.28424300  0.63694400  0.99997629  1
  H  780  1  0.19242200  0.63709700  0.04918800  1
  H  781  1  0.22576400  0.63711900  0.09295500  1
  H  782  1  0.38493000  0.63696200  0.09001400  1
  H  783  1  0.27129400  0.63712100  0.13370500  1
  H  784  1  0.32128500  0.63710400  0.16437500  1
  H  790  1  0.33790600  0.50411700  0.04014100  1
  H  791  1  0.34083800  0.77086700  0.03916100  1
  H  792  1  0.41062300  0.63708700  0.13802100  1
  H  793  1  0.22852200  0.63707700  0.97565430  1
  H  818  1  0.82132800  0.73078700  0.99172229  1
  H  819  1  0.81333700  0.67014300  0.98568130  1
  H  820  1  0.81577300  0.60592200  0.98395930  1
  H  821  1  0.83027500  0.54647900  0.98502230  1
  H  822  1  0.89854000  0.56395900  0.05487400  1
  H  823  1  0.89920700  0.71146200  0.05385000  1
  H  824  1  0.93855140  0.63723200  0.00010400  1
  H  825  1  0.02922400  0.63708200  0.05095500  1
  H  826  1  0.99584342  0.63706000  0.09392600  1
  H  827  1  0.83743700  0.63721400  0.09018100  1
  H  828  1  0.95118040  0.63705600  0.13381600  1
  H  829  1  0.90124540  0.63707300  0.16454600  1
  H  835  1  0.88475400  0.77007400  0.04015400  1
  H  836  1  0.88183700  0.50331200  0.03918700  1
  H  837  1  0.81194900  0.63708700  0.13809200  1
  H  838  1  0.99754642  0.63710000  0.97660630  1
  H  863  1  0.70499700  0.42710000  0.49170800  1
  H  864  1  0.64435000  0.43507100  0.48569500  1
  H  865  1  0.58019200  0.43263200  0.48397600  1
  H  866  1  0.52075700  0.41816900  0.48500800  1
  H  867  1  0.53818400  0.34982800  0.55482700  1
  H  868  1  0.68572200  0.34916400  0.55380100  1
  H  869  1  0.61147300  0.30999500  0.49996400  1
  H  870  1  0.61131600  0.21817700  0.54917400  1
  H  871  1  0.61129400  0.25151900  0.59294000  1
  H  872  1  0.61145900  0.41069000  0.59002000  1
  H  873  1  0.61129600  0.29704700  0.63369000  1
  H  874  1  0.61131500  0.34703400  0.66436900  1
  H  880  1  0.74431700  0.36367400  0.54010800  1
  H  881  1  0.47755400  0.36658800  0.53914800  1
  H  882  1  0.61131900  0.43624900  0.63801500  1
  H  883  1  0.61133700  0.25427500  0.47564000  1
  H  908  1  0.51764500  0.84707700  0.49166500  1
  H  909  1  0.57829200  0.83908300  0.48561900  1
  H  910  1  0.64251500  0.84152600  0.48389100  1
  H  911  1  0.70195700  0.85602600  0.48496000  1
  H  912  1  0.68447800  0.92430130  0.55480600  1
  H  913  1  0.53698000  0.92496030  0.55379500  1
  H  914  1  0.61120700  0.96430130  0.50004400  1
  H  915  1  0.61136000  0.05497100  0.55090500  1
  H  916  1  0.61138200  0.02158800  0.59387000  1
  H  917  1  0.61122200  0.86317400  0.59014500  1
  H  918  1  0.61138300  0.97693330  0.63375400  1
  H  919  1  0.61136400  0.92701130  0.66449300  1
  H  925  1  0.47837300  0.91051430  0.54010400  1
  H  926  1  0.74512800  0.90760430  0.53911300  1
  H  927  1  0.61134700  0.83768500  0.63810100  1
  H  928  1  0.61133900  0.02330700  0.47655100  1
  H  935  1  0.36565700  0.42182500  0.47583700  1
  H  939  1  0.50722500  0.45892300  0.52618800  1
  H  948  1  0.85701900  0.85236000  0.47580700  1
  H  952  1  0.71549800  0.81524300  0.52616900  1
  H  961  1  0.39607500  0.88275700  0.97584530  1
  H  965  1  0.43317000  0.74122800  0.02619300  1
  H  974  1  0.82660100  0.39141600  0.97587130  1
  H  978  1  0.78948200  0.53296700  0.02623600  1
  H  987  1  0.85702700  0.85236900  0.99596829  1
  H  991  1  0.71550900  0.81525500  0.94560130  1
  H  1000  1  0.36564400  0.42180200  0.99598129  1
  H  1004  1  0.50720900  0.45890600  0.94563130  1
  H  1013  1  0.82660700  0.39139800  0.49591700  1
  H  1017  1  0.78950400  0.53291800  0.44555800  1
  H  1026  1  0.39606500  0.88277400  0.49594600  1
  H  1030  1  0.43317100  0.74125500  0.44558900  1
  H  1039  1  0.08732700  0.63710200  0.43162300  1
  H  1043  1  0.18570400  0.63703600  0.53531700  1
  H  1052  1  0.61136800  0.16110900  0.93164430  1
  H  1056  1  0.61129700  0.06272200  0.03533100  1
  H  1065  1  0.08731500  0.63704000  0.04015800  1
  H  1069  1  0.18570300  0.63711400  0.93647330  1
  H  1078  1  0.61137100  0.11306100  0.54013800  1
  H  1082  1  0.61130000  0.21145900  0.43646100  1
  H  1091  1  0.33209900  0.63709400  0.25628200  1
  H  1095  1  0.45530200  0.63702700  0.17339800  1
  H  1104  1  0.89057600  0.63708900  0.25626500  1
  H  1108  1  0.76736200  0.63715500  0.17337800  1
  H  1117  1  0.61134800  0.91633030  0.75629600  1
  H  1121  1  0.61127600  0.79312200  0.67340600  1
  H  1130  1  0.61132500  0.35785400  0.75630900  1
  H  1134  1  0.61139500  0.48106500  0.67342600  1
  C  1  1  0.76920300  0.04860500  0.65051300  1
  C  2  1  0.73629000  0.04885900  0.63835600  1
  C  3  1  0.71170900  0.04884500  0.66030100  1
  C  4  1  0.72849500  0.04852900  0.68701500  1
  C  5  1  0.70894000  0.04885900  0.71290900  1
  C  6  1  0.67221600  0.04902100  0.71218900  1
  C  7  1  0.65616700  0.04902600  0.68460400  1
  C  8  1  0.67559800  0.04903800  0.65880500  1
  C  9  1  0.73197600  0.04903900  0.60822300  1
  C  10  1  0.76115300  0.04903000  0.59029800  1
  C  11  1  0.79510200  0.04903300  0.60165200  1
  C  12  1  0.79870200  0.04889800  0.63240600  1
  C  13  1  0.78374000  0.07787200  0.69635900  1
  C  14  1  0.80851100  0.06594700  0.71585600  1
  C  15  1  0.80911300  0.03031200  0.71565900  1
  C  16  1  0.78420400  0.01860200  0.69628800  1
  C  17  1  0.82916500  0.00722400  0.73186400  1
  C  18  1  0.82435000  0.97161700  0.72813000  1
  C  19  1  0.79979100  0.95854600  0.70832900  1
  C  20  1  0.77946500  0.98279700  0.69255600  1
  C  21  1  0.77884100  0.11371000  0.69251000  1
  C  22  1  0.79744000  0.13744300  0.71004500  1
  C  23  1  0.81829200  0.12380600  0.73243700  1
  C  24  1  0.82661700  0.08878100  0.73361600  1
  C  37  1  0.76638300  0.04825300  0.68252600  1
  C  38  1  0.79472900  0.92307800  0.70484900  1
  C  39  1  0.79636600  0.17299500  0.70580300  1
  C  40  1  0.82337100  0.04904800  0.58268800  1
  C  41  1  0.65304500  0.04903300  0.73798800  1
  C  46  1  0.32842600  0.04944400  0.65036500  1
  C  47  1  0.36124000  0.04918900  0.63812200  1
  C  48  1  0.38561500  0.04921000  0.65996500  1
  C  49  1  0.36909100  0.04952300  0.68680700  1
  C  50  1  0.38885000  0.04918900  0.71261400  1
  C  51  1  0.42550900  0.04902900  0.71127200  1
  C  52  1  0.44100400  0.04902100  0.68344100  1
  C  53  1  0.42153300  0.04901200  0.65790700  1
  C  54  1  0.36582100  0.04901000  0.60804300  1
  C  55  1  0.33671100  0.04902000  0.59011800  1
  C  56  1  0.30276700  0.04901500  0.60150200  1
  C  57  1  0.29902300  0.04915000  0.63223900  1
  C  58  1  0.31409000  0.02016000  0.69626600  1
  C  59  1  0.28947300  0.03210100  0.71588200  1
  C  60  1  0.28880400  0.06774100  0.71563100  1
  C  61  1  0.31361600  0.07946000  0.69618800  1
  C  62  1  0.26883200  0.09085100  0.73187500  1
  C  63  1  0.27366200  0.12645800  0.72812100  1
  C  64  1  0.29822700  0.13951800  0.70831600  1
  C  65  1  0.31849500  0.11525500  0.69251200  1
  C  66  1  0.31912300  0.98433300  0.69246500  1
  C  67  1  0.30059100  0.96059300  0.71003000  1
  C  68  1  0.27972300  0.97422400  0.73241900  1
  C  69  1  0.27141700  0.00925000  0.73365100  1
  C  82  1  0.33128300  0.04979300  0.68237500  1
  C  83  1  0.30331000  0.17497800  0.70482700  1
  C  84  1  0.30167200  0.92504600  0.70578800  1
  C  85  1  0.27453700  0.04900400  0.58259100  1
  C  86  1  0.44626200  0.04901500  0.73606500  1
  C  91  1  0.04860900  0.32884000  0.15052500  1
  C  92  1  0.04886400  0.36175300  0.13836800  1
  C  93  1  0.04884800  0.38633000  0.16031300  1
  C  94  1  0.04853000  0.36954500  0.18702700  1
  C  95  1  0.04886400  0.38910000  0.21292100  1
  C  96  1  0.04902400  0.42582600  0.21220100  1
  C  97  1  0.04903300  0.44187300  0.18461800  1
  C  98  1  0.04904100  0.42244400  0.15881900  1
  C  99  1  0.04904000  0.36606700  0.10823700  1
  C  100  1  0.04903100  0.33688800  0.09031000  1
  C  101  1  0.04903500  0.30294000  0.10166200  1
  C  102  1  0.04889800  0.29933900  0.13241500  1
  C  103  1  0.07787300  0.31430200  0.19637300  1
  C  104  1  0.06594400  0.28953800  0.21587500  1
  C  105  1  0.03031200  0.28892300  0.21566900  1
  C  106  1  0.01860100  0.31383400  0.19630000  1
  C  107  1  0.00722200  0.26887500  0.23187600  1
  C  108  1  0.97161600  0.27368900  0.22814200  1
  C  109  1  0.95854500  0.29824500  0.20833900  1
  C  110  1  0.98279700  0.31857300  0.19257000  1
  C  111  1  0.11371100  0.31921200  0.19252600  1
  C  112  1  0.13744600  0.30060900  0.21005000  1
  C  113  1  0.12380700  0.27975500  0.23244200  1
  C  114  1  0.08877700  0.27146800  0.23365900  1
  C  127  1  0.04825500  0.33165700  0.18253800  1
  C  128  1  0.92307600  0.30329900  0.20485200  1
  C  129  1  0.17299800  0.30168200  0.20582200  1
  C  130  1  0.04904600  0.27467100  0.08269800  1
  C  131  1  0.04904100  0.44499700  0.23800000  1
  C  136  1  0.04942800  0.76961800  0.15042700  1
  C  137  1  0.04917600  0.73680500  0.13818400  1
  C  138  1  0.04919300  0.71243000  0.16002700  1
  C  139  1  0.04950600  0.72895400  0.18686900  1
  C  140  1  0.04917300  0.70919300  0.21267600  1
  C  141  1  0.04901100  0.67253300  0.21133000  1
  C  142  1  0.04900200  0.65704100  0.18349900  1
  C  143  1  0.04898700  0.67651400  0.15796700  1
  C  144  1  0.04899100  0.73222400  0.10810400  1
  C  145  1  0.04900200  0.76133200  0.09017700  1
  C  146  1  0.04899900  0.79527700  0.10156200  1
  C  147  1  0.04913500  0.79902200  0.13230000  1
  C  148  1  0.02014500  0.78394800  0.19633200  1
  C  149  1  0.03208300  0.80857900  0.21593800  1
  C  150  1  0.06772300  0.80926400  0.21567300  1
  C  151  1  0.07944600  0.78442500  0.19625400  1
  C  152  1  0.09083200  0.82920700  0.23194300  1
  C  153  1  0.12643900  0.82437900  0.22818700  1
  C  154  1  0.13950300  0.79981700  0.20838300  1
  C  155  1  0.11524000  0.77954700  0.19258100  1
  C  156  1  0.98432100  0.77890900  0.19253500  1
  C  157  1  0.96058400  0.79745100  0.21009800  1
  C  158  1  0.97420900  0.81826400  0.23252400  1
  C  159  1  0.00922300  0.82665800  0.23368500  1
  C  172  1  0.04977900  0.76675900  0.18243900  1
  C  173  1  0.17496500  0.79474400  0.20488500  1
  C  174  1  0.92504000  0.79637300  0.20584300  1
  C  175  1  0.04898700  0.82350500  0.08264200  1
  C  176  1  0.04900300  0.65177500  0.23611800  1
  C  181  1  0.76931600  0.04859200  0.34203800  1
  C  182  1  0.73655100  0.04885000  0.35444000  1
  C  183  1  0.71188500  0.04882900  0.33232600  1
  C  184  1  0.72858500  0.04851100  0.30552300  1
  C  185  1  0.70906500  0.04884200  0.27955300  1
  C  186  1  0.67233300  0.04900200  0.28016700  1
  C  187  1  0.65631900  0.04900300  0.30775900  1
  C  188  1  0.67573800  0.04901400  0.33360900  1
  C  189  1  0.73290000  0.04902300  0.38476400  1
  C  190  1  0.76241700  0.04901400  0.40263100  1
  C  191  1  0.79608300  0.04901300  0.39077100  1
  C  192  1  0.79893200  0.04888100  0.35994200  1
  C  193  1  0.78426200  0.01860200  0.29610100  1
  C  194  1  0.80910200  0.03030000  0.27664700  1
  C  195  1  0.80846100  0.06592200  0.27641700  1
  C  196  1  0.78378900  0.07784800  0.29601600  1
  C  197  1  0.82654900  0.08874000  0.25862000  1
  C  198  1  0.81824800  0.12376700  0.25979100  1
  C  199  1  0.79743100  0.13741300  0.28220500  1
  C  200  1  0.77885600  0.11369400  0.29977600  1
  C  201  1  0.77947100  0.98279000  0.29972600  1
  C  202  1  0.79976100  0.95854400  0.28390500  1
  C  203  1  0.82432000  0.97161700  0.26410700  1
  C  204  1  0.82912300  0.00722400  0.26038800  1
  C  217  1  0.76647200  0.04824300  0.30997100  1
  C  218  1  0.79637600  0.17297100  0.28643100  1
  C  219  1  0.79470400  0.92307500  0.28738600  1
  C  220  1  0.82574000  0.04902400  0.40828400  1
  C  221  1  0.65311200  0.04902400  0.25433300  1
  C  226  1  0.32831800  0.04945700  0.34217900  1
  C  227  1  0.36097600  0.04920300  0.35466800  1
  C  228  1  0.38543800  0.04921700  0.33265700  1
  C  229  1  0.36899800  0.04953100  0.30572900  1
  C  230  1  0.38872300  0.04920000  0.27984800  1
  C  231  1  0.42539000  0.04903300  0.28108400  1
  C  232  1  0.44085700  0.04903900  0.30891700  1
  C  233  1  0.42139200  0.04903000  0.33450500  1
  C  234  1  0.36489400  0.04902100  0.38494200  1
  C  235  1  0.33544000  0.04902900  0.40280900  1
  C  236  1  0.30179300  0.04903100  0.39090800  1
  C  237  1  0.29879700  0.04916700  0.36009600  1
  C  238  1  0.31356200  0.07946200  0.29619200  1
  C  239  1  0.28880000  0.06775300  0.27668800  1
  C  240  1  0.28946700  0.03211800  0.27643500  1
  C  241  1  0.31403800  0.02018500  0.29610700  1
  C  242  1  0.27146400  0.00929100  0.25859900  1
  C  243  1  0.27973600  0.97425900  0.25982800  1
  C  244  1  0.30059400  0.96062000  0.28221600  1
  C  245  1  0.31912100  0.98435000  0.29980500  1
  C  246  1  0.31849000  0.11526700  0.29976100  1
  C  247  1  0.29825200  0.13952200  0.28391200  1
  C  248  1  0.27369300  0.12645000  0.26410900  1
  C  249  1  0.26888100  0.09084300  0.26037000  1
  C  262  1  0.33119500  0.04980600  0.31011600  1
  C  263  1  0.30166300  0.92506900  0.28644900  1
  C  264  1  0.30332600  0.17498900  0.28738600  1
  C  265  1  0.27218200  0.04902200  0.40836000  1
  C  266  1  0.44618800  0.04900400  0.25625700  1
  C  271  1  0.04944100  0.76933000  0.84203100  1
  C  272  1  0.04918300  0.73656100  0.85442900  1
  C  273  1  0.04920400  0.71189600  0.83231400  1
  C  274  1  0.04951900  0.72859600  0.80551200  1
  C  275  1  0.04919300  0.70907200  0.77954100  1
  C  276  1  0.04902800  0.67234100  0.78015300  1
  C  277  1  0.04902500  0.65632800  0.80774600  1
  C  278  1  0.04901600  0.67574900  0.83359600  1
  C  279  1  0.04900700  0.73290900  0.88475200  1
  C  280  1  0.04901900  0.76241700  0.90262500  1
  C  281  1  0.04902200  0.79606100  0.89076900  1
  C  282  1  0.04915400  0.79894200  0.85994000  1
  C  283  1  0.07943400  0.78427200  0.79608800  1
  C  284  1  0.06773300  0.80910800  0.77663500  1
  C  285  1  0.03211100  0.80846700  0.77640800  1
  C  286  1  0.02018700  0.78379500  0.79600600  1
  C  287  1  0.00929000  0.82655800  0.75861500  1
  C  288  1  0.97426600  0.81825200  0.75978600  1
  C  289  1  0.96062200  0.79743800  0.78220000  1
  C  290  1  0.98434100  0.77885500  0.79976200  1
  C  291  1  0.11524800  0.77948200  0.79970900  1
  C  292  1  0.13949100  0.79977400  0.78388800  1
  C  293  1  0.12641300  0.82433100  0.76409300  1
  C  294  1  0.09080700  0.82913000  0.76037400  1
  C  307  1  0.04979500  0.76648200  0.80996100  1
  C  308  1  0.92506600  0.79638100  0.78641900  1
  C  309  1  0.17496600  0.79472000  0.78735100  1
  C  310  1  0.04901100  0.82565200  0.90831200  1
  C  311  1  0.04900600  0.65311800  0.75432100  1
  C  316  1  0.04859400  0.32831200  0.84212700  1
  C  317  1  0.04885300  0.36097300  0.85461100  1
  C  318  1  0.04883600  0.38543900  0.83260000  1
  C  319  1  0.04851500  0.36899900  0.80567100  1
  C  320  1  0.04885300  0.38872500  0.77979000  1
  C  321  1  0.04901800  0.42539200  0.78102900  1
  C  322  1  0.04901700  0.44085800  0.80886200  1
  C  323  1  0.04902400  0.42139300  0.83445000  1
  C  324  1  0.04903300  0.36489800  0.88488400  1
  C  325  1  0.04902200  0.33544800  0.90275600  1
  C  326  1  0.04901900  0.30179000  0.89087000  1
  C  327  1  0.04888400  0.29879400  0.86005400  1
  C  328  1  0.01859100  0.31356800  0.79613100  1
  C  329  1  0.03029800  0.28882800  0.77660500  1
  C  330  1  0.06593100  0.28946700  0.77637500  1
  C  331  1  0.07786600  0.31403400  0.79605000  1
  C  332  1  0.08876000  0.27146700  0.75853700  1
  C  333  1  0.12379200  0.27973700  0.75976900  1
  C  334  1  0.13743200  0.30060700  0.78215000  1
  C  335  1  0.11370100  0.31911600  0.79975200  1
  C  336  1  0.98278800  0.31849300  0.79970400  1
  C  337  1  0.95853200  0.29826200  0.78385100  1
  C  338  1  0.97159900  0.27369900  0.76404900  1
  C  339  1  0.00720500  0.26888500  0.76030900  1
  C  352  1  0.04824700  0.33119400  0.81006000  1
  C  353  1  0.17298400  0.30168300  0.78637700  1
  C  354  1  0.92306700  0.30333400  0.78734000  1
  C  355  1  0.04902900  0.27218800  0.90835100  1
  C  356  1  0.04904500  0.44619600  0.75620600  1
  C  361  1  0.88279200  0.83959500  0.76135200  1
  C  363  1  0.82640500  0.84520800  0.74049700  1
  C  364  1  0.83315600  0.87931700  0.73190500  1
  C  366  1  0.89039500  0.87398600  0.75251100  1
  C  368  1  0.92110900  0.89231000  0.75593500  1
  C  374  1  0.21526500  0.25844000  0.76136000  1
  C  376  1  0.27163600  0.25283900  0.74047800  1
  C  377  1  0.26488800  0.21872800  0.73189500  1
  C  379  1  0.20764200  0.22406400  0.75248500  1
  C  381  1  0.17682400  0.20586900  0.75572400  1
  C  387  1  0.83960000  0.21525000  0.26138100  1
  C  389  1  0.84521200  0.27163000  0.24051800  1
  C  390  1  0.87934500  0.26490800  0.23197200  1
  C  392  1  0.87398800  0.20764200  0.25253100  1
  C  394  1  0.89216900  0.17681100  0.25575100  1
  C  400  1  0.25844200  0.88280100  0.26138700  1
  C  402  1  0.25282700  0.82641500  0.24053700  1
  C  403  1  0.21869900  0.83313800  0.23198700  1
  C  405  1  0.22405600  0.89040800  0.25253800  1
  C  407  1  0.20573000  0.92112200  0.25596400  1
  C  413  1  0.21527700  0.25844800  0.23085000  1
  C  415  1  0.27164700  0.25284600  0.25173700  1
  C  416  1  0.26491400  0.21872000  0.26029200  1
  C  418  1  0.20765300  0.22407500  0.23972800  1
  C  420  1  0.17683300  0.20588500  0.23649100  1
  C  426  1  0.88277400  0.83957800  0.23091300  1
  C  428  1  0.82638900  0.84518800  0.25175900  1
  C  429  1  0.83312600  0.87930700  0.26033100  1
  C  431  1  0.89038100  0.87396800  0.23975400  1
  C  433  1  0.92109500  0.89229200  0.23633000  1
  C  439  1  0.25844400  0.88277500  0.73083200  1
  C  441  1  0.25283600  0.82639700  0.75169500  1
  C  442  1  0.21872200  0.83314500  0.76027800  1
  C  444  1  0.22405800  0.89039400  0.73968400  1
  C  446  1  0.20592700  0.92126800  0.73650300  1
  C  452  1  0.83958500  0.21526300  0.73086000  1
  C  454  1  0.84520100  0.27164400  0.75171900  1
  C  455  1  0.87932900  0.26491500  0.76026900  1
  C  457  1  0.87396800  0.20764500  0.73971900  1
  C  459  1  0.89216300  0.17682700  0.73647700  1
  C  465  1  0.58573800  0.04901200  0.74179800  1
  C  467  1  0.53489300  0.04903200  0.71228700  1
  C  468  1  0.51347900  0.04904000  0.73688000  1
  C  470  1  0.56444500  0.04901600  0.76707600  1
  C  472  1  0.57485300  0.04901100  0.79605800  1
  C  478  1  0.04902000  0.51230200  0.24181200  1
  C  480  1  0.04904500  0.56315200  0.21230500  1
  C  481  1  0.04904900  0.58456000  0.23690300  1
  C  483  1  0.04902700  0.53359200  0.26709300  1
  C  485  1  0.04902100  0.52318700  0.29607500  1
  C  491  1  0.58576200  0.04900400  0.25043200  1
  C  493  1  0.53488400  0.04897900  0.27993900  1
  C  494  1  0.51345400  0.04897500  0.25535200  1
  C  496  1  0.56445000  0.04899800  0.22515600  1
  C  498  1  0.57485200  0.04900400  0.19616900  1
  C  504  1  0.04902200  0.58576900  0.75042000  1
  C  506  1  0.04904600  0.53488900  0.77991800  1
  C  507  1  0.04905000  0.51346200  0.75533000  1
  C  509  1  0.04902800  0.56446100  0.72514200  1
  C  511  1  0.04902100  0.57486200  0.69615500  1
  C  517  1  0.82910200  0.04900000  0.46519400  1
  C  519  1  0.79406400  0.04902200  0.50810500  1
  C  520  1  0.82317900  0.04903100  0.52621200  1
  C  522  1  0.85909700  0.04900900  0.48321200  1
  C  524  1  0.89353300  0.04900600  0.47446300  1
  C  530  1  0.26893100  0.04904900  0.46521200  1
  C  532  1  0.30397500  0.04902800  0.50808300  1
  C  533  1  0.27484300  0.04902000  0.52616800  1
  C  535  1  0.23892900  0.04904200  0.48320800  1
  C  537  1  0.20449700  0.04904700  0.47444500  1
  C  543  1  0.04900200  0.26893800  0.96522400  1
  C  545  1  0.04902000  0.30398000  0.00811400  1
  C  546  1  0.04903000  0.27486200  0.02622100  1
  C  548  1  0.04900600  0.23894200  0.98322900  1
  C  550  1  0.04900100  0.20451200  0.97447000  1
  C  556  1  0.04903500  0.82904500  0.96521500  1
  C  558  1  0.04901000  0.79406700  0.00812300  1
  C  559  1  0.04900200  0.82319800  0.02621100  1
  C  561  1  0.04902700  0.85907100  0.98322300  1
  C  563  1  0.04903200  0.89353200  0.97449200  1
  C  569  1  0.33152300  0.63667100  0.39029200  1
  C  570  1  0.29861000  0.63692500  0.37813500  1
  C  571  1  0.27402900  0.63691100  0.40008000  1
  C  572  1  0.29081500  0.63659500  0.42679400  1
  C  573  1  0.27126000  0.63692500  0.45268800  1
  C  574  1  0.23453600  0.63708700  0.45196800  1
  C  575  1  0.21848700  0.63709200  0.42438300  1
  C  576  1  0.23791800  0.63710400  0.39858400  1
  C  577  1  0.29429600  0.63710500  0.34800200  1
  C  578  1  0.32347300  0.63709600  0.33007700  1
  C  579  1  0.35742200  0.63709900  0.34143100  1
  C  580  1  0.36102200  0.63696400  0.37218500  1
  C  581  1  0.34606000  0.66593800  0.43613800  1
  C  582  1  0.37083100  0.65401300  0.45563500  1
  C  583  1  0.37143300  0.61837800  0.45543800  1
  C  584  1  0.34652400  0.60666800  0.43606700  1
  C  585  1  0.39148500  0.59529000  0.47164300  1
  C  586  1  0.38667000  0.55968300  0.46790900  1
  C  587  1  0.36211100  0.54661200  0.44810800  1
  C  588  1  0.34178500  0.57086300  0.43233500  1
  C  589  1  0.34116100  0.70177600  0.43228900  1
  C  590  1  0.35976000  0.72550900  0.44982400  1
  C  591  1  0.38061200  0.71187200  0.47221600  1
  C  592  1  0.38893700  0.67684700  0.47339500  1
  C  605  1  0.32870300  0.63631900  0.42230500  1
  C  606  1  0.35704900  0.51114400  0.44462800  1
  C  607  1  0.35868600  0.76106100  0.44558200  1
  C  608  1  0.38569100  0.63711400  0.32246700  1
  C  609  1  0.21536500  0.63709900  0.47776700  1
  C  614  1  0.89074600  0.63751000  0.39014400  1
  C  615  1  0.92356040  0.63725500  0.37790100  1
  C  616  1  0.94793540  0.63727600  0.39974400  1
  C  617  1  0.93141140  0.63758900  0.42658600  1
  C  618  1  0.95117040  0.63725500  0.45239300  1
  C  619  1  0.98782940  0.63709500  0.45105100  1
  C  620  1  0.00332400  0.63708700  0.42322000  1
  C  621  1  0.98385340  0.63707800  0.39768600  1
  C  622  1  0.92814140  0.63707600  0.34782200  1
  C  623  1  0.89903100  0.63708600  0.32989700  1
  C  624  1  0.86508700  0.63708100  0.34128100  1
  C  625  1  0.86134300  0.63721600  0.37201800  1
  C  626  1  0.87641000  0.60822600  0.43604500  1
  C  627  1  0.85179300  0.62016700  0.45566100  1
  C  628  1  0.85112400  0.65580700  0.45541000  1
  C  629  1  0.87593600  0.66752600  0.43596700  1
  C  630  1  0.83115200  0.67891700  0.47165400  1
  C  631  1  0.83598200  0.71452400  0.46790000  1
  C  632  1  0.86054700  0.72758400  0.44809500  1
  C  633  1  0.88081500  0.70332100  0.43229100  1
  C  634  1  0.88144300  0.57239900  0.43224400  1
  C  635  1  0.86291100  0.54865900  0.44980900  1
  C  636  1  0.84204300  0.56229000  0.47219800  1
  C  637  1  0.83373700  0.59731600  0.47343000  1
  C  650  1  0.89360300  0.63785900  0.42215400  1
  C  651  1  0.86563000  0.76304400  0.44460600  1
  C  652  1  0.86399200  0.51311200  0.44556700  1
  C  653  1  0.83685700  0.63707000  0.32237000  1
  C  654  1  0.00858200  0.63708100  0.47584400  1
  C  659  1  0.61092900  0.91690630  0.89030400  1
  C  660  1  0.61118400  0.94981930  0.87814700  1
  C  661  1  0.61116800  0.97439630  0.90009230  1
  C  662  1  0.61085000  0.95761130  0.92680630  1
  C  663  1  0.61118400  0.97716630  0.95270030  1
  C  664  1  0.61134400  0.01389200  0.95198030  1
  C  665  1  0.61135300  0.02993900  0.92439730  1
  C  666  1  0.61136100  0.01051000  0.89859800  1
  C  667  1  0.61136000  0.95413330  0.84801600  1
  C  668  1  0.61135100  0.92495430  0.83008900  1
  C  669  1  0.61135500  0.89100600  0.84144100  1
  C  670  1  0.61121800  0.88740500  0.87219400  1
  C  671  1  0.64019300  0.90236830  0.93615230  1
  C  672  1  0.62826400  0.87760400  0.95565430  1
  C  673  1  0.59263200  0.87698900  0.95544830  1
  C  674  1  0.58092100  0.90190030  0.93607930  1
  C  675  1  0.56954200  0.85694100  0.97165530  1
  C  676  1  0.53393600  0.86175500  0.96792130  1
  C  677  1  0.52086500  0.88631100  0.94811830  1
  C  678  1  0.54511700  0.90663930  0.93234930  1
  C  679  1  0.67603100  0.90727830  0.93230530  1
  C  680  1  0.69976600  0.88867500  0.94982930  1
  C  681  1  0.68612700  0.86782100  0.97222130  1
  C  682  1  0.65109700  0.85953400  0.97343830  1
  C  695  1  0.61057500  0.91972330  0.92231730  1
  C  696  1  0.48539600  0.89136500  0.94463130  1
  C  697  1  0.73531800  0.88974800  0.94560130  1
  C  698  1  0.61136600  0.86273700  0.82247700  1
  C  699  1  0.61136100  0.03306300  0.97777930  1
  C  704  1  0.61174800  0.35768400  0.89020600  1
  C  705  1  0.61149600  0.32487100  0.87796300  1
  C  706  1  0.61151300  0.30049600  0.89980600  1
  C  707  1  0.61182600  0.31702000  0.92664830  1
  C  708  1  0.61149300  0.29725900  0.95245530  1
  C  709  1  0.61133100  0.26059900  0.95110930  1
  C  710  1  0.61132200  0.24510700  0.92327830  1
  C  711  1  0.61130700  0.26458000  0.89774600  1
  C  712  1  0.61131100  0.32029000  0.84788300  1
  C  713  1  0.61132200  0.34939800  0.82995600  1
  C  714  1  0.61131900  0.38334300  0.84134100  1
  C  715  1  0.61145500  0.38708800  0.87207900  1
  C  716  1  0.58246500  0.37201400  0.93611130  1
  C  717  1  0.59440300  0.39664500  0.95571730  1
  C  718  1  0.63004300  0.39733000  0.95545230  1
  C  719  1  0.64176600  0.37249100  0.93603330  1
  C  720  1  0.65315200  0.41727300  0.97172230  1
  C  721  1  0.68875900  0.41244500  0.96796630  1
  C  722  1  0.70182300  0.38788300  0.94816230  1
  C  723  1  0.67756000  0.36761300  0.93236030  1
  C  724  1  0.54664100  0.36697500  0.93231430  1
  C  725  1  0.52290400  0.38551700  0.94987730  1
  C  726  1  0.53652900  0.40633000  0.97230330  1
  C  727  1  0.57154300  0.41472400  0.97346430  1
  C  740  1  0.61209900  0.35482500  0.92221830  1
  C  741  1  0.73728500  0.38281000  0.94466430  1
  C  742  1  0.48736000  0.38443900  0.94562230  1
  C  743  1  0.61130700  0.41157100  0.82242100  1
  C  744  1  0.61132300  0.23984100  0.97589730  1
  C  749  1  0.33163600  0.63665800  0.08181700  1
  C  750  1  0.29887100  0.63691600  0.09421900  1
  C  751  1  0.27420500  0.63689500  0.07210500  1
  C  752  1  0.29090500  0.63657700  0.04530200  1
  C  753  1  0.27138500  0.63690800  0.01933200  1
  C  754  1  0.23465300  0.63706800  0.01994600  1
  C  755  1  0.21863900  0.63706900  0.04753800  1
  C  756  1  0.23805800  0.63708000  0.07338800  1
  C  757  1  0.29522000  0.63708900  0.12454300  1
  C  758  1  0.32473700  0.63708000  0.14241000  1
  C  759  1  0.35840300  0.63707900  0.13055000  1
  C  760  1  0.36125200  0.63694700  0.09972100  1
  C  761  1  0.34658200  0.60666800  0.03588000  1
  C  762  1  0.37142200  0.61836600  0.01642600  1
  C  763  1  0.37078100  0.65398800  0.01619600  1
  C  764  1  0.34610900  0.66591400  0.03579500  1
  C  765  1  0.38886900  0.67680600  0.99839929  1
  C  766  1  0.38056800  0.71183300  0.99957029  1
  C  767  1  0.35975100  0.72547900  0.02198400  1
  C  768  1  0.34117600  0.70176000  0.03955500  1
  C  769  1  0.34179100  0.57085600  0.03950500  1
  C  770  1  0.36208100  0.54661000  0.02368400  1
  C  771  1  0.38664000  0.55968300  0.00388600  1
  C  772  1  0.39144300  0.59529000  0.00016700  1
  C  785  1  0.32879200  0.63630900  0.04975000  1
  C  786  1  0.35869600  0.76103700  0.02621000  1
  C  787  1  0.35702400  0.51114100  0.02716500  1
  C  788  1  0.38806000  0.63709000  0.14806300  1
  C  789  1  0.21543200  0.63709000  0.99411229  1
  C  794  1  0.89063800  0.63752300  0.08195800  1
  C  795  1  0.92329640  0.63726900  0.09444700  1
  C  796  1  0.94775840  0.63728300  0.07243600  1
  C  797  1  0.93131840  0.63759700  0.04550800  1
  C  798  1  0.95104340  0.63726600  0.01962700  1
  C  799  1  0.98771040  0.63709900  0.02086300  1
  C  800  1  0.00317700  0.63710500  0.04869600  1
  C  801  1  0.98371240  0.63709600  0.07428400  1
  C  802  1  0.92721440  0.63708700  0.12472100  1
  C  803  1  0.89776000  0.63709500  0.14258800  1
  C  804  1  0.86411300  0.63709700  0.13068700  1
  C  805  1  0.86111700  0.63723300  0.09987500  1
  C  806  1  0.87588200  0.66752800  0.03597100  1
  C  807  1  0.85112000  0.65581900  0.01646700  1
  C  808  1  0.85178700  0.62018400  0.01621400  1
  C  809  1  0.87635800  0.60825100  0.03588600  1
  C  810  1  0.83378400  0.59735700  0.99837829  1
  C  811  1  0.84205600  0.56232500  0.99960729  1
  C  812  1  0.86291400  0.54868600  0.02199500  1
  C  813  1  0.88144100  0.57241600  0.03958400  1
  C  814  1  0.88081000  0.70333300  0.03954000  1
  C  815  1  0.86057200  0.72758800  0.02369100  1
  C  816  1  0.83601300  0.71451600  0.00388800  1
  C  817  1  0.83120100  0.67890900  0.00014900  1
  C  830  1  0.89351500  0.63787200  0.04989500  1
  C  831  1  0.86398300  0.51313500  0.02622800  1
  C  832  1  0.86564600  0.76305500  0.02716500  1
  C  833  1  0.83450200  0.63708800  0.14813900  1
  C  834  1  0.00850800  0.63707000  0.99603629  1
  C  839  1  0.61176100  0.35739600  0.58181000  1
  C  840  1  0.61150300  0.32462700  0.59420800  1
  C  841  1  0.61152400  0.29996200  0.57209300  1
  C  842  1  0.61183900  0.31666200  0.54529100  1
  C  843  1  0.61151300  0.29713800  0.51932000  1
  C  844  1  0.61134800  0.26040700  0.51993200  1
  C  845  1  0.61134500  0.24439400  0.54752500  1
  C  846  1  0.61133600  0.26381500  0.57337500  1
  C  847  1  0.61132700  0.32097500  0.62453100  1
  C  848  1  0.61133900  0.35048300  0.64240400  1
  C  849  1  0.61134200  0.38412700  0.63054800  1
  C  850  1  0.61147400  0.38700800  0.59971900  1
  C  851  1  0.64175400  0.37233800  0.53586700  1
  C  852  1  0.63005300  0.39717400  0.51641400  1
  C  853  1  0.59443100  0.39653300  0.51618700  1
  C  854  1  0.58250700  0.37186100  0.53578500  1
  C  855  1  0.57161000  0.41462400  0.49839400  1
  C  856  1  0.53658600  0.40631800  0.49956500  1
  C  857  1  0.52294200  0.38550400  0.52197900  1
  C  858  1  0.54666100  0.36692100  0.53954100  1
  C  859  1  0.67756800  0.36754800  0.53948800  1
  C  860  1  0.70181100  0.38784000  0.52366700  1
  C  861  1  0.68873300  0.41239700  0.50387200  1
  C  862  1  0.65312700  0.41719600  0.50015300  1
  C  875  1  0.61211500  0.35454800  0.54974000  1
  C  876  1  0.48738600  0.38444700  0.52619800  1
  C  877  1  0.73728600  0.38278600  0.52713000  1
  C  878  1  0.61133100  0.41371800  0.64809100  1
  C  879  1  0.61132600  0.24118400  0.49410000  1
  C  884  1  0.61091400  0.91637830  0.58190600  1
  C  885  1  0.61117300  0.94903930  0.59439000  1
  C  886  1  0.61115600  0.97350530  0.57237900  1
  C  887  1  0.61083500  0.95706530  0.54545000  1
  C  888  1  0.61117300  0.97679130  0.51956900  1
  C  889  1  0.61133800  0.01345800  0.52080800  1
  C  890  1  0.61133700  0.02892400  0.54864100  1
  C  891  1  0.61134400  0.00945900  0.57422900  1
  C  892  1  0.61135300  0.95296430  0.62466300  1
  C  893  1  0.61134200  0.92351430  0.64253500  1
  C  894  1  0.61133900  0.88985600  0.63064900  1
  C  895  1  0.61120400  0.88686000  0.59983300  1
  C  896  1  0.58091100  0.90163430  0.53591000  1
  C  897  1  0.59261800  0.87689400  0.51638400  1
  C  898  1  0.62825100  0.87753300  0.51615400  1
  C  899  1  0.64018600  0.90210030  0.53582900  1
  C  900  1  0.65108000  0.85953300  0.49831600  1
  C  901  1  0.68611200  0.86780300  0.49954800  1
  C  902  1  0.69975200  0.88867300  0.52192900  1
  C  903  1  0.67602100  0.90718230  0.53953100  1
  C  904  1  0.54510800  0.90655930  0.53948300  1
  C  905  1  0.52085200  0.88632800  0.52363000  1
  C  906  1  0.53391900  0.86176500  0.50382800  1
  C  907  1  0.56952500  0.85695100  0.50008800  1
  C  920  1  0.61056700  0.91926030  0.54983900  1
  C  921  1  0.73530400  0.88974900  0.52615600  1
  C  922  1  0.48538700  0.89140000  0.52711900  1
  C  923  1  0.61134900  0.86025400  0.64813000  1
  C  924  1  0.61136500  0.03426200  0.49598500  1
  C  929  1  0.44511200  0.42766100  0.50113100  1
  C  931  1  0.38872500  0.43327400  0.48027600  1
  C  932  1  0.39547600  0.46738300  0.47168400  1
  C  934  1  0.45271500  0.46205200  0.49229000  1
  C  936  1  0.48342900  0.48037600  0.49571400  1
  C  942  1  0.77758500  0.84650600  0.50113900  1
  C  944  1  0.83395600  0.84090500  0.48025700  1
  C  945  1  0.82720800  0.80679400  0.47167400  1
  C  947  1  0.76996200  0.81213000  0.49226400  1
  C  949  1  0.73914400  0.79393500  0.49550300  1
  C  955  1  0.40192000  0.80331600  0.00116000  1
  C  957  1  0.40753200  0.85969600  0.98029730  1
  C  958  1  0.44166500  0.85297400  0.97175130  1
  C  960  1  0.43630800  0.79570800  0.99231029  1
  C  962  1  0.45448900  0.76487700  0.99553029  1
  C  968  1  0.82076200  0.47086700  0.00116600  1
  C  970  1  0.81514700  0.41448100  0.98031630  1
  C  971  1  0.78101900  0.42120400  0.97176630  1
  C  973  1  0.78637600  0.47847400  0.99231729  1
  C  975  1  0.76805000  0.50918800  0.99574329  1
  C  981  1  0.77759700  0.84651400  0.97062930  1
  C  983  1  0.83396700  0.84091200  0.99151629  1
  C  984  1  0.82723400  0.80678600  0.00007100  1
  C  986  1  0.76997300  0.81214100  0.97950730  1
  C  988  1  0.73915300  0.79395100  0.97627030  1
  C  994  1  0.44509400  0.42764400  0.97069230  1
  C  996  1  0.38870900  0.43325400  0.99153829  1
  C  997  1  0.39544600  0.46737300  0.00011000  1
  C  999  1  0.45270100  0.46203400  0.97953330  1
  C  1001  1  0.48341500  0.48035800  0.97610930  1
  C  1007  1  0.82076400  0.47084100  0.47061100  1
  C  1009  1  0.81515600  0.41446300  0.49147400  1
  C  1010  1  0.78104200  0.42121100  0.50005700  1
  C  1012  1  0.78637800  0.47846000  0.47946300  1
  C  1014  1  0.76824700  0.50933400  0.47628200  1
  C  1020  1  0.40190500  0.80332900  0.47063900  1
  C  1022  1  0.40752100  0.85971000  0.49149800  1
  C  1023  1  0.44164900  0.85298100  0.50004800  1
  C  1025  1  0.43628800  0.79571100  0.47949800  1
  C  1027  1  0.45448300  0.76489300  0.47625600  1
  C  1033  1  0.14805800  0.63707800  0.48157700  1
  C  1035  1  0.09721300  0.63709800  0.45206600  1
  C  1036  1  0.07579900  0.63710600  0.47665900  1
  C  1038  1  0.12676500  0.63708200  0.50685500  1
  C  1040  1  0.13717300  0.63707700  0.53583700  1
  C  1046  1  0.61134000  0.10036800  0.98159130  1
  C  1048  1  0.61136500  0.15121800  0.95208430  1
  C  1049  1  0.61136900  0.17262600  0.97668230  1
  C  1051  1  0.61134700  0.12165800  0.00687200  1
  C  1053  1  0.61134100  0.11125300  0.03585400  1
  C  1059  1  0.14808200  0.63707000  0.99021129  1
  C  1061  1  0.09720400  0.63704500  0.01971800  1
  C  1062  1  0.07577400  0.63704100  0.99513129  1
  C  1064  1  0.12677000  0.63706400  0.96493530  1
  C  1066  1  0.13717200  0.63707000  0.93594830  1
  C  1072  1  0.61134200  0.17383500  0.49019900  1
  C  1074  1  0.61136600  0.12295500  0.51969700  1
  C  1075  1  0.61137000  0.10152800  0.49510900  1
  C  1077  1  0.61134800  0.15252700  0.46492100  1
  C  1079  1  0.61134100  0.16292800  0.43593400  1
  C  1085  1  0.39142200  0.63706600  0.20497300  1
  C  1087  1  0.35638400  0.63708800  0.24788400  1
  C  1088  1  0.38549900  0.63709700  0.26599100  1
  C  1090  1  0.42141700  0.63707500  0.22299100  1
  C  1092  1  0.45585300  0.63707200  0.21424200  1
  C  1098  1  0.83125100  0.63711500  0.20499100  1
  C  1100  1  0.86629500  0.63709400  0.24786200  1
  C  1101  1  0.83716300  0.63708600  0.26594700  1
  C  1103  1  0.80124900  0.63710800  0.22298700  1
  C  1105  1  0.76681700  0.63711300  0.21422400  1
  C  1111  1  0.61132200  0.85700400  0.70500300  1
  C  1113  1  0.61134000  0.89204600  0.74789300  1
  C  1114  1  0.61135000  0.86292800  0.76600000  1
  C  1116  1  0.61132600  0.82700800  0.72300800  1
  C  1118  1  0.61132100  0.79257800  0.71424900  1
  C  1124  1  0.61135500  0.41711100  0.70499400  1
  C  1126  1  0.61133000  0.38213300  0.74790200  1
  C  1127  1  0.61132200  0.41126400  0.76599000  1
  C  1129  1  0.61134700  0.44713700  0.72300200  1
  C  1131  1  0.61135200  0.48159800  0.71427100  1
  N  362  1  0.85107100  0.82705700  0.75475300  1
  N  365  1  0.86492200  0.89139800  0.73818800  1
  N  372  1  0.90369700  0.81732700  0.77432100  1
  N  373  1  0.81055800  0.89722200  0.71630300  1
  N  375  1  0.24697600  0.27098800  0.75474000  1
  N  378  1  0.23311200  0.20665100  0.73815500  1
  N  385  1  0.19434600  0.28071500  0.77429800  1
  N  386  1  0.28749100  0.20084000  0.71628100  1
  N  388  1  0.82705500  0.24696300  0.25476500  1
  N  391  1  0.89140000  0.23311400  0.23820400  1
  N  398  1  0.81733100  0.19433700  0.27433800  1
  N  399  1  0.89721600  0.28749600  0.21632800  1
  N  401  1  0.27098300  0.85108400  0.25478400  1
  N  404  1  0.20663700  0.86492400  0.23823200  1
  N  411  1  0.28071600  0.90369500  0.27435700  1
  N  412  1  0.20082900  0.81054700  0.21635200  1
  N  414  1  0.24698500  0.27099900  0.23747700  1
  N  417  1  0.23312800  0.20666100  0.25405100  1
  N  424  1  0.19436200  0.28072000  0.21790700  1
  N  425  1  0.28751600  0.20085300  0.27592500  1
  N  427  1  0.85105800  0.82703400  0.23751400  1
  N  430  1  0.86490100  0.89138300  0.25406900  1
  N  437  1  0.90366200  0.81730800  0.21793900  1
  N  438  1  0.81052900  0.89721200  0.27593400  1
  N  440  1  0.27098500  0.85105800  0.73743300  1
  N  443  1  0.20664800  0.86492100  0.75401800  1
  N  450  1  0.28072000  0.90367600  0.71787500  1
  N  451  1  0.20081800  0.81054900  0.77588900  1
  N  453  1  0.82704900  0.24697700  0.73747200  1
  N  456  1  0.89138900  0.23312600  0.75403100  1
  N  463  1  0.81729200  0.19439800  0.71788000  1
  N  464  1  0.89719500  0.28752300  0.77589100  1
  N  466  1  0.56960300  0.04901900  0.71568900  1
  N  469  1  0.52955700  0.04903100  0.76286700  1
  N  476  1  0.62003100  0.04902200  0.74110200  1
  N  477  1  0.47941300  0.04902700  0.73507400  1
  N  479  1  0.04903200  0.52844100  0.21570300  1
  N  482  1  0.04903800  0.56847800  0.26288600  1
  N  489  1  0.04903100  0.47800900  0.24111200  1
  N  490  1  0.04902600  0.61862500  0.23511600  1
  N  492  1  0.56960000  0.04899200  0.27653400  1
  N  495  1  0.52955100  0.04898700  0.22936700  1
  N  502  1  0.62008600  0.04901400  0.25116700  1
  N  503  1  0.47935900  0.04898800  0.25719800  1
  N  505  1  0.04903100  0.56960500  0.77651800  1
  N  508  1  0.04904000  0.52956600  0.72934900  1
  N  515  1  0.04901400  0.62009400  0.75115500  1
  N  516  1  0.04904700  0.47936500  0.75715800  1
  N  518  1  0.79814900  0.04900900  0.47886700  1
  N  521  1  0.85408600  0.04902300  0.51266300  1
  N  528  1  0.82752900  0.04901200  0.43624700  1
  N  529  1  0.81980800  0.04903900  0.55488600  1
  N  531  1  0.29990100  0.04904200  0.47885400  1
  N  534  1  0.24393100  0.04902800  0.51264800  1
  N  541  1  0.27038900  0.04903500  0.43629900  1
  N  542  1  0.27817100  0.04901100  0.55481000  1
  N  544  1  0.04900900  0.29990000  0.97888000  1
  N  547  1  0.04902000  0.24395300  0.01267500  1
  N  554  1  0.04901500  0.27045600  0.93629900  1
  N  555  1  0.04903900  0.27823000  0.05489600  1
  N  557  1  0.04902400  0.79810800  0.97888900  1
  N  560  1  0.04901300  0.85409900  0.01267300  1
  N  567  1  0.04902300  0.82778100  0.93625600  1
  N  568  1  0.04899300  0.81987600  0.05486100  1
  N  930  1  0.41339100  0.41512300  0.49453200  1
  N  933  1  0.42724200  0.47946400  0.47796700  1
  N  940  1  0.46601700  0.40539300  0.51410000  1
  N  941  1  0.37287800  0.48528800  0.45608200  1
  N  943  1  0.80929600  0.85905400  0.49451900  1
  N  946  1  0.79543200  0.79471700  0.47793400  1
  N  953  1  0.75666600  0.86878100  0.51407700  1
  N  954  1  0.84981100  0.78890600  0.45606000  1
  N  956  1  0.38937500  0.83502900  0.99454429  1
  N  959  1  0.45372000  0.82118000  0.97798330  1
  N  966  1  0.37965100  0.78240300  0.01411700  1
  N  967  1  0.45953600  0.87556200  0.95610730  1
  N  969  1  0.83330300  0.43915000  0.99456329  1
  N  972  1  0.76895700  0.45299000  0.97801130  1
  N  979  1  0.84303600  0.49176100  0.01413600  1
  N  980  1  0.76314900  0.39861300  0.95613130  1
  N  982  1  0.80930500  0.85906500  0.97725630  1
  N  985  1  0.79544800  0.79472700  0.99383029  1
  N  992  1  0.75668200  0.86878600  0.95768630  1
  N  993  1  0.84983600  0.78891900  0.01570400  1
  N  995  1  0.41337800  0.41510000  0.97729330  1
  N  998  1  0.42722100  0.47944900  0.99384829  1
  N  1005  1  0.46598200  0.40537400  0.95771830  1
  N  1006  1  0.37284900  0.48527800  0.01571300  1
  N  1008  1  0.83330500  0.43912400  0.47721200  1
  N  1011  1  0.76896800  0.45298700  0.49379700  1
  N  1018  1  0.84304000  0.49174200  0.45765400  1
  N  1019  1  0.76313800  0.39861500  0.51566800  1
  N  1021  1  0.38936900  0.83504300  0.47725100  1
  N  1024  1  0.45370900  0.82119200  0.49381000  1
  N  1031  1  0.37961200  0.78246400  0.45765900  1
  N  1032  1  0.45951500  0.87558900  0.51567000  1
  N  1034  1  0.13192300  0.63708500  0.45546800  1
  N  1037  1  0.09187700  0.63709700  0.50264600  1
  N  1044  1  0.18235100  0.63708800  0.48088100  1
  N  1045  1  0.04173300  0.63709300  0.47485300  1
  N  1047  1  0.61135200  0.11650700  0.95548230  1
  N  1050  1  0.61135800  0.15654400  0.00266500  1
  N  1057  1  0.61135100  0.06607500  0.98089130  1
  N  1058  1  0.61134600  0.20669100  0.97489530  1
  N  1060  1  0.13192000  0.63705800  0.01631300  1
  N  1063  1  0.09187100  0.63705300  0.96914630  1
  N  1070  1  0.18240600  0.63708000  0.99094629  1
  N  1071  1  0.04167900  0.63705400  0.99697729  1
  N  1073  1  0.61135100  0.15767100  0.51629700  1
  N  1076  1  0.61136000  0.11763200  0.46912800  1
  N  1083  1  0.61133400  0.20816000  0.49093400  1
  N  1084  1  0.61136700  0.06743100  0.49693700  1
  N  1086  1  0.36046900  0.63707500  0.21864600  1
  N  1089  1  0.41640600  0.63708900  0.25244200  1
  N  1096  1  0.38984900  0.63707800  0.17602600  1
  N  1097  1  0.38212800  0.63710500  0.29466500  1
  N  1099  1  0.86222100  0.63710800  0.21863300  1
  N  1102  1  0.80625100  0.63709400  0.25242700  1
  N  1109  1  0.83270900  0.63710100  0.17607800  1
  N  1110  1  0.84049100  0.63707700  0.29458900  1
  N  1112  1  0.61132900  0.88796600  0.71865900  1
  N  1115  1  0.61134000  0.83201900  0.75245400  1
  N  1122  1  0.61133500  0.85852200  0.67607800  1
  N  1123  1  0.61135900  0.86629600  0.79467500  1
  N  1125  1  0.61134400  0.38617400  0.71866800  1
  N  1128  1  0.61133300  0.44216500  0.75245200  1
  N  1135  1  0.61134300  0.41584700  0.67603500  1
  N  1136  1  0.61131300  0.40794200  0.79464000  1
  O  369  1  0.92327400  0.92117800  0.74552100  1
  O  370  1  0.94529600  0.88595900  0.77222000  1
  O  382  1  0.17479300  0.17685600  0.74557800  1
  O  383  1  0.15279700  0.21201000  0.77225000  1
  O  395  1  0.92119100  0.17479000  0.24561800  1
  O  396  1  0.88603300  0.15279400  0.27228600  1
  O  408  1  0.17685900  0.92328200  0.24555700  1
  O  409  1  0.21207500  0.94530300  0.27225800  1
  O  421  1  0.17480400  0.17686800  0.24663300  1
  O  422  1  0.15281300  0.21201800  0.21995800  1
  O  434  1  0.92325700  0.92116100  0.24674100  1
  O  435  1  0.94527900  0.88594500  0.22003800  1
  O  447  1  0.17686500  0.92320300  0.74657100  1
  O  448  1  0.21198600  0.94522600  0.71989400  1
  O  460  1  0.92118000  0.17480100  0.74661700  1
  O  461  1  0.88602300  0.15280600  0.71994600  1
  O  473  1  0.55298600  0.04902500  0.81516800  1
  O  474  1  0.60433700  0.04898900  0.80570000  1
  O  486  1  0.04903300  0.54505300  0.31518400  1
  O  487  1  0.04899500  0.49370300  0.30571600  1
  O  499  1  0.55298700  0.04899100  0.17706100  1
  O  500  1  0.60433700  0.04903000  0.18652600  1
  O  512  1  0.04903400  0.55299500  0.67704400  1
  O  513  1  0.04899800  0.60434600  0.68651200  1
  O  525  1  0.91620500  0.04901900  0.49289700  1
  O  526  1  0.90504100  0.04897900  0.44964800  1
  O  538  1  0.18181900  0.04903200  0.49287500  1
  O  539  1  0.19299400  0.04907200  0.44963100  1
  O  551  1  0.04901400  0.18183800  0.99290100  1
  O  552  1  0.04897600  0.19300500  0.94965600  1
  O  564  1  0.04901900  0.91620700  0.99293000  1
  O  565  1  0.04905600  0.90504700  0.94968100  1
  O  937  1  0.48559400  0.50924400  0.48530000  1
  O  938  1  0.50761600  0.47402500  0.51199900  1
  O  950  1  0.73711300  0.76492200  0.48535700  1
  O  951  1  0.71511700  0.80007600  0.51202900  1
  O  963  1  0.48351100  0.76285600  0.98539730  1
  O  964  1  0.44835300  0.74086000  0.01206500  1
  O  976  1  0.73917900  0.51134800  0.98533630  1
  O  977  1  0.77439500  0.53336900  0.01203700  1
  O  989  1  0.73712400  0.76493400  0.98641230  1
  O  990  1  0.71513300  0.80008400  0.95973730  1
  O  1002  1  0.48557700  0.50922700  0.98652030  1
  O  1003  1  0.50759900  0.47401100  0.95981730  1
  O  1015  1  0.73918500  0.51126900  0.48635000  1
  O  1016  1  0.77430600  0.53329200  0.45967300  1
  O  1028  1  0.48350000  0.76286700  0.48639600  1
  O  1029  1  0.44834300  0.74087200  0.45972500  1
  O  1041  1  0.11530600  0.63709100  0.55494700  1
  O  1042  1  0.16665700  0.63705500  0.54547900  1
  O  1054  1  0.61135300  0.13311900  0.05496300  1
  O  1055  1  0.61131500  0.08176900  0.04549500  1
  O  1067  1  0.11530700  0.63705700  0.91684030  1
  O  1068  1  0.16665700  0.63709600  0.92630530  1
  O  1080  1  0.61135400  0.14106100  0.41682300  1
  O  1081  1  0.61131800  0.19241200  0.42629100  1
  O  1093  1  0.47852500  0.63708500  0.23267600  1
  O  1094  1  0.46736100  0.63704500  0.18942700  1
  O  1106  1  0.74413900  0.63709800  0.23265400  1
  O  1107  1  0.75531400  0.63713800  0.18941000  1
  O  1119  1  0.61133400  0.76990400  0.73268000  1
  O  1120  1  0.61129600  0.78107100  0.68943500  1
  O  1132  1  0.61133900  0.50427300  0.73270900  1
  O  1133  1  0.61137600  0.49311300  0.68946000  1
