# generated using pymatgen
data_H12C20(NO)3
_symmetry_space_group_name_H-M   'P 1'
_cell_length_a   50.40550000
_cell_length_b   58.06990000
_cell_length_c   75.80580000
_cell_angle_alpha   90.00460000
_cell_angle_beta   90.45170000
_cell_angle_gamma   89.41040000
_symmetry_Int_Tables_number   1
_chemical_formula_structural   H12C20(NO)3
_chemical_formula_sum   'H768 C1280 N192 O192'
_cell_volume   221868.14351402
_cell_formula_units_Z   64
loop_
 _symmetry_equiv_pos_site_id
 _symmetry_equiv_pos_as_xyz
  1  'x, y, z'
loop_
 _atom_site_type_symbol
 _atom_site_label
 _atom_site_symmetry_multiplicity
 _atom_site_fract_x
 _atom_site_fract_y
 _atom_site_fract_z
 _atom_site_occupancy
  H  7  1  0.88162300  0.84815100  0.85814200  1
  H  8  1  0.88198300  0.82743300  0.91124200  1
  H  15  1  0.95325600  0.91449900  0.82346300  1
  H  16  1  0.91649500  0.91024800  0.87273600  1
  H  19  1  0.93539700  0.89369900  0.90154800  1
  H  20  1  0.91592000  0.83974200  0.83520500  1
  H  25  1  0.92556600  0.95002100  0.84900200  1
  H  26  1  0.93824400  0.85207000  0.92491600  1
  H  27  1  0.86169200  0.80387400  0.88736400  1
  H  28  1  0.94254700  0.85658300  0.81047600  1
  H  35  1  0.14302400  0.18772200  0.85979900  1
  H  36  1  0.14405600  0.20817300  0.91298000  1
  H  43  1  0.06839700  0.12106400  0.82628200  1
  H  44  1  0.10944900  0.12532300  0.87438400  1
  H  47  1  0.09087000  0.14159700  0.90324500  1
  H  48  1  0.10702800  0.19583300  0.83716400  1
  H  53  1  0.09871000  0.08619900  0.85634300  1
  H  54  1  0.08826200  0.18326900  0.92661500  1
  H  55  1  0.16102800  0.23281100  0.88732100  1
  H  56  1  0.07501000  0.18080900  0.81422100  1
  H  63  1  0.88052100  0.17955100  0.64104100  1
  H  64  1  0.87129700  0.19776800  0.58762600  1
  H  71  1  0.96658900  0.12367800  0.67349500  1
  H  72  1  0.92148400  0.12391900  0.62667400  1
  H  75  1  0.94174500  0.14334500  0.59777400  1
  H  76  1  0.92064800  0.19549600  0.66243900  1
  H  81  1  0.93423700  0.08624500  0.64977600  1
  H  82  1  0.93398200  0.18389700  0.57380000  1
  H  83  1  0.83318500  0.19752400  0.61050700  1
  H  84  1  0.97619600  0.18068600  0.67764900  1
  H  91  1  0.14592800  0.84340200  0.64103100  1
  H  92  1  0.14313500  0.82330900  0.58779800  1
  H  99  1  0.07678200  0.91170500  0.67721400  1
  H  100  1  0.11045400  0.90562500  0.62698300  1
  H  103  1  0.08903200  0.88951000  0.59915800  1
  H  104  1  0.11330400  0.83613700  0.66556500  1
  H  109  1  0.10368600  0.94540300  0.64665600  1
  H  110  1  0.08632300  0.84809000  0.57515800  1
  H  111  1  0.16563400  0.79959200  0.61130300  1
  H  112  1  0.09125300  0.85659600  0.69190200  1
  H  119  1  0.14631600  0.18725400  0.14189800  1
  H  120  1  0.14440600  0.20680400  0.08860100  1
  H  127  1  0.07681300  0.11961400  0.17764700  1
  H  128  1  0.11357200  0.12342400  0.12836900  1
  H  131  1  0.09489400  0.13835300  0.09937300  1
  H  132  1  0.11218300  0.19484700  0.16498800  1
  H  137  1  0.10438200  0.08381300  0.15314300  1
  H  138  1  0.08979000  0.17476200  0.07550400  1
  H  139  1  0.15970100  0.23288500  0.11571300  1
  H  140  1  0.08624800  0.17793000  0.18996400  1
  H  147  1  0.88425000  0.84776400  0.14050500  1
  H  148  1  0.88245900  0.82723600  0.08737600  1
  H  155  1  0.95939900  0.91398500  0.17376700  1
  H  156  1  0.91786800  0.91026800  0.12581500  1
  H  159  1  0.93523900  0.89424100  0.09680200  1
  H  160  1  0.92022400  0.83947900  0.16285500  1
  H  165  1  0.92944800  0.94923500  0.14372500  1
  H  166  1  0.93806900  0.85648100  0.07349300  1
  H  167  1  0.86440200  0.80306600  0.11201500  1
  H  168  1  0.95164200  0.85459200  0.18595500  1
  H  175  1  0.13939700  0.84363900  0.36041300  1
  H  176  1  0.14110400  0.82708800  0.41436600  1
  H  183  1  0.06631100  0.91092700  0.32484200  1
  H  184  1  0.10997500  0.90854200  0.37219100  1
  H  187  1  0.09083500  0.89573700  0.40199000  1
  H  188  1  0.10032900  0.83522800  0.33807500  1
  H  193  1  0.09954600  0.94696000  0.34649300  1
  H  194  1  0.08635300  0.85969900  0.42703300  1
  H  195  1  0.15821500  0.80037700  0.38980700  1
  H  196  1  0.04957800  0.85500700  0.32217900  1
  H  203  1  0.88081600  0.18720300  0.35796100  1
  H  204  1  0.87897200  0.20789300  0.41103300  1
  H  211  1  0.95508800  0.12153000  0.32387900  1
  H  212  1  0.91856000  0.12625100  0.37327000  1
  H  215  1  0.93644100  0.14314600  0.40170500  1
  H  216  1  0.91404300  0.19557100  0.33448400  1
  H  221  1  0.92866300  0.08704400  0.35496300  1
  H  222  1  0.93682300  0.18056500  0.42507200  1
  H  223  1  0.85555400  0.22976800  0.38815700  1
  H  224  1  0.93807400  0.17625000  0.30892200  1
  H  231  1  0.38712100  0.35154600  0.85573200  1
  H  232  1  0.37288400  0.32688800  0.90691300  1
  H  239  1  0.47254900  0.41123800  0.83092500  1
  H  240  1  0.42540800  0.40751200  0.87606800  1
  H  243  1  0.43747400  0.38671500  0.90566700  1
  H  244  1  0.42555000  0.33967000  0.83615400  1
  H  249  1  0.43920400  0.44643700  0.85796200  1
  H  250  1  0.43067000  0.34384900  0.92614800  1
  H  251  1  0.35595400  0.32043200  0.86058300  1
  H  252  1  0.46649300  0.35076100  0.81871300  1
  H  259  1  0.64802100  0.68966400  0.85835300  1
  H  260  1  0.65331900  0.71284400  0.91077600  1
  H  267  1  0.57117300  0.62309900  0.82830300  1
  H  268  1  0.61418100  0.62907400  0.87552800  1
  H  271  1  0.59744000  0.64712800  0.90451400  1
  H  272  1  0.61083500  0.69790800  0.83667600  1
  H  277  1  0.60366000  0.58963800  0.85855400  1
  H  278  1  0.59732700  0.69023200  0.92659300  1
  H  279  1  0.66796600  0.73590600  0.88141100  1
  H  280  1  0.57573600  0.68343100  0.81576600  1
  H  287  1  0.39602400  0.68600100  0.64326200  1
  H  288  1  0.37881800  0.70985900  0.59200300  1
  H  295  1  0.47897500  0.62306400  0.66825300  1
  H  296  1  0.42975500  0.62806900  0.62338900  1
  H  299  1  0.44197100  0.64764000  0.59313300  1
  H  300  1  0.43782400  0.69729000  0.66207300  1
  H  305  1  0.44195500  0.58884400  0.64319800  1
  H  306  1  0.43535900  0.69068600  0.57215500  1
  H  307  1  0.36537000  0.71827900  0.63829900  1
  H  308  1  0.49206000  0.67882500  0.67469000  1
  H  315  1  0.65429100  0.34589500  0.64234300  1
  H  316  1  0.65665300  0.32494100  0.58925600  1
  H  323  1  0.57828600  0.40959200  0.67626000  1
  H  324  1  0.61359800  0.40329100  0.62655900  1
  H  327  1  0.59242700  0.38414700  0.59936600  1
  H  328  1  0.62078000  0.33580900  0.66638500  1
  H  333  1  0.60536200  0.44289000  0.64496200  1
  H  334  1  0.59607400  0.34267900  0.57594300  1
  H  335  1  0.68660100  0.30822400  0.61031800  1
  H  336  1  0.59571000  0.35541200  0.69213500  1
  H  343  1  0.65183800  0.68871300  0.14243700  1
  H  344  1  0.65331000  0.71007200  0.08955600  1
  H  351  1  0.58068600  0.62142200  0.17598100  1
  H  352  1  0.61813500  0.62672700  0.12702900  1
  H  355  1  0.60015200  0.64315800  0.09810200  1
  H  356  1  0.61685900  0.69681800  0.16484000  1
  H  361  1  0.60985700  0.58674800  0.15038200  1
  H  362  1  0.59745000  0.68065700  0.07489600  1
  H  363  1  0.66987400  0.73438200  0.11735500  1
  H  364  1  0.58968300  0.68002000  0.18902100  1
  H  371  1  0.39118200  0.35052200  0.14296400  1
  H  372  1  0.37552700  0.32692700  0.09150300  1
  H  379  1  0.47888100  0.41007900  0.16708400  1
  H  380  1  0.42820800  0.40727200  0.12306400  1
  H  383  1  0.43952100  0.38726600  0.09332600  1
  H  384  1  0.43123500  0.33897500  0.16273100  1
  H  389  1  0.44387100  0.44542200  0.13808300  1
  H  390  1  0.43311200  0.34655000  0.07238600  1
  H  391  1  0.36026900  0.31904100  0.13766700  1
  H  392  1  0.47835900  0.34944800  0.17687800  1
  H  399  1  0.64877100  0.34456600  0.36040400  1
  H  400  1  0.65311300  0.32814100  0.41437700  1
  H  407  1  0.57198900  0.40790500  0.32516500  1
  H  408  1  0.61471500  0.40553600  0.37287300  1
  H  411  1  0.59341000  0.39055500  0.40183100  1
  H  412  1  0.60932900  0.33305400  0.33796900  1
  H  417  1  0.60502000  0.44380700  0.34733600  1
  H  418  1  0.59376700  0.35510200  0.42706300  1
  H  419  1  0.68336900  0.31092500  0.39477700  1
  H  420  1  0.55817200  0.35066100  0.32146500  1
  H  427  1  0.38766600  0.68329700  0.35630400  1
  H  428  1  0.37488000  0.70764800  0.40776700  1
  H  435  1  0.46970400  0.62235500  0.32847900  1
  H  436  1  0.42895900  0.62774700  0.37634000  1
  H  439  1  0.44118700  0.64823700  0.40522500  1
  H  440  1  0.42306400  0.69461800  0.33548500  1
  H  445  1  0.44159300  0.58884000  0.36046600  1
  H  446  1  0.43399900  0.68799000  0.42629800  1
  H  447  1  0.35591400  0.71404800  0.36168500  1
  H  448  1  0.45055800  0.67654200  0.31189500  1
  H  455  1  0.87253400  0.88471600  0.95381500  1
  H  462  1  0.94422000  0.87475900  0.01270400  1
  H  463  1  0.94344400  0.87148200  0.04418100  1
  H  464  1  0.86448100  0.84805000  0.04147000  1
  H  465  1  0.93806000  0.83922300  0.95603700  1
  H  466  1  0.86533400  0.85099400  0.01001600  1
  H  467  1  0.93809600  0.84119500  0.98747500  1
  H  479  1  0.15434600  0.15028100  0.95556600  1
  H  486  1  0.08288400  0.15920200  0.01399500  1
  H  487  1  0.08377000  0.16215000  0.04550900  1
  H  488  1  0.16275100  0.18553800  0.04363400  1
  H  489  1  0.08880600  0.19570500  0.95775100  1
  H  490  1  0.16177500  0.18295900  0.01216600  1
  H  491  1  0.08892200  0.19313700  0.98916000  1
  H  503  1  0.87273700  0.14683300  0.54353300  1
  H  510  1  0.94403100  0.16246000  0.48612800  1
  H  511  1  0.94342900  0.16635200  0.45467000  1
  H  512  1  0.86230200  0.18506600  0.45621100  1
  H  513  1  0.93327900  0.19625800  0.54309500  1
  H  514  1  0.86294600  0.18151600  0.48763400  1
  H  515  1  0.93400200  0.19506800  0.51165900  1
  H  527  1  0.15170900  0.88276200  0.54740800  1
  H  534  1  0.08045900  0.87763500  0.48785200  1
  H  535  1  0.08127000  0.87455900  0.45636100  1
  H  536  1  0.15982600  0.84870800  0.45907600  1
  H  537  1  0.08570400  0.83912200  0.54353000  1
  H  538  1  0.15892500  0.85145000  0.49052700  1
  H  539  1  0.08589200  0.84285900  0.51220800  1
  H  551  1  0.36573300  0.37787300  0.95427500  1
  H  558  1  0.43697300  0.36226200  0.01159400  1
  H  559  1  0.43780500  0.36120300  0.04310700  1
  H  560  1  0.35667700  0.34388500  0.04337200  1
  H  561  1  0.42651100  0.32763100  0.95584800  1
  H  562  1  0.35585100  0.34473000  0.01178600  1
  H  563  1  0.42638400  0.32858800  0.98731000  1
  H  575  1  0.66253600  0.65570800  0.95522000  1
  H  582  1  0.59112600  0.66710100  0.01320400  1
  H  583  1  0.59149000  0.66926600  0.04473900  1
  H  584  1  0.67173200  0.68937000  0.04393900  1
  H  585  1  0.59928300  0.70351200  0.95738300  1
  H  586  1  0.67130300  0.68754700  0.01242600  1
  H  587  1  0.59930000  0.70100800  0.98879100  1
  H  599  1  0.36974000  0.65764800  0.54472600  1
  H  606  1  0.43941500  0.67258000  0.48730200  1
  H  607  1  0.43965800  0.67365800  0.45577900  1
  H  608  1  0.35805000  0.69073300  0.45532300  1
  H  609  1  0.42933600  0.70781300  0.54271300  1
  H  610  1  0.35781100  0.68991300  0.48690300  1
  H  611  1  0.42848700  0.70641000  0.51127200  1
  H  623  1  0.65824900  0.38080900  0.54745900  1
  H  630  1  0.58667800  0.37084100  0.48846300  1
  H  631  1  0.58739700  0.36824800  0.45692800  1
  H  632  1  0.66781600  0.34727700  0.45912200  1
  H  633  1  0.59551000  0.33361800  0.54442700  1
  H  634  1  0.66703000  0.34948800  0.49059400  1
  H  635  1  0.59505800  0.33681600  0.51305600  1
  H  647  1  0.00292200  0.95315900  0.87528300  1
  H  654  1  0.98670800  0.05027700  0.86417200  1
  H  655  1  0.01091200  0.08536500  0.86175000  1
  H  656  1  0.08036100  0.04750900  0.84976500  1
  H  657  1  0.95207600  0.98367600  0.83749500  1
  H  658  1  0.05611900  0.01241500  0.85180600  1
  H  659  1  0.97641600  0.01862400  0.83935800  1
  H  671  1  0.01103900  0.08041200  0.62413300  1
  H  678  1  0.99265300  0.98387200  0.63488600  1
  H  679  1  0.01618200  0.94807700  0.63825800  1
  H  680  1  0.08564200  0.98408100  0.65208300  1
  H  681  1  0.95980000  0.05208300  0.66177300  1
  H  682  1  0.06212100  0.01982200  0.64899500  1
  H  683  1  0.98292700  0.01612200  0.66000800  1
  H  695  1  0.02766900  0.08111700  0.12527100  1
  H  702  1  0.04217100  0.98387100  0.13653900  1
  H  703  1  0.01735300  0.94908900  0.13877900  1
  H  704  1  0.94836500  0.98777000  0.15040900  1
  H  705  1  0.07764500  0.05006000  0.16331200  1
  H  706  1  0.97321800  0.02256300  0.14855400  1
  H  707  1  0.05273800  0.01542700  0.16138100  1
  H  719  1  0.02418300  0.95375400  0.37565600  1
  H  726  1  0.04067200  0.05049900  0.36421600  1
  H  727  1  0.01624100  0.08588600  0.36110000  1
  H  728  1  0.94736100  0.04869800  0.34793600  1
  H  729  1  0.07489900  0.98246100  0.33787400  1
  H  730  1  0.97178500  0.01335500  0.35073300  1
  H  731  1  0.05109400  0.01810100  0.33945200  1
  H  743  1  0.51818300  0.45252000  0.87831900  1
  H  750  1  0.49482400  0.54906100  0.86832200  1
  H  751  1  0.51666100  0.58524500  0.86523700  1
  H  752  1  0.58735900  0.55058900  0.85113100  1
  H  753  1  0.46290300  0.48084200  0.84232600  1
  H  754  1  0.56548200  0.51443400  0.85382700  1
  H  755  1  0.48486500  0.51702300  0.84379600  1
  H  767  1  0.52014200  0.57899200  0.62085800  1
  H  774  1  0.49649100  0.48295700  0.63157200  1
  H  775  1  0.51868200  0.44669500  0.63603000  1
  H  776  1  0.58803400  0.48138700  0.65198900  1
  H  777  1  0.46441900  0.55309300  0.65663800  1
  H  778  1  0.56585800  0.51755100  0.64782100  1
  H  779  1  0.48570900  0.51621700  0.65577900  1
  H  791  1  0.53312500  0.58211100  0.12341800  1
  H  798  1  0.55379300  0.48522200  0.13251700  1
  H  799  1  0.53127000  0.44919300  0.13412900  1
  H  800  1  0.45998900  0.48413600  0.14646200  1
  H  801  1  0.58473500  0.55199300  0.16094600  1
  H  802  1  0.48251900  0.52013100  0.14522200  1
  H  803  1  0.56212800  0.51627600  0.15811300  1
  H  815  1  0.53051500  0.45183200  0.37685700  1
  H  822  1  0.55143200  0.54801600  0.36617800  1
  H  823  1  0.52881000  0.58438100  0.36374800  1
  H  824  1  0.45753700  0.55019100  0.35144400  1
  H  825  1  0.58104100  0.47943900  0.33847200  1
  H  826  1  0.48012600  0.51389200  0.35355300  1
  H  827  1  0.55904900  0.51584400  0.34086100  1
  H  839  1  0.74186900  0.70902500  0.88785000  1
  H  846  1  0.75531100  0.80230100  0.87463400  1
  H  847  1  0.79030000  0.82986100  0.87621100  1
  H  848  1  0.84472800  0.77957200  0.85828900  1
  H  849  1  0.69581200  0.74940900  0.85289100  1
  H  850  1  0.80970700  0.75198900  0.85639200  1
  H  851  1  0.73205900  0.77527200  0.84926800  1
  H  863  1  0.29462200  0.31652000  0.90052500  1
  H  870  1  0.27352100  0.22729200  0.88002900  1
  H  871  1  0.23644300  0.20175300  0.88014300  1
  H  872  1  0.18551700  0.25694700  0.86590100  1
  H  873  1  0.33333333  0.28317900  0.85850500  1
  H  874  1  0.22247300  0.28252000  0.86586900  1
  H  875  1  0.29614800  0.25839800  0.85454500  1
  H  887  1  0.74086100  0.32687300  0.61472300  1
  H  894  1  0.76040000  0.23673800  0.63186000  1
  H  895  1  0.79510600  0.20889600  0.62811800  1
  H  896  1  0.85214600  0.25971500  0.63927200  1
  H  897  1  0.70476400  0.29085600  0.65611300  1
  H  898  1  0.81733000  0.28759000  0.64339900  1
  H  899  1  0.74287000  0.26595200  0.65849400  1
  H  911  1  0.30009900  0.71850300  0.59971900  1
  H  918  1  0.27518100  0.80691300  0.62176300  1
  H  919  1  0.23674300  0.83157200  0.62214500  1
  H  920  1  0.18910200  0.77475900  0.63511000  1
  H  921  1  0.33902800  0.75274900  0.64134100  1
  H  922  1  0.22747500  0.75004900  0.63478700  1
  H  923  1  0.30053600  0.77623300  0.64600600  1
  H  935  1  0.29686300  0.31756500  0.09820600  1
  H  942  1  0.27561700  0.22766300  0.11754800  1
  H  943  1  0.23847800  0.20222600  0.11784100  1
  H  944  1  0.18847000  0.25755500  0.13270600  1
  H  945  1  0.33680100  0.28236100  0.13923600  1
  H  946  1  0.22547700  0.28299300  0.13231900  1
  H  947  1  0.29945400  0.25781500  0.14293100  1
  H  959  1  0.74314700  0.70789900  0.11241900  1
  H  966  1  0.75679200  0.80191300  0.12372200  1
  H  967  1  0.79174100  0.82942300  0.12173800  1
  H  968  1  0.84660800  0.77955400  0.14032500  1
  H  969  1  0.69788900  0.74952100  0.14650300  1
  H  970  1  0.81163800  0.75204400  0.14263400  1
  H  971  1  0.73412200  0.77565600  0.14942000  1
  H  983  1  0.29605000  0.71782600  0.40267200  1
  H  990  1  0.27041300  0.80597600  0.37974600  1
  H  991  1  0.23241900  0.83114100  0.37963400  1
  H  992  1  0.18286300  0.77451300  0.36915500  1
  H  993  1  0.33166800  0.75041900  0.35939600  1
  H  994  1  0.22077900  0.74931500  0.36925400  1
  H  995  1  0.29315700  0.77428300  0.35548800  1
  H  1007  1  0.73370200  0.32009900  0.38761900  1
  H  1014  1  0.75333800  0.23061700  0.36718200  1
  H  1015  1  0.78962900  0.20374100  0.36962500  1
  H  1016  1  0.84342200  0.25688400  0.35849500  1
  H  1017  1  0.69473400  0.28683500  0.34561100  1
  H  1018  1  0.80719000  0.28380700  0.35580800  1
  H  1019  1  0.73244700  0.26181200  0.34180700  1
  H  1031  1  0.00981000  0.90192600  0.79570100  1
  H  1038  1  0.98735600  0.87664100  0.72802200  1
  H  1039  1  0.00821400  0.87908100  0.69979900  1
  H  1040  1  0.08187100  0.86135000  0.72323700  1
  H  1041  1  0.96128700  0.84560400  0.78286900  1
  H  1042  1  0.06106900  0.85874800  0.75141500  1
  H  1043  1  0.98369300  0.84123800  0.75535700  1
  H  1055  1  0.02355900  0.12549800  0.79308500  1
  H  1062  1  0.03005800  0.17590000  0.73087000  1
  H  1063  1  0.00979500  0.17415400  0.70227200  1
  H  1064  1  0.93705600  0.15608800  0.72538100  1
  H  1065  1  0.04743500  0.19464700  0.78991800  1
  H  1066  1  0.95708100  0.15827600  0.75406300  1
  H  1067  1  0.02314500  0.19909700  0.76284200  1
  H  1079  1  0.01953500  0.13207800  0.20494400  1
  H  1086  1  0.04207700  0.15755600  0.27253200  1
  H  1087  1  0.02144700  0.15485000  0.30081100  1
  H  1088  1  0.94743800  0.17197200  0.27761600  1
  H  1089  1  0.06770700  0.18863700  0.21773200  1
  H  1090  1  0.96801200  0.17484700  0.24938400  1
  H  1091  1  0.04528900  0.19292300  0.24524700  1
  H  1103  1  0.00558900  0.90851000  0.20627600  1
  H  1110  1  0.99739100  0.85927700  0.26864500  1
  H  1111  1  0.01766900  0.86086100  0.29723100  1
  H  1112  1  0.09127400  0.87593400  0.27399300  1
  H  1113  1  0.97950300  0.83999500  0.20975200  1
  H  1114  1  0.07116500  0.87397600  0.24532400  1
  H  1115  1  0.00375400  0.83513800  0.23680200  1
  H  1127  1  0.51375100  0.40595200  0.79483500  1
  H  1134  1  0.49243200  0.37382400  0.72928800  1
  H  1135  1  0.51228200  0.37536800  0.70066800  1
  H  1136  1  0.58760400  0.36301300  0.72365900  1
  H  1137  1  0.47389500  0.34327600  0.78732000  1
  H  1138  1  0.56785200  0.36146000  0.75224300  1
  H  1139  1  0.49465900  0.33863800  0.75918400  1
  H  1151  1  0.53130200  0.62498400  0.79220500  1
  H  1158  1  0.54163600  0.67391900  0.72938800  1
  H  1159  1  0.52320200  0.67234100  0.70023400  1
  H  1160  1  0.44910600  0.65388200  0.72120700  1
  H  1161  1  0.55405000  0.69439500  0.78863100  1
  H  1162  1  0.46732900  0.65584400  0.75042600  1
  H  1163  1  0.53191100  0.69765500  0.76070500  1
  H  1175  1  0.52597500  0.63207700  0.20563500  1
  H  1182  1  0.55189000  0.65670400  0.27327700  1
  H  1183  1  0.53276800  0.65416700  0.30205300  1
  H  1184  1  0.45748300  0.67053400  0.28045700  1
  H  1185  1  0.57427400  0.68868200  0.21803000  1
  H  1186  1  0.47653800  0.67324800  0.25174200  1
  H  1187  1  0.55343600  0.69209400  0.24615200  1
  H  1199  1  0.50427000  0.40948000  0.20865600  1
  H  1206  1  0.50495800  0.35325800  0.26804800  1
  H  1207  1  0.52560300  0.35412000  0.29659500  1
  H  1208  1  0.59533800  0.38039000  0.27408200  1
  H  1209  1  0.49283100  0.33779400  0.20653200  1
  H  1210  1  0.57489700  0.37929900  0.24549700  1
  H  1211  1  0.51619900  0.33333333  0.23400300  1
  H  1223  1  0.64355400  0.84815100  0.85814200  1
  H  1224  1  0.64391400  0.82743300  0.91124200  1
  H  1231  1  0.71518700  0.91449900  0.82346300  1
  H  1232  1  0.67842600  0.91024800  0.87273600  1
  H  1235  1  0.69732800  0.89369900  0.90154800  1
  H  1236  1  0.67785100  0.83974200  0.83520500  1
  H  1241  1  0.68749700  0.95002100  0.84900200  1
  H  1242  1  0.70017500  0.85207000  0.92491600  1
  H  1243  1  0.62362300  0.80387400  0.88736400  1
  H  1244  1  0.70447800  0.85658300  0.81047600  1
  H  1251  1  0.90495470  0.18772200  0.85979900  1
  H  1252  1  0.90598670  0.20817300  0.91298000  1
  H  1259  1  0.83032800  0.12106400  0.82628200  1
  H  1260  1  0.87138000  0.12532300  0.87438400  1
  H  1263  1  0.85280100  0.14159700  0.90324500  1
  H  1264  1  0.86895900  0.19583300  0.83716400  1
  H  1269  1  0.86064100  0.08619900  0.85634300  1
  H  1270  1  0.85019300  0.18326900  0.92661500  1
  H  1271  1  0.92295870  0.23281100  0.88732100  1
  H  1272  1  0.83694100  0.18080900  0.81422100  1
  H  1279  1  0.64245200  0.17955100  0.64104100  1
  H  1280  1  0.63322800  0.19776800  0.58762600  1
  H  1287  1  0.72852000  0.12367800  0.67349500  1
  H  1288  1  0.68341500  0.12391900  0.62667400  1
  H  1291  1  0.70367600  0.14334500  0.59777400  1
  H  1292  1  0.68257900  0.19549600  0.66243900  1
  H  1297  1  0.69616800  0.08624500  0.64977600  1
  H  1298  1  0.69591300  0.18389700  0.57380000  1
  H  1299  1  0.59511600  0.19752400  0.61050700  1
  H  1300  1  0.73812700  0.18068600  0.67764900  1
  H  1307  1  0.90785870  0.84340200  0.64103100  1
  H  1308  1  0.90506570  0.82330900  0.58779800  1
  H  1315  1  0.83871300  0.91170500  0.67721400  1
  H  1316  1  0.87238500  0.90562500  0.62698300  1
  H  1319  1  0.85096300  0.88951000  0.59915800  1
  H  1320  1  0.87523500  0.83613700  0.66556500  1
  H  1325  1  0.86561700  0.94540300  0.64665600  1
  H  1326  1  0.84825400  0.84809000  0.57515800  1
  H  1327  1  0.92756470  0.79959200  0.61130300  1
  H  1328  1  0.85318400  0.85659600  0.69190200  1
  H  1335  1  0.90824670  0.18725400  0.14189800  1
  H  1336  1  0.90633670  0.20680400  0.08860100  1
  H  1343  1  0.83874400  0.11961400  0.17764700  1
  H  1344  1  0.87550300  0.12342400  0.12836900  1
  H  1347  1  0.85682500  0.13835300  0.09937300  1
  H  1348  1  0.87411400  0.19484700  0.16498800  1
  H  1353  1  0.86631300  0.08381300  0.15314300  1
  H  1354  1  0.85172100  0.17476200  0.07550400  1
  H  1355  1  0.92163170  0.23288500  0.11571300  1
  H  1356  1  0.84817900  0.17793000  0.18996400  1
  H  1363  1  0.64618100  0.84776400  0.14050500  1
  H  1364  1  0.64439000  0.82723600  0.08737600  1
  H  1371  1  0.72133000  0.91398500  0.17376700  1
  H  1372  1  0.67979900  0.91026800  0.12581500  1
  H  1375  1  0.69717000  0.89424100  0.09680200  1
  H  1376  1  0.68215500  0.83947900  0.16285500  1
  H  1381  1  0.69137900  0.94923500  0.14372500  1
  H  1382  1  0.70000000  0.85648100  0.07349300  1
  H  1383  1  0.62633300  0.80306600  0.11201500  1
  H  1384  1  0.71357300  0.85459200  0.18595500  1
  H  1391  1  0.90132770  0.84363900  0.36041300  1
  H  1392  1  0.90303470  0.82708800  0.41436600  1
  H  1399  1  0.82824200  0.91092700  0.32484200  1
  H  1400  1  0.87190600  0.90854200  0.37219100  1
  H  1403  1  0.85276600  0.89573700  0.40199000  1
  H  1404  1  0.86226000  0.83522800  0.33807500  1
  H  1409  1  0.86147700  0.94696000  0.34649300  1
  H  1410  1  0.84828400  0.85969900  0.42703300  1
  H  1411  1  0.92014570  0.80037700  0.38980700  1
  H  1412  1  0.81150900  0.85500700  0.32217900  1
  H  1419  1  0.64274700  0.18720300  0.35796100  1
  H  1420  1  0.64090300  0.20789300  0.41103300  1
  H  1427  1  0.71701900  0.12153000  0.32387900  1
  H  1428  1  0.68049100  0.12625100  0.37327000  1
  H  1431  1  0.69837200  0.14314600  0.40170500  1
  H  1432  1  0.67597400  0.19557100  0.33448400  1
  H  1437  1  0.69059400  0.08704400  0.35496300  1
  H  1438  1  0.69875400  0.18056500  0.42507200  1
  H  1439  1  0.61748500  0.22976800  0.38815700  1
  H  1440  1  0.70000500  0.17625000  0.30892200  1
  H  1447  1  0.14905200  0.35154600  0.85573200  1
  H  1448  1  0.13481500  0.32688800  0.90691300  1
  H  1455  1  0.23448000  0.41123800  0.83092500  1
  H  1456  1  0.18733900  0.40751200  0.87606800  1
  H  1459  1  0.19940500  0.38671500  0.90566700  1
  H  1460  1  0.18748100  0.33967000  0.83615400  1
  H  1465  1  0.20113500  0.44643700  0.85796200  1
  H  1466  1  0.19260100  0.34384900  0.92614800  1
  H  1467  1  0.11788500  0.32043200  0.86058300  1
  H  1468  1  0.22842400  0.35076100  0.81871300  1
  H  1475  1  0.40995200  0.68966400  0.85835300  1
  H  1476  1  0.41525000  0.71284400  0.91077600  1
  H  1483  1  0.33310400  0.62309900  0.82830300  1
  H  1484  1  0.37611200  0.62907400  0.87552800  1
  H  1487  1  0.35937100  0.64712800  0.90451400  1
  H  1488  1  0.37276600  0.69790800  0.83667600  1
  H  1493  1  0.36559100  0.58963800  0.85855400  1
  H  1494  1  0.35925800  0.69023200  0.92659300  1
  H  1495  1  0.42989700  0.73590600  0.88141100  1
  H  1496  1  0.33766700  0.68343100  0.81576600  1
  H  1503  1  0.15795500  0.68600100  0.64326200  1
  H  1504  1  0.14074900  0.70985900  0.59200300  1
  H  1511  1  0.24090600  0.62306400  0.66825300  1
  H  1512  1  0.19168600  0.62806900  0.62338900  1
  H  1515  1  0.20390200  0.64764000  0.59313300  1
  H  1516  1  0.19975500  0.69729000  0.66207300  1
  H  1521  1  0.20388600  0.58884400  0.64319800  1
  H  1522  1  0.19729000  0.69068600  0.57215500  1
  H  1523  1  0.12730100  0.71827900  0.63829900  1
  H  1524  1  0.25399100  0.67882500  0.67469000  1
  H  1531  1  0.41622200  0.34589500  0.64234300  1
  H  1532  1  0.41858400  0.32494100  0.58925600  1
  H  1539  1  0.34021700  0.40959200  0.67626000  1
  H  1540  1  0.37552900  0.40329100  0.62655900  1
  H  1543  1  0.35435800  0.38414700  0.59936600  1
  H  1544  1  0.38271100  0.33580900  0.66638500  1
  H  1549  1  0.36729300  0.44289000  0.64496200  1
  H  1550  1  0.35800500  0.34267900  0.57594300  1
  H  1551  1  0.44853200  0.30822400  0.61031800  1
  H  1552  1  0.35764100  0.35541200  0.69213500  1
  H  1559  1  0.41376900  0.68871300  0.14243700  1
  H  1560  1  0.41524100  0.71007200  0.08955600  1
  H  1567  1  0.34261700  0.62142200  0.17598100  1
  H  1568  1  0.38006600  0.62672700  0.12702900  1
  H  1571  1  0.36208300  0.64315800  0.09810200  1
  H  1572  1  0.37879000  0.69681800  0.16484000  1
  H  1577  1  0.37178800  0.58674800  0.15038200  1
  H  1578  1  0.35938100  0.68065700  0.07489600  1
  H  1579  1  0.43180500  0.73438200  0.11735500  1
  H  1580  1  0.35161400  0.68002000  0.18902100  1
  H  1587  1  0.15311300  0.35052200  0.14296400  1
  H  1588  1  0.13745800  0.32692700  0.09150300  1
  H  1595  1  0.24081200  0.41007900  0.16708400  1
  H  1596  1  0.19013900  0.40727200  0.12306400  1
  H  1599  1  0.20145200  0.38726600  0.09332600  1
  H  1600  1  0.19316600  0.33897500  0.16273100  1
  H  1605  1  0.20580200  0.44542200  0.13808300  1
  H  1606  1  0.19504300  0.34655000  0.07238600  1
  H  1607  1  0.12220000  0.31904100  0.13766700  1
  H  1608  1  0.24029000  0.34944800  0.17687800  1
  H  1615  1  0.41070200  0.34456600  0.36040400  1
  H  1616  1  0.41504400  0.32814100  0.41437700  1
  H  1623  1  0.33392000  0.40790500  0.32516500  1
  H  1624  1  0.37664600  0.40553600  0.37287300  1
  H  1627  1  0.35534100  0.39055500  0.40183100  1
  H  1628  1  0.37126000  0.33305400  0.33796900  1
  H  1633  1  0.36695100  0.44380700  0.34733600  1
  H  1634  1  0.35569800  0.35510200  0.42706300  1
  H  1635  1  0.44530000  0.31092500  0.39477700  1
  H  1636  1  0.32010300  0.35066100  0.32146500  1
  H  1643  1  0.14959700  0.68329700  0.35630400  1
  H  1644  1  0.13681100  0.70764800  0.40776700  1
  H  1651  1  0.23163500  0.62235500  0.32847900  1
  H  1652  1  0.19089000  0.62774700  0.37634000  1
  H  1655  1  0.20311800  0.64823700  0.40522500  1
  H  1656  1  0.18499500  0.69461800  0.33548500  1
  H  1661  1  0.20352400  0.58884000  0.36046600  1
  H  1662  1  0.19593000  0.68799000  0.42629800  1
  H  1663  1  0.11784500  0.71404800  0.36168500  1
  H  1664  1  0.21248900  0.67654200  0.31189500  1
  H  1671  1  0.63446500  0.88471600  0.95381500  1
  H  1678  1  0.70615100  0.87475900  0.01270400  1
  H  1679  1  0.70537500  0.87148200  0.04418100  1
  H  1680  1  0.62641200  0.84805000  0.04147000  1
  H  1681  1  0.69999100  0.83922300  0.95603700  1
  H  1682  1  0.62726500  0.85099400  0.01001600  1
  H  1683  1  0.70002700  0.84119500  0.98747500  1
  H  1695  1  0.91627670  0.15028100  0.95556600  1
  H  1702  1  0.84481500  0.15920200  0.01399500  1
  H  1703  1  0.84570100  0.16215000  0.04550900  1
  H  1704  1  0.92468170  0.18553800  0.04363400  1
  H  1705  1  0.85073700  0.19570500  0.95775100  1
  H  1706  1  0.92370570  0.18295900  0.01216600  1
  H  1707  1  0.85085300  0.19313700  0.98916000  1
  H  1719  1  0.63466800  0.14683300  0.54353300  1
  H  1726  1  0.70596200  0.16246000  0.48612800  1
  H  1727  1  0.70536000  0.16635200  0.45467000  1
  H  1728  1  0.62423300  0.18506600  0.45621100  1
  H  1729  1  0.69521000  0.19625800  0.54309500  1
  H  1730  1  0.62487700  0.18151600  0.48763400  1
  H  1731  1  0.69593300  0.19506800  0.51165900  1
  H  1743  1  0.91363970  0.88276200  0.54740800  1
  H  1750  1  0.84239000  0.87763500  0.48785200  1
  H  1751  1  0.84320100  0.87455900  0.45636100  1
  H  1752  1  0.92175670  0.84870800  0.45907600  1
  H  1753  1  0.84763500  0.83912200  0.54353000  1
  H  1754  1  0.92085570  0.85145000  0.49052700  1
  H  1755  1  0.84782300  0.84285900  0.51220800  1
  H  1767  1  0.12766400  0.37787300  0.95427500  1
  H  1774  1  0.19890400  0.36226200  0.01159400  1
  H  1775  1  0.19973600  0.36120300  0.04310700  1
  H  1776  1  0.11860800  0.34388500  0.04337200  1
  H  1777  1  0.18844200  0.32763100  0.95584800  1
  H  1778  1  0.11778200  0.34473000  0.01178600  1
  H  1779  1  0.18831500  0.32858800  0.98731000  1
  H  1791  1  0.42446700  0.65570800  0.95522000  1
  H  1798  1  0.35305700  0.66710100  0.01320400  1
  H  1799  1  0.35342100  0.66926600  0.04473900  1
  H  1800  1  0.43366300  0.68937000  0.04393900  1
  H  1801  1  0.36121400  0.70351200  0.95738300  1
  H  1802  1  0.43323400  0.68754700  0.01242600  1
  H  1803  1  0.36123100  0.70100800  0.98879100  1
  H  1815  1  0.13167100  0.65764800  0.54472600  1
  H  1822  1  0.20134600  0.67258000  0.48730200  1
  H  1823  1  0.20158900  0.67365800  0.45577900  1
  H  1824  1  0.11998100  0.69073300  0.45532300  1
  H  1825  1  0.19126700  0.70781300  0.54271300  1
  H  1826  1  0.11974200  0.68991300  0.48690300  1
  H  1827  1  0.19041800  0.70641000  0.51127200  1
  H  1839  1  0.42018000  0.38080900  0.54745900  1
  H  1846  1  0.34860900  0.37084100  0.48846300  1
  H  1847  1  0.34932800  0.36824800  0.45692800  1
  H  1848  1  0.42974700  0.34727700  0.45912200  1
  H  1849  1  0.35744100  0.33361800  0.54442700  1
  H  1850  1  0.42896100  0.34948800  0.49059400  1
  H  1851  1  0.35698900  0.33681600  0.51305600  1
  H  1863  1  0.76485300  0.95315900  0.87528300  1
  H  1870  1  0.74863900  0.05027700  0.86417200  1
  H  1871  1  0.77284300  0.08536500  0.86175000  1
  H  1872  1  0.84229200  0.04750900  0.84976500  1
  H  1873  1  0.71400700  0.98367600  0.83749500  1
  H  1874  1  0.81805000  0.01241500  0.85180600  1
  H  1875  1  0.73834700  0.01862400  0.83935800  1
  H  1887  1  0.77297000  0.08041200  0.62413300  1
  H  1894  1  0.75458400  0.98387200  0.63488600  1
  H  1895  1  0.77811300  0.94807700  0.63825800  1
  H  1896  1  0.84757300  0.98408100  0.65208300  1
  H  1897  1  0.72173100  0.05208300  0.66177300  1
  H  1898  1  0.82405200  0.01982200  0.64899500  1
  H  1899  1  0.74485800  0.01612200  0.66000800  1
  H  1911  1  0.78960000  0.08111700  0.12527100  1
  H  1918  1  0.80410200  0.98387100  0.13653900  1
  H  1919  1  0.77928400  0.94908900  0.13877900  1
  H  1920  1  0.71029600  0.98777000  0.15040900  1
  H  1921  1  0.83957600  0.05006000  0.16331200  1
  H  1922  1  0.73514900  0.02256300  0.14855400  1
  H  1923  1  0.81466900  0.01542700  0.16138100  1
  H  1935  1  0.78611400  0.95375400  0.37565600  1
  H  1942  1  0.80260300  0.05049900  0.36421600  1
  H  1943  1  0.77817200  0.08588600  0.36110000  1
  H  1944  1  0.70929200  0.04869800  0.34793600  1
  H  1945  1  0.83683000  0.98246100  0.33787400  1
  H  1946  1  0.73371600  0.01335500  0.35073300  1
  H  1947  1  0.81302500  0.01810100  0.33945200  1
  H  1959  1  0.28011400  0.45252000  0.87831900  1
  H  1966  1  0.25675500  0.54906100  0.86832200  1
  H  1967  1  0.27859200  0.58524500  0.86523700  1
  H  1968  1  0.34929000  0.55058900  0.85113100  1
  H  1969  1  0.22483400  0.48084200  0.84232600  1
  H  1970  1  0.32741300  0.51443400  0.85382700  1
  H  1971  1  0.24679600  0.51702300  0.84379600  1
  H  1983  1  0.28207300  0.57899200  0.62085800  1
  H  1990  1  0.25842200  0.48295700  0.63157200  1
  H  1991  1  0.28061300  0.44669500  0.63603000  1
  H  1992  1  0.34996500  0.48138700  0.65198900  1
  H  1993  1  0.22635000  0.55309300  0.65663800  1
  H  1994  1  0.32778900  0.51755100  0.64782100  1
  H  1995  1  0.24764000  0.51621700  0.65577900  1
  H  2007  1  0.29505600  0.58211100  0.12341800  1
  H  2014  1  0.31572400  0.48522200  0.13251700  1
  H  2015  1  0.29320100  0.44919300  0.13412900  1
  H  2016  1  0.22192000  0.48413600  0.14646200  1
  H  2017  1  0.34666600  0.55199300  0.16094600  1
  H  2018  1  0.24445000  0.52013100  0.14522200  1
  H  2019  1  0.32405900  0.51627600  0.15811300  1
  H  2031  1  0.29244600  0.45183200  0.37685700  1
  H  2038  1  0.31336300  0.54801600  0.36617800  1
  H  2039  1  0.29074100  0.58438100  0.36374800  1
  H  2040  1  0.21946800  0.55019100  0.35144400  1
  H  2041  1  0.34297200  0.47943900  0.33847200  1
  H  2042  1  0.24205700  0.51389200  0.35355300  1
  H  2043  1  0.32098000  0.51584400  0.34086100  1
  H  2055  1  0.50380000  0.70902500  0.88785000  1
  H  2062  1  0.51724200  0.80230100  0.87463400  1
  H  2063  1  0.55223100  0.82986100  0.87621100  1
  H  2064  1  0.60665900  0.77957200  0.85828900  1
  H  2065  1  0.45774300  0.74940900  0.85289100  1
  H  2066  1  0.57163800  0.75198900  0.85639200  1
  H  2067  1  0.49399000  0.77527200  0.84926800  1
  H  2079  1  0.05655300  0.31652000  0.90052500  1
  H  2086  1  0.03545200  0.22729200  0.88002900  1
  H  2087  1  0.99837374  0.20175300  0.88014300  1
  H  2088  1  0.94744770  0.25694700  0.86590100  1
  H  2089  1  0.09527900  0.28317900  0.85850500  1
  H  2090  1  0.98440370  0.28252000  0.86586900  1
  H  2091  1  0.05807900  0.25839800  0.85454500  1
  H  2103  1  0.50279200  0.32687300  0.61472300  1
  H  2110  1  0.52233100  0.23673800  0.63186000  1
  H  2111  1  0.55703700  0.20889600  0.62811800  1
  H  2112  1  0.61407700  0.25971500  0.63927200  1
  H  2113  1  0.46669500  0.29085600  0.65611300  1
  H  2114  1  0.57926100  0.28759000  0.64339900  1
  H  2115  1  0.50480100  0.26595200  0.65849400  1
  H  2127  1  0.06203000  0.71850300  0.59971900  1
  H  2134  1  0.03711200  0.80691300  0.62176300  1
  H  2135  1  0.99867374  0.83157200  0.62214500  1
  H  2136  1  0.95103270  0.77475900  0.63511000  1
  H  2137  1  0.10095900  0.75274900  0.64134100  1
  H  2138  1  0.98940570  0.75004900  0.63478700  1
  H  2139  1  0.06246700  0.77623300  0.64600600  1
  H  2151  1  0.05879400  0.31756500  0.09820600  1
  H  2158  1  0.03754800  0.22766300  0.11754800  1
  H  2159  1  0.00040900  0.20222600  0.11784100  1
  H  2160  1  0.95040070  0.25755500  0.13270600  1
  H  2161  1  0.09873200  0.28236100  0.13923600  1
  H  2162  1  0.98740770  0.28299300  0.13231900  1
  H  2163  1  0.06138500  0.25781500  0.14293100  1
  H  2175  1  0.50507800  0.70789900  0.11241900  1
  H  2182  1  0.51872300  0.80191300  0.12372200  1
  H  2183  1  0.55367200  0.82942300  0.12173800  1
  H  2184  1  0.60853900  0.77955400  0.14032500  1
  H  2185  1  0.45982000  0.74952100  0.14650300  1
  H  2186  1  0.57356900  0.75204400  0.14263400  1
  H  2187  1  0.49605300  0.77565600  0.14942000  1
  H  2199  1  0.05798100  0.71782600  0.40267200  1
  H  2206  1  0.03234400  0.80597600  0.37974600  1
  H  2207  1  0.99434974  0.83114100  0.37963400  1
  H  2208  1  0.94479370  0.77451300  0.36915500  1
  H  2209  1  0.09359900  0.75041900  0.35939600  1
  H  2210  1  0.98270970  0.74931500  0.36925400  1
  H  2211  1  0.05508800  0.77428300  0.35548800  1
  H  2223  1  0.49563300  0.32009900  0.38761900  1
  H  2230  1  0.51526900  0.23061700  0.36718200  1
  H  2231  1  0.55156000  0.20374100  0.36962500  1
  H  2232  1  0.60535300  0.25688400  0.35849500  1
  H  2233  1  0.45666500  0.28683500  0.34561100  1
  H  2234  1  0.56912100  0.28380700  0.35580800  1
  H  2235  1  0.49437800  0.26181200  0.34180700  1
  H  2247  1  0.77174100  0.90192600  0.79570100  1
  H  2254  1  0.74928700  0.87664100  0.72802200  1
  H  2255  1  0.77014500  0.87908100  0.69979900  1
  H  2256  1  0.84380200  0.86135000  0.72323700  1
  H  2257  1  0.72321800  0.84560400  0.78286900  1
  H  2258  1  0.82300000  0.85874800  0.75141500  1
  H  2259  1  0.74562400  0.84123800  0.75535700  1
  H  2271  1  0.78549000  0.12549800  0.79308500  1
  H  2278  1  0.79198900  0.17590000  0.73087000  1
  H  2279  1  0.77172600  0.17415400  0.70227200  1
  H  2280  1  0.69898700  0.15608800  0.72538100  1
  H  2281  1  0.80936600  0.19464700  0.78991800  1
  H  2282  1  0.71901200  0.15827600  0.75406300  1
  H  2283  1  0.78507600  0.19909700  0.76284200  1
  H  2295  1  0.78146600  0.13207800  0.20494400  1
  H  2302  1  0.80400800  0.15755600  0.27253200  1
  H  2303  1  0.78337800  0.15485000  0.30081100  1
  H  2304  1  0.70936900  0.17197200  0.27761600  1
  H  2305  1  0.82963800  0.18863700  0.21773200  1
  H  2306  1  0.72994300  0.17484700  0.24938400  1
  H  2307  1  0.80722000  0.19292300  0.24524700  1
  H  2319  1  0.76752000  0.90851000  0.20627600  1
  H  2326  1  0.75932200  0.85927700  0.26864500  1
  H  2327  1  0.77960000  0.86086100  0.29723100  1
  H  2328  1  0.85320500  0.87593400  0.27399300  1
  H  2329  1  0.74143400  0.83999500  0.20975200  1
  H  2330  1  0.83309600  0.87397600  0.24532400  1
  H  2331  1  0.76568500  0.83513800  0.23680200  1
  H  2343  1  0.27568200  0.40595200  0.79483500  1
  H  2350  1  0.25436300  0.37382400  0.72928800  1
  H  2351  1  0.27421300  0.37536800  0.70066800  1
  H  2352  1  0.34953500  0.36301300  0.72365900  1
  H  2353  1  0.23582600  0.34327600  0.78732000  1
  H  2354  1  0.32978300  0.36146000  0.75224300  1
  H  2355  1  0.25659000  0.33863800  0.75918400  1
  H  2367  1  0.29323300  0.62498400  0.79220500  1
  H  2374  1  0.30356700  0.67391900  0.72938800  1
  H  2375  1  0.28513300  0.67234100  0.70023400  1
  H  2376  1  0.21103700  0.65388200  0.72120700  1
  H  2377  1  0.31598100  0.69439500  0.78863100  1
  H  2378  1  0.22926000  0.65584400  0.75042600  1
  H  2379  1  0.29384200  0.69765500  0.76070500  1
  H  2391  1  0.28790600  0.63207700  0.20563500  1
  H  2398  1  0.31382100  0.65670400  0.27327700  1
  H  2399  1  0.29469900  0.65416700  0.30205300  1
  H  2400  1  0.21941400  0.67053400  0.28045700  1
  H  2401  1  0.33620500  0.68868200  0.21803000  1
  H  2402  1  0.23846900  0.67324800  0.25174200  1
  H  2403  1  0.31536700  0.69209400  0.24615200  1
  H  2415  1  0.26620100  0.40948000  0.20865600  1
  H  2422  1  0.26688900  0.35325800  0.26804800  1
  H  2423  1  0.28753400  0.35412000  0.29659500  1
  H  2424  1  0.35726900  0.38039000  0.27408200  1
  H  2425  1  0.25476200  0.33779400  0.20653200  1
  H  2426  1  0.33682800  0.37929900  0.24549700  1
  H  2427  1  0.27813000  0.33333333  0.23400300  1
  C  1  1  0.91032600  0.86490700  0.87401400  1
  C  2  1  0.88922600  0.84951600  0.87066500  1
  C  3  1  0.87890200  0.83542400  0.88410300  1
  C  4  1  0.88928700  0.83759600  0.90135500  1
  C  5  1  0.90974300  0.85325900  0.90526600  1
  C  6  1  0.92051900  0.86668900  0.89150400  1
  C  9  1  0.92117300  0.87803200  0.85986500  1
  C  10  1  0.93070200  0.86732500  0.84422700  1
  C  11  1  0.94254500  0.88055000  0.83067400  1
  C  12  1  0.94462400  0.90465100  0.83303400  1
  C  13  1  0.93550600  0.91554500  0.84847300  1
  C  14  1  0.92329500  0.90223500  0.86158000  1
  C  21  1  0.94014900  0.93864800  0.85098800  1
  C  22  1  0.91909600  0.85485100  0.92239500  1
  C  23  1  0.86012400  0.81869000  0.88075200  1
  C  24  1  0.95178200  0.87027500  0.81527000  1
  C  29  1  0.11500900  0.17060000  0.87573500  1
  C  30  1  0.13587000  0.18614200  0.87234700  1
  C  31  1  0.14642600  0.20017600  0.88583900  1
  C  32  1  0.13659000  0.19793900  0.90311100  1
  C  33  1  0.11635600  0.18216200  0.90701800  1
  C  34  1  0.10531200  0.16871600  0.89324500  1
  C  37  1  0.10367500  0.15748800  0.86163600  1
  C  38  1  0.09277000  0.16822900  0.84630500  1
  C  39  1  0.07975600  0.15505900  0.83305100  1
  C  40  1  0.07793500  0.13093500  0.83553100  1
  C  41  1  0.08835000  0.11994300  0.85069100  1
  C  42  1  0.10181900  0.13327900  0.86336100  1
  C  49  1  0.08366500  0.09685300  0.85365000  1
  C  50  1  0.10736900  0.18052800  0.92413100  1
  C  51  1  0.16469500  0.21715500  0.88248000  1
  C  52  1  0.06865900  0.16549000  0.81806100  1
  C  57  1  0.91203300  0.16853100  0.62465000  1
  C  58  1  0.88765700  0.17967700  0.62841300  1
  C  59  1  0.87258200  0.19040800  0.61491100  1
  C  60  1  0.88209600  0.18981500  0.59745900  1
  C  61  1  0.90647700  0.17891800  0.59335400  1
  C  62  1  0.92142100  0.16819200  0.60704300  1
  C  65  1  0.92606000  0.15682500  0.63836200  1
  C  66  1  0.93706700  0.16878200  0.65298000  1
  C  67  1  0.95175900  0.15661700  0.66609200  1
  C  68  1  0.95538700  0.13254100  0.66433300  1
  C  69  1  0.94432400  0.12046500  0.64997000  1
  C  70  1  0.92942500  0.13266100  0.63718800  1
  C  77  1  0.94902600  0.09721400  0.64813600  1
  C  78  1  0.91549100  0.17905100  0.57616700  1
  C  79  1  0.84858900  0.20108800  0.61829600  1
  C  80  1  0.96386600  0.16782600  0.68005300  1
  C  85  1  0.11593600  0.86027500  0.62597600  1
  C  86  1  0.13746200  0.84478600  0.62874200  1
  C  87  1  0.14730200  0.83086300  0.61494800  1
  C  88  1  0.13596400  0.83319800  0.59796500  1
  C  89  1  0.11501700  0.84896200  0.59467000  1
  C  90  1  0.10473800  0.86228000  0.60875800  1
  C  93  1  0.10621400  0.87380600  0.64032800  1
  C  94  1  0.09788500  0.86363600  0.65639800  1
  C  95  1  0.08700000  0.87746000  0.67005200  1
  C  96  1  0.08472600  0.90152700  0.66748700  1
  C  97  1  0.09300800  0.91189800  0.65168200  1
  C  98  1  0.10429500  0.89801900  0.63842500  1
  C  105  1  0.08848700  0.93501700  0.64874400  1
  C  106  1  0.10530100  0.85129500  0.57769300  1
  C  107  1  0.16712000  0.81458400  0.61763100  1
  C  108  1  0.07928200  0.86792400  0.68594800  1
  C  113  1  0.11841300  0.16890500  0.12637600  1
  C  114  1  0.13869000  0.18519700  0.12943700  1
  C  115  1  0.14806700  0.19931200  0.11574100  1
  C  116  1  0.13776100  0.19642200  0.09856100  1
  C  117  1  0.11829900  0.17971700  0.09484700  1
  C  118  1  0.10835500  0.16623700  0.10890500  1
  C  121  1  0.10813400  0.15586200  0.14079000  1
  C  122  1  0.09832000  0.16672500  0.15629700  1
  C  123  1  0.08682900  0.15358100  0.17003600  1
  C  124  1  0.08530300  0.12939900  0.16798200  1
  C  125  1  0.09466100  0.11834100  0.15268000  1
  C  126  1  0.10661200  0.13157600  0.13942000  1
  C  133  1  0.09011300  0.09519200  0.15033800  1
  C  134  1  0.10905700  0.17695100  0.07769800  1
  C  135  1  0.16552800  0.21699000  0.11890400  1
  C  136  1  0.07731200  0.16400900  0.18530900  1
  C  141  1  0.91187600  0.86496800  0.12437100  1
  C  142  1  0.89117200  0.84933900  0.12789700  1
  C  143  1  0.88047400  0.83519300  0.11451900  1
  C  144  1  0.89003900  0.83751300  0.09717300  1
  C  145  1  0.91004900  0.85345500  0.09304400  1
  C  146  1  0.92120500  0.86693500  0.10678200  1
  C  149  1  0.92346800  0.87799100  0.13843600  1
  C  150  1  0.93443300  0.86710300  0.15368700  1
  C  151  1  0.94764300  0.88013200  0.16692600  1
  C  152  1  0.94969700  0.90424300  0.16451300  1
  C  153  1  0.93931100  0.91537700  0.14940500  1
  C  154  1  0.92554200  0.90220000  0.13677400  1
  C  161  1  0.94432300  0.93842500  0.14647000  1
  C  162  1  0.91874000  0.85551300  0.07582000  1
  C  163  1  0.86218700  0.81821300  0.11806200  1
  C  164  1  0.95866300  0.86956900  0.18186200  1
  C  169  1  0.11253700  0.86317400  0.37590300  1
  C  170  1  0.13262200  0.84642300  0.37295500  1
  C  171  1  0.14306300  0.83301600  0.38694200  1
  C  172  1  0.13367400  0.83691100  0.40417200  1
  C  173  1  0.11418300  0.85394800  0.40765100  1
  C  174  1  0.10343900  0.86691800  0.39338400  1
  C  177  1  0.10149600  0.87571800  0.36136800  1
  C  178  1  0.08919400  0.86430100  0.34691900  1
  C  179  1  0.07677800  0.87719000  0.33320400  1
  C  180  1  0.07633300  0.90149500  0.33426600  1
  C  181  1  0.08843700  0.91305100  0.34849800  1
  C  182  1  0.10141300  0.90010100  0.36175700  1
  C  189  1  0.08513600  0.93649300  0.35015900  1
  C  190  1  0.10560800  0.85753900  0.42476900  1
  C  191  1  0.16137800  0.81558800  0.38417200  1
  C  192  1  0.06336100  0.86659100  0.31949700  1
  C  197  1  0.91026200  0.17137900  0.37402600  1
  C  198  1  0.88833900  0.18617600  0.37052700  1
  C  199  1  0.87689800  0.19997500  0.38386400  1
  C  200  1  0.88713200  0.19802000  0.40119900  1
  C  201  1  0.90843800  0.18290200  0.40532900  1
  C  202  1  0.92022900  0.16984000  0.39159200  1
  C  205  1  0.92172800  0.15822900  0.36000100  1
  C  206  1  0.93036300  0.16870600  0.34411400  1
  C  207  1  0.94266900  0.15533700  0.33072700  1
  C  208  1  0.94621700  0.13139800  0.33343400  1
  C  209  1  0.93784100  0.12069600  0.34909200  1
  C  210  1  0.92498000  0.13411400  0.36200000  1
  C  217  1  0.94332000  0.09769800  0.35210200  1
  C  218  1  0.91743600  0.18096400  0.42260300  1
  C  219  1  0.85686400  0.21595900  0.38036200  1
  C  220  1  0.95028400  0.16511900  0.31487500  1
  C  225  1  0.41450800  0.36303400  0.87494400  1
  C  226  1  0.39210600  0.35078300  0.86885800  1
  C  227  1  0.37657200  0.33733200  0.88030100  1
  C  228  1  0.38350500  0.33691100  0.89842500  1
  C  229  1  0.40543300  0.34929500  0.90504200  1
  C  230  1  0.42101600  0.36226800  0.89319900  1
  C  233  1  0.43008600  0.37570700  0.86268200  1
  C  234  1  0.44167100  0.36504600  0.84765300  1
  C  235  1  0.45734400  0.37786700  0.83565900  1
  C  236  1  0.46125100  0.40155900  0.83925000  1
  C  237  1  0.44997500  0.41248400  0.85406500  1
  C  238  1  0.43399200  0.39953200  0.86545100  1
  C  245  1  0.45451200  0.43554600  0.85719200  1
  C  246  1  0.41208300  0.34783800  0.92276800  1
  C  247  1  0.35610900  0.32401400  0.87342400  1
  C  248  1  0.46840300  0.36757400  0.82066100  1
  C  253  1  0.62043900  0.67425200  0.87558800  1
  C  254  1  0.64160500  0.68896100  0.87113400  1
  C  255  1  0.65357700  0.70327800  0.88388300  1
  C  256  1  0.64484200  0.70229900  0.90148800  1
  C  257  1  0.62432500  0.68730600  0.90645400  1
  C  258  1  0.61192500  0.67347200  0.89342100  1
  C  261  1  0.60787800  0.66074600  0.86219600  1
  C  262  1  0.59647000  0.67092600  0.84679900  1
  C  263  1  0.58292200  0.65732600  0.83402900  1
  C  264  1  0.58100500  0.63332700  0.83716700  1
  C  265  1  0.59202000  0.62287700  0.85237600  1
  C  266  1  0.60597500  0.63664600  0.86452500  1
  C  273  1  0.58818900  0.59974700  0.85568300  1
  C  274  1  0.61621100  0.68685200  0.92381800  1
  C  275  1  0.67219600  0.71935200  0.87924600  1
  C  276  1  0.57172700  0.66722100  0.81881400  1
  C  281  1  0.42182000  0.67315800  0.62369100  1
  C  282  1  0.40015900  0.68630400  0.63003800  1
  C  283  1  0.38409000  0.69984400  0.61865300  1
  C  284  1  0.38985000  0.69970100  0.60041500  1
  C  285  1  0.41114300  0.68649100  0.59360200  1
  C  286  1  0.42714800  0.67319800  0.60533600  1
  C  289  1  0.43750500  0.66001800  0.63584600  1
  C  290  1  0.45064500  0.67052500  0.65037900  1
  C  291  1  0.46569000  0.65695000  0.66245500  1
  C  292  1  0.46777500  0.63293700  0.65971500  1
  C  293  1  0.45490100  0.62226700  0.64534200  1
  C  294  1  0.43945000  0.63585300  0.63369100  1
  C  301  1  0.45777800  0.59890400  0.64271900  1
  C  302  1  0.41685600  0.68742800  0.57578700  1
  C  303  1  0.36406600  0.71356900  0.62570300  1
  C  304  1  0.47872800  0.66663000  0.67670600  1
  C  309  1  0.62244000  0.35849000  0.62669000  1
  C  310  1  0.64608600  0.34576700  0.62994000  1
  C  311  1  0.65881000  0.33311300  0.61642800  1
  C  312  1  0.64759400  0.33383500  0.59928700  1
  C  313  1  0.62426700  0.34664200  0.59553900  1
  C  314  1  0.61156400  0.35884200  0.60933700  1
  C  317  1  0.61087500  0.37180300  0.64052800  1
  C  318  1  0.60283900  0.36181500  0.65672500  1
  C  319  1  0.59055200  0.37554000  0.66992500  1
  C  320  1  0.58686800  0.39939400  0.66679100  1
  C  321  1  0.59501600  0.40961100  0.65089200  1
  C  322  1  0.60743500  0.39580000  0.63805200  1
  C  329  1  0.59025600  0.43263400  0.64766100  1
  C  330  1  0.61461600  0.34741700  0.57843200  1
  C  331  1  0.68176800  0.32010700  0.61929300  1
  C  332  1  0.58332900  0.36630200  0.68606800  1
  C  337  1  0.62363700  0.67210400  0.12604500  1
  C  338  1  0.64458300  0.68746200  0.12981300  1
  C  339  1  0.65532300  0.70160100  0.11659700  1
  C  340  1  0.64561700  0.69970600  0.09917300  1
  C  341  1  0.62545800  0.68391300  0.09475300  1
  C  342  1  0.61425500  0.67035700  0.10834500  1
  C  345  1  0.61246700  0.65876400  0.13997800  1
  C  346  1  0.60251100  0.66916300  0.15562900  1
  C  347  1  0.59076600  0.65565000  0.16907900  1
  C  348  1  0.58916200  0.63154100  0.16651900  1
  C  349  1  0.59874700  0.62094400  0.15108600  1
  C  350  1  0.61088200  0.63455200  0.13813700  1
  C  357  1  0.59489200  0.59775800  0.14845000  1
  C  358  1  0.61674100  0.68206600  0.07739500  1
  C  359  1  0.67398100  0.71807400  0.12053200  1
  C  360  1  0.58149500  0.66561000  0.18464100  1
  C  365  1  0.41774100  0.36273900  0.12379400  1
  C  366  1  0.39571400  0.35012700  0.12980600  1
  C  367  1  0.37992500  0.33686100  0.11821700  1
  C  368  1  0.38632600  0.33684800  0.10007000  1
  C  369  1  0.40794600  0.34951800  0.09352900  1
  C  370  1  0.42369000  0.36239800  0.10551600  1
  C  373  1  0.43364600  0.37530200  0.13610600  1
  C  374  1  0.44624300  0.36437400  0.15077600  1
  C  375  1  0.46282000  0.37700200  0.16248300  1
  C  376  1  0.46665300  0.40071300  0.15901200  1
  C  377  1  0.45432800  0.41197300  0.14457700  1
  C  378  1  0.43742400  0.39917300  0.13348700  1
  C  385  1  0.45897100  0.43504300  0.14126500  1
  C  386  1  0.41422900  0.34868400  0.07575600  1
  C  387  1  0.35972600  0.32331200  0.12495400  1
  C  388  1  0.47556300  0.36640400  0.17682900  1
  C  393  1  0.61915600  0.36037700  0.37594300  1
  C  394  1  0.64151400  0.34601700  0.37294400  1
  C  395  1  0.65426200  0.33395000  0.38688500  1
  C  396  1  0.64413700  0.33678300  0.40410600  1
  C  397  1  0.62207300  0.35124800  0.40765700  1
  C  398  1  0.60955400  0.36299300  0.39340100  1
  C  401  1  0.60740100  0.37276600  0.36159400  1
  C  402  1  0.59592300  0.36133900  0.34686100  1
  C  403  1  0.58323600  0.37418100  0.33319900  1
  C  404  1  0.58198900  0.39846800  0.33459200  1
  C  405  1  0.59351900  0.41001800  0.34903300  1
  C  406  1  0.60650800  0.39711200  0.36229900  1
  C  413  1  0.59031800  0.43345800  0.35068600  1
  C  414  1  0.61313300  0.35392800  0.42484000  1
  C  415  1  0.67652100  0.31990700  0.38445100  1
  C  416  1  0.57053300  0.36352300  0.31915900  1
  C  421  1  0.41641200  0.67206400  0.37488700  1
  C  422  1  0.39335700  0.68417800  0.36929600  1
  C  423  1  0.37794800  0.69751100  0.38105600  1
  C  424  1  0.38556800  0.69782900  0.39905500  1
  C  425  1  0.40804700  0.68540400  0.40526700  1
  C  426  1  0.42357200  0.67266900  0.39304200  1
  C  429  1  0.43139700  0.65915800  0.36226600  1
  C  430  1  0.44079400  0.66928100  0.34643700  1
  C  431  1  0.45508500  0.65593900  0.33391300  1
  C  432  1  0.45987000  0.63234600  0.33752700  1
  C  433  1  0.45091100  0.62198500  0.35319600  1
  C  434  1  0.43617900  0.63540700  0.36520600  1
  C  441  1  0.45621000  0.59902400  0.35664500  1
  C  442  1  0.41502500  0.68606700  0.42300400  1
  C  443  1  0.35674900  0.71060000  0.37454200  1
  C  444  1  0.46256600  0.66519000  0.31778800  1
  C  449  1  0.90559400  0.86226100  0.95206400  1
  C  450  1  0.92465900  0.84988100  0.96208300  1
  C  451  1  0.92460100  0.85105100  0.98059400  1
  C  452  1  0.90538600  0.86444400  0.98959000  1
  C  453  1  0.88633800  0.87724900  0.97960800  1
  C  454  1  0.88662600  0.87584500  0.96095500  1
  C  456  1  0.90473400  0.86350500  0.00834400  1
  C  457  1  0.92730500  0.86910200  0.01862200  1
  C  458  1  0.92688100  0.86712500  0.03712300  1
  C  459  1  0.90391000  0.85928100  0.04576900  1
  C  460  1  0.88133400  0.85386500  0.03554800  1
  C  461  1  0.88178500  0.85576300  0.01706800  1
  C  473  1  0.12128100  0.17277300  0.95378700  1
  C  474  1  0.10226200  0.18495700  0.96378800  1
  C  475  1  0.10239800  0.18342400  0.98228300  1
  C  476  1  0.12164200  0.16984700  0.99129100  1
  C  477  1  0.14067200  0.15726500  0.98132500  1
  C  478  1  0.14030000  0.15902900  0.96268700  1
  C  480  1  0.12238100  0.17043600  0.01006100  1
  C  481  1  0.09984800  0.16472300  0.02010500  1
  C  482  1  0.10034400  0.16647600  0.03862800  1
  C  483  1  0.12336700  0.17417900  0.04752100  1
  C  484  1  0.14589000  0.17974400  0.03753200  1
  C  485  1  0.14536700  0.17806200  0.01903800  1
  C  497  1  0.90323000  0.17125200  0.54620100  1
  C  498  1  0.92108000  0.18500200  0.53668200  1
  C  499  1  0.92145100  0.18427700  0.51816000  1
  C  500  1  0.90386900  0.16996600  0.50863800  1
  C  501  1  0.88605700  0.15581600  0.51810100  1
  C  502  1  0.88591700  0.15675900  0.53677400  1
  C  504  1  0.90345700  0.17128700  0.48988700  1
  C  505  1  0.92669200  0.16724100  0.47996200  1
  C  506  1  0.92636700  0.16957400  0.46147600  1
  C  507  1  0.90280700  0.17622400  0.45250200  1
  C  508  1  0.87960100  0.18013100  0.46237300  1
  C  509  1  0.87994400  0.17787300  0.48083400  1
  C  521  1  0.11840000  0.86107100  0.54833600  1
  C  522  1  0.09923600  0.84978900  0.53788500  1
  C  523  1  0.09941400  0.85201300  0.51943700  1
  C  524  1  0.11883800  0.86539500  0.51094300  1
  C  525  1  0.13797400  0.87712700  0.52136900  1
  C  526  1  0.13753400  0.87470000  0.53995400  1
  C  528  1  0.11976600  0.86522300  0.49219500  1
  C  529  1  0.09736000  0.87167400  0.48191700  1
  C  530  1  0.09780900  0.86982700  0.46341100  1
  C  531  1  0.12065000  0.86128700  0.45477700  1
  C  532  1  0.14312900  0.85516300  0.46499000  1
  C  533  1  0.14265200  0.85693200  0.48347300  1
  C  545  1  0.39634900  0.35300100  0.95215500  1
  C  546  1  0.41383300  0.33879600  0.96204400  1
  C  547  1  0.41368900  0.33937400  0.98057800  1
  C  548  1  0.39596400  0.35400600  0.98980200  1
  C  549  1  0.37822800  0.36835100  0.97997600  1
  C  550  1  0.37855800  0.36750700  0.96128600  1
  C  552  1  0.39630300  0.35370000  0.00861400  1
  C  553  1  0.41995400  0.35817500  0.01812100  1
  C  554  1  0.42046700  0.35748900  0.03668000  1
  C  555  1  0.39737600  0.35205300  0.04625700  1
  C  556  1  0.37371900  0.34779300  0.03679600  1
  C  557  1  0.37320400  0.34844000  0.01823300  1
  C  569  1  0.63066700  0.67945700  0.95340600  1
  C  570  1  0.61231200  0.69238100  0.96342600  1
  C  571  1  0.61237900  0.69087700  0.98192700  1
  C  572  1  0.63088000  0.67656900  0.99096200  1
  C  573  1  0.64930800  0.66332600  0.98098700  1
  C  574  1  0.64902500  0.66508000  0.96233800  1
  C  576  1  0.63127900  0.67680200  0.00976300  1
  C  577  1  0.60825000  0.67179500  0.01953800  1
  C  578  1  0.60844200  0.67308600  0.03808700  1
  C  579  1  0.63166300  0.67961700  0.04732600  1
  C  580  1  0.65468400  0.68445700  0.03760200  1
  C  581  1  0.65447800  0.68322100  0.01907500  1
  C  593  1  0.39986600  0.68249700  0.54662300  1
  C  594  1  0.41676200  0.69656900  0.53661300  1
  C  595  1  0.41619800  0.69572300  0.51809000  1
  C  596  1  0.39861600  0.68094900  0.50899100  1
  C  597  1  0.38140200  0.66679000  0.51893700  1
  C  598  1  0.38215300  0.66790100  0.53762300  1
  C  600  1  0.39855400  0.68100800  0.49017900  1
  C  601  1  0.42215100  0.67656900  0.48072700  1
  C  602  1  0.42232800  0.67726800  0.46217000  1
  C  603  1  0.39891700  0.68265600  0.45254600  1
  C  604  1  0.37530400  0.68683000  0.46194100  1
  C  605  1  0.37513500  0.68618800  0.48050200  1
  C  617  1  0.62666900  0.35730600  0.54882900  1
  C  618  1  0.60824300  0.34483600  0.53859100  1
  C  619  1  0.60802800  0.34675800  0.52011100  1
  C  620  1  0.62631200  0.36103000  0.51134500  1
  C  621  1  0.64467800  0.37394300  0.52155900  1
  C  622  1  0.64465300  0.37180300  0.54017400  1
  C  624  1  0.62689900  0.36078300  0.49256500  1
  C  625  1  0.60392300  0.36593900  0.48241700  1
  C  626  1  0.60432000  0.36439700  0.46388200  1
  C  627  1  0.62770400  0.35748000  0.45507000  1
  C  628  1  0.65068200  0.35253500  0.46515900  1
  C  629  1  0.65025600  0.35399200  0.48366200  1
  C  641  1  0.97489200  0.96542800  0.85663600  1
  C  642  1  0.96744000  0.98470900  0.84634600  1
  C  643  1  0.98188900  0.00523500  0.84743800  1
  C  644  1  0.00429500  0.00707500  0.85872500  1
  C  645  1  0.01179100  0.98778800  0.86926600  1
  C  646  1  0.99711900  0.96715500  0.86793300  1
  C  648  1  0.01916400  0.02785700  0.85859900  1
  C  649  1  0.00652300  0.04940200  0.86136100  1
  C  650  1  0.02076000  0.07002800  0.86001600  1
  C  651  1  0.04804000  0.06969900  0.85601800  1
  C  652  1  0.06084500  0.04824100  0.85331400  1
  C  653  1  0.04653900  0.02760800  0.85454200  1
  C  665  1  0.98297600  0.06934200  0.64273100  1
  C  666  1  0.97497400  0.05039100  0.65297200  1
  C  667  1  0.98867200  0.02925900  0.65192200  1
  C  668  1  0.01082900  0.02652400  0.64072700  1
  C  669  1  0.01884100  0.04543700  0.63019900  1
  C  670  1  0.00489200  0.06667400  0.63146500  1
  C  672  1  0.02527800  0.00533200  0.64120200  1
  C  673  1  0.01236300  0.98416400  0.63823100  1
  C  674  1  0.02618900  0.96314600  0.64016500  1
  C  675  1  0.05325100  0.96274300  0.64503300  1
  C  676  1  0.06629800  0.98385100  0.64793700  1
  C  677  1  0.05243600  0.00487300  0.64608200  1
  C  689  1  0.05531500  0.06856300  0.14406300  1
  C  690  1  0.06234600  0.04921000  0.15440100  1
  C  691  1  0.04756300  0.02886500  0.15326800  1
  C  692  1  0.02522300  0.02728100  0.14189600  1
  C  693  1  0.01815600  0.04663400  0.13130200  1
  C  694  1  0.03317300  0.06707300  0.13266500  1
  C  696  1  0.01001300  0.00668200  0.14196200  1
  C  697  1  0.02233300  0.98498700  0.13924500  1
  C  698  1  0.00773500  0.96454200  0.14047800  1
  C  699  1  0.98040400  0.96519800  0.14431200  1
  C  700  1  0.96792000  0.98680500  0.14697800  1
  C  701  1  0.98258600  0.00725800  0.14586300  1
  C  713  1  0.05206600  0.96502100  0.35700400  1
  C  714  1  0.05972300  0.98400700  0.34668100  1
  C  715  1  0.04560400  0.00495600  0.34761000  1
  C  716  1  0.02334200  0.00747700  0.35874800  1
  C  717  1  0.01573300  0.98854700  0.36939800  1
  C  718  1  0.03012100  0.96751800  0.36827300  1
  C  720  1  0.00844900  0.02845800  0.35818200  1
  C  721  1  0.02092300  0.04986200  0.36101800  1
  C  722  1  0.00656700  0.07064400  0.35924700  1
  C  723  1  0.97937700  0.07058400  0.35471300  1
  C  724  1  0.96679400  0.04925100  0.35186700  1
  C  725  1  0.98119600  0.02847000  0.35353900  1
  C  737  1  0.48817200  0.46361300  0.86063700  1
  C  738  1  0.47871000  0.48260300  0.85075100  1
  C  739  1  0.49174500  0.50384700  0.85161900  1
  C  740  1  0.51468400  0.50669800  0.86227500  1
  C  741  1  0.52417900  0.48769100  0.87243000  1
  C  742  1  0.51094200  0.46631400  0.87130100  1
  C  744  1  0.52818500  0.52815800  0.86178600  1
  C  745  1  0.51444400  0.54910500  0.86493500  1
  C  746  1  0.52728500  0.57036900  0.86319400  1
  C  747  1  0.55423700  0.57128500  0.85841900  1
  C  748  1  0.56811000  0.55043100  0.85528000  1
  C  749  1  0.55519700  0.52916500  0.85689400  1
  C  761  1  0.48997300  0.56917500  0.63837800  1
  C  762  1  0.48008300  0.55066000  0.64832100  1
  C  763  1  0.49271200  0.52900000  0.64781500  1
  C  764  1  0.51565100  0.52531900  0.63749400  1
  C  765  1  0.52546100  0.54377000  0.62717700  1
  C  766  1  0.51258500  0.56554400  0.62789900  1
  C  768  1  0.52925400  0.50377200  0.63881100  1
  C  769  1  0.51590900  0.48285600  0.63563100  1
  C  770  1  0.52894100  0.46156900  0.63821400  1
  C  771  1  0.55562100  0.46065100  0.64394100  1
  C  772  1  0.56901400  0.48151000  0.64720100  1
  C  773  1  0.55594500  0.50278500  0.64470700  1
  C  785  1  0.56137000  0.57014900  0.14204200  1
  C  786  1  0.56956200  0.55076200  0.15196900  1
  C  787  1  0.55614400  0.52977300  0.15029600  1
  C  788  1  0.53406800  0.52756200  0.13876900  1
  C  789  1  0.52580400  0.54697300  0.12861300  1
  C  790  1  0.53944500  0.56806400  0.13052400  1
  C  792  1  0.52022400  0.50626100  0.13830800  1
  C  793  1  0.53391700  0.48528400  0.13519100  1
  C  794  1  0.52067400  0.46411100  0.13605100  1
  C  795  1  0.49336200  0.46332900  0.13987300  1
  C  796  1  0.47952600  0.48422400  0.14293900  1
  C  797  1  0.49283000  0.50539500  0.14220200  1
  C  809  1  0.55813600  0.46245000  0.35780700  1
  C  810  1  0.56626400  0.48133400  0.34753800  1
  C  811  1  0.55322800  0.50274400  0.34895600  1
  C  812  1  0.53160900  0.50585400  0.36055500  1
  C  813  1  0.52347100  0.48699900  0.37110400  1
  C  814  1  0.53676600  0.46549500  0.36948200  1
  C  816  1  0.51782400  0.52739400  0.36053800  1
  C  817  1  0.53153900  0.54821900  0.36334800  1
  C  818  1  0.51825400  0.56957400  0.36198300  1
  C  819  1  0.49091700  0.57065800  0.35793000  1
  C  820  1  0.47710100  0.54990500  0.35511400  1
  C  821  1  0.49042900  0.52855600  0.35636800  1
  C  833  1  0.71572100  0.72685300  0.87068900  1
  C  834  1  0.71333000  0.74604500  0.85934300  1
  C  835  1  0.73463200  0.76121700  0.85728100  1
  C  836  1  0.75890600  0.75757200  0.86641800  1
  C  837  1  0.76167300  0.73796400  0.87757000  1
  C  838  1  0.74010200  0.72270500  0.87937800  1
  C  840  1  0.77912600  0.77448000  0.86533100  1
  C  841  1  0.77387700  0.79746300  0.87058300  1
  C  842  1  0.79439700  0.81368100  0.87153800  1
  C  843  1  0.82065500  0.80723300  0.86739900  1
  C  844  1  0.82579400  0.78462900  0.86130300  1
  C  845  1  0.80525100  0.76844400  0.86029100  1
  C  857  1  0.31694900  0.30266600  0.87954400  1
  C  858  1  0.31711800  0.28549600  0.86633900  1
  C  859  1  0.29534900  0.27078700  0.86414500  1
  C  860  1  0.27281500  0.27292900  0.87503100  1
  C  861  1  0.27251800  0.28998800  0.88848100  1
  C  862  1  0.29470700  0.30452900  0.89061300  1
  C  864  1  0.25149500  0.25730700  0.87290400  1
  C  865  1  0.25518900  0.23359400  0.87651400  1
  C  866  1  0.23341900  0.21859200  0.87659100  1
  C  867  1  0.20751000  0.22694100  0.87314100  1
  C  868  1  0.20404500  0.25041000  0.86853700  1
  C  869  1  0.22575400  0.26543600  0.86852500  1
  C  881  1  0.71974200  0.31121800  0.63535700  1
  C  882  1  0.72077300  0.29375000  0.64822200  1
  C  883  1  0.74308500  0.27909700  0.64949300  1
  C  884  1  0.76492800  0.28173400  0.63807100  1
  C  885  1  0.76434900  0.29980600  0.62540100  1
  C  886  1  0.74177600  0.31446200  0.62430700  1
  C  888  1  0.78554100  0.26480800  0.63811700  1
  C  889  1  0.77960300  0.24165900  0.63401400  1
  C  890  1  0.80003500  0.22531800  0.63162200  1
  C  891  1  0.82694600  0.23174900  0.63320400  1
  C  892  1  0.83283900  0.25454900  0.63819500  1
  C  893  1  0.81240200  0.27094100  0.64052300  1
  C  905  1  0.32275500  0.73296100  0.62038300  1
  C  906  1  0.32256800  0.74999200  0.63369700  1
  C  907  1  0.29999700  0.76393800  0.63632700  1
  C  908  1  0.27701800  0.76117300  0.62576500  1
  C  909  1  0.27704700  0.74426700  0.61220000  1
  C  910  1  0.30000600  0.73044100  0.60966900  1
  C  912  1  0.25493400  0.77617200  0.62826900  1
  C  913  1  0.25729400  0.80007300  0.62516500  1
  C  914  1  0.23475200  0.81456200  0.62538200  1
  C  915  1  0.20943200  0.80543100  0.62859900  1
  C  916  1  0.20726100  0.78177800  0.63273600  1
  C  917  1  0.22976900  0.76728500  0.63249700  1
  C  929  1  0.31986000  0.30274800  0.11871500  1
  C  930  1  0.32030800  0.28511000  0.13155400  1
  C  931  1  0.29843700  0.27053300  0.13358700  1
  C  932  1  0.27549800  0.27325100  0.12290400  1
  C  933  1  0.27489700  0.29080500  0.10983100  1
  C  934  1  0.29719100  0.30521400  0.10785600  1
  C  936  1  0.25405800  0.25774800  0.12488900  1
  C  937  1  0.25745700  0.23404100  0.12118500  1
  C  938  1  0.23563200  0.21909900  0.12133500  1
  C  939  1  0.20992100  0.22745900  0.12513900  1
  C  940  1  0.20677500  0.25096600  0.12971400  1
  C  941  1  0.22853900  0.26593300  0.12950400  1
  C  953  1  0.71742300  0.72632900  0.12922000  1
  C  954  1  0.71523300  0.74598500  0.14007500  1
  C  955  1  0.73651900  0.76131300  0.14171400  1
  C  956  1  0.76056200  0.75737400  0.13262100  1
  C  957  1  0.76308400  0.73734500  0.12191600  1
  C  958  1  0.74155100  0.72193400  0.12054100  1
  C  960  1  0.78083400  0.77429800  0.13336800  1
  C  961  1  0.77546900  0.79715600  0.12779800  1
  C  962  1  0.79597200  0.81334100  0.12659800  1
  C  963  1  0.82234700  0.80699600  0.13078700  1
  C  964  1  0.82761700  0.78453500  0.13719900  1
  C  965  1  0.80709200  0.76838800  0.13846500  1
  C  977  1  0.31697600  0.73138800  0.38109700  1
  C  978  1  0.31585300  0.74807800  0.36754200  1
  C  979  1  0.29329600  0.76225200  0.36536800  1
  C  980  1  0.27125500  0.76007700  0.37664000  1
  C  981  1  0.27226400  0.74352200  0.39045400  1
  C  982  1  0.29521800  0.72948100  0.39253400  1
  C  984  1  0.24917100  0.77526600  0.37451900  1
  C  985  1  0.25214900  0.79924100  0.37699500  1
  C  986  1  0.22985000  0.81402600  0.37694400  1
  C  987  1  0.20412200  0.80517800  0.37451500  1
  C  988  1  0.20127000  0.78138000  0.37106400  1
  C  989  1  0.22353500  0.76658700  0.37113900  1
  C  1001  1  0.71090400  0.30562200  0.36700100  1
  C  1002  1  0.71109300  0.28896800  0.35350400  1
  C  1003  1  0.73318100  0.27424300  0.35137400  1
  C  1004  1  0.75577000  0.27614400  0.36246700  1
  C  1005  1  0.75605500  0.29336100  0.37580700  1
  C  1006  1  0.73369100  0.30803700  0.37777000  1
  C  1008  1  0.77679800  0.25972900  0.36109100  1
  C  1009  1  0.77212000  0.23619600  0.36461700  1
  C  1010  1  0.79339000  0.22040400  0.36610800  1
  C  1011  1  0.81974000  0.22788200  0.36424900  1
  C  1012  1  0.82442600  0.25109700  0.35976100  1
  C  1013  1  0.80316200  0.26686100  0.35823100  1
  C  1025  1  0.98392000  0.87395500  0.79196700  1
  C  1026  1  0.97659200  0.85637700  0.78006700  1
  C  1027  1  0.98970900  0.85388700  0.76386400  1
  C  1028  1  0.01051600  0.86880500  0.75922500  1
  C  1029  1  0.01809700  0.88652800  0.77110100  1
  C  1030  1  0.00470300  0.88878400  0.78735700  1
  C  1032  1  0.02215600  0.86693100  0.74229300  1
  C  1033  1  0.00705900  0.87240800  0.72704400  1
  C  1034  1  0.01931800  0.87392500  0.71048500  1
  C  1035  1  0.04676100  0.86961200  0.70875200  1
  C  1036  1  0.06175300  0.86352000  0.72393100  1
  C  1037  1  0.04956600  0.86221000  0.74052400  1
  C  1049  1  0.03743700  0.15965200  0.79403400  1
  C  1050  1  0.03714800  0.18093600  0.78504700  1
  C  1051  1  0.02288300  0.18349500  0.76912500  1
  C  1052  1  0.00850300  0.16492300  0.76183800  1
  C  1053  1  0.00881600  0.14338800  0.77078000  1
  C  1054  1  0.02311200  0.14114800  0.78683600  1
  C  1056  1  0.99541000  0.16762700  0.74524500  1
  C  1057  1  0.01011000  0.17290600  0.72997700  1
  C  1058  1  0.99819400  0.17196700  0.71314200  1
  C  1059  1  0.97123500  0.16590000  0.71122700  1
  C  1060  1  0.95632800  0.16134600  0.72646800  1
  C  1061  1  0.96816900  0.16249000  0.74330100  1
  C  1073  1  0.04522600  0.16019400  0.20864300  1
  C  1074  1  0.05244200  0.17782100  0.22053100  1
  C  1075  1  0.03932300  0.18025800  0.23673900  1
  C  1076  1  0.01862800  0.16523400  0.24140200  1
  C  1077  1  0.01114600  0.14747100  0.22953100  1
  C  1078  1  0.02454000  0.14526800  0.21327100  1
  C  1080  1  0.00708000  0.16699600  0.25837400  1
  C  1081  1  0.02233600  0.16162100  0.27357400  1
  C  1082  1  0.01021200  0.15994900  0.29016800  1
  C  1083  1  0.98273600  0.16400400  0.29199300  1
  C  1084  1  0.96757500  0.17000300  0.27686500  1
  C  1085  1  0.97963100  0.17147100  0.26023500  1
  C  1097  1  0.99061800  0.87470300  0.20549000  1
  C  1098  1  0.99027000  0.85347300  0.21454400  1
  C  1099  1  0.00451600  0.85067200  0.23044300  1
  C  1100  1  0.01949200  0.86894500  0.23762700  1
  C  1101  1  0.01986700  0.89041300  0.22861300  1
  C  1102  1  0.00558600  0.89289200  0.21257400  1
  C  1104  1  0.03244000  0.86607700  0.25423200  1
  C  1105  1  0.01746300  0.86160800  0.26953000  1
  C  1106  1  0.02938800  0.86246900  0.28635800  1
  C  1107  1  0.05661500  0.86764100  0.28822500  1
  C  1108  1  0.07175900  0.87135700  0.27295100  1
  C  1109  1  0.05989100  0.87033300  0.25612500  1
  C  1121  1  0.49254400  0.37480100  0.79383000  1
  C  1122  1  0.48711100  0.35537100  0.78325100  1
  C  1123  1  0.49916000  0.35276100  0.76667800  1
  C  1124  1  0.51705900  0.36939600  0.76040000  1
  C  1125  1  0.52254400  0.38908800  0.77087100  1
  C  1126  1  0.51008600  0.39154300  0.78744200  1
  C  1128  1  0.52820600  0.36684200  0.74337400  1
  C  1129  1  0.51234000  0.37051600  0.72816700  1
  C  1130  1  0.52400100  0.37149000  0.71137700  1
  C  1131  1  0.55160900  0.36837000  0.70938700  1
  C  1132  1  0.56740500  0.36416000  0.72457400  1
  C  1133  1  0.55582600  0.36346100  0.74139200  1
  C  1145  1  0.54435800  0.65939000  0.79307700  1
  C  1146  1  0.54437700  0.68038900  0.78370000  1
  C  1147  1  0.53142300  0.68223700  0.76724400  1
  C  1148  1  0.51803800  0.66323100  0.75977900  1
  C  1149  1  0.51799000  0.64199000  0.76911700  1
  C  1150  1  0.53106200  0.64043600  0.78567300  1
  C  1152  1  0.50617000  0.66531900  0.74273500  1
  C  1153  1  0.52181800  0.67067400  0.72790700  1
  C  1154  1  0.51098700  0.66980800  0.71074900  1
  C  1155  1  0.48417200  0.66372900  0.70804900  1
  C  1156  1  0.46836400  0.65896200  0.72284200  1
  C  1157  1  0.47913100  0.65998900  0.73999300  1
  C  1169  1  0.55154400  0.66032500  0.20906600  1
  C  1170  1  0.55928900  0.67767400  0.22104900  1
  C  1171  1  0.54712500  0.67957400  0.23763000  1
  C  1172  1  0.52686400  0.66427600  0.24261000  1
  C  1173  1  0.51887900  0.64676900  0.23065600  1
  C  1174  1  0.53134600  0.64508100  0.21403000  1
  C  1176  1  0.51610400  0.66569600  0.25985000  1
  C  1177  1  0.53216300  0.66055800  0.27473700  1
  C  1178  1  0.52092700  0.65899000  0.29162600  1
  C  1179  1  0.49354900  0.66295500  0.29408300  1
  C  1180  1  0.47756900  0.66860800  0.27924800  1
  C  1181  1  0.48873000  0.66996200  0.26233000  1
  C  1193  1  0.49679600  0.37408500  0.20499900  1
  C  1194  1  0.50028900  0.35206900  0.21261500  1
  C  1195  1  0.51389100  0.34951100  0.22879800  1
  C  1196  1  0.52458000  0.36882100  0.23762300  1
  C  1197  1  0.52085500  0.39109000  0.23015500  1
  C  1198  1  0.50696500  0.39337900  0.21394700  1
  C  1200  1  0.53811500  0.36582400  0.25401300  1
  C  1201  1  0.52444300  0.35793000  0.26902700  1
  C  1202  1  0.53659800  0.35835700  0.28581500  1
  C  1203  1  0.56278400  0.36649400  0.28790200  1
  C  1204  1  0.57670900  0.37366800  0.27284400  1
  C  1205  1  0.56463000  0.37314500  0.25606900  1
  C  1217  1  0.67225700  0.86490700  0.87401400  1
  C  1218  1  0.65115700  0.84951600  0.87066500  1
  C  1219  1  0.64083300  0.83542400  0.88410300  1
  C  1220  1  0.65121800  0.83759600  0.90135500  1
  C  1221  1  0.67167400  0.85325900  0.90526600  1
  C  1222  1  0.68245000  0.86668900  0.89150400  1
  C  1225  1  0.68310400  0.87803200  0.85986500  1
  C  1226  1  0.69263300  0.86732500  0.84422700  1
  C  1227  1  0.70447600  0.88055000  0.83067400  1
  C  1228  1  0.70655500  0.90465100  0.83303400  1
  C  1229  1  0.69743700  0.91554500  0.84847300  1
  C  1230  1  0.68522600  0.90223500  0.86158000  1
  C  1237  1  0.70208000  0.93864800  0.85098800  1
  C  1238  1  0.68102700  0.85485100  0.92239500  1
  C  1239  1  0.62205500  0.81869000  0.88075200  1
  C  1240  1  0.71371300  0.87027500  0.81527000  1
  C  1245  1  0.87694000  0.17060000  0.87573500  1
  C  1246  1  0.89780100  0.18614200  0.87234700  1
  C  1247  1  0.90835670  0.20017600  0.88583900  1
  C  1248  1  0.89852100  0.19793900  0.90311100  1
  C  1249  1  0.87828700  0.18216200  0.90701800  1
  C  1250  1  0.86724300  0.16871600  0.89324500  1
  C  1253  1  0.86560600  0.15748800  0.86163600  1
  C  1254  1  0.85470100  0.16822900  0.84630500  1
  C  1255  1  0.84168700  0.15505900  0.83305100  1
  C  1256  1  0.83986600  0.13093500  0.83553100  1
  C  1257  1  0.85028100  0.11994300  0.85069100  1
  C  1258  1  0.86375000  0.13327900  0.86336100  1
  C  1265  1  0.84559600  0.09685300  0.85365000  1
  C  1266  1  0.86930000  0.18052800  0.92413100  1
  C  1267  1  0.92662570  0.21715500  0.88248000  1
  C  1268  1  0.83059000  0.16549000  0.81806100  1
  C  1273  1  0.67396400  0.16853100  0.62465000  1
  C  1274  1  0.64958800  0.17967700  0.62841300  1
  C  1275  1  0.63451300  0.19040800  0.61491100  1
  C  1276  1  0.64402700  0.18981500  0.59745900  1
  C  1277  1  0.66840800  0.17891800  0.59335400  1
  C  1278  1  0.68335200  0.16819200  0.60704300  1
  C  1281  1  0.68799100  0.15682500  0.63836200  1
  C  1282  1  0.69899800  0.16878200  0.65298000  1
  C  1283  1  0.71369000  0.15661700  0.66609200  1
  C  1284  1  0.71731800  0.13254100  0.66433300  1
  C  1285  1  0.70625500  0.12046500  0.64997000  1
  C  1286  1  0.69135600  0.13266100  0.63718800  1
  C  1293  1  0.71095700  0.09721400  0.64813600  1
  C  1294  1  0.67742200  0.17905100  0.57616700  1
  C  1295  1  0.61052000  0.20108800  0.61829600  1
  C  1296  1  0.72579700  0.16782600  0.68005300  1
  C  1301  1  0.87786700  0.86027500  0.62597600  1
  C  1302  1  0.89939300  0.84478600  0.62874200  1
  C  1303  1  0.90923270  0.83086300  0.61494800  1
  C  1304  1  0.89789500  0.83319800  0.59796500  1
  C  1305  1  0.87694800  0.84896200  0.59467000  1
  C  1306  1  0.86666900  0.86228000  0.60875800  1
  C  1309  1  0.86814500  0.87380600  0.64032800  1
  C  1310  1  0.85981600  0.86363600  0.65639800  1
  C  1311  1  0.84893100  0.87746000  0.67005200  1
  C  1312  1  0.84665700  0.90152700  0.66748700  1
  C  1313  1  0.85493900  0.91189800  0.65168200  1
  C  1314  1  0.86622600  0.89801900  0.63842500  1
  C  1321  1  0.85041800  0.93501700  0.64874400  1
  C  1322  1  0.86723200  0.85129500  0.57769300  1
  C  1323  1  0.92905070  0.81458400  0.61763100  1
  C  1324  1  0.84121300  0.86792400  0.68594800  1
  C  1329  1  0.88034400  0.16890500  0.12637600  1
  C  1330  1  0.90062070  0.18519700  0.12943700  1
  C  1331  1  0.90999770  0.19931200  0.11574100  1
  C  1332  1  0.89969200  0.19642200  0.09856100  1
  C  1333  1  0.88023000  0.17971700  0.09484700  1
  C  1334  1  0.87028600  0.16623700  0.10890500  1
  C  1337  1  0.87006500  0.15586200  0.14079000  1
  C  1338  1  0.86025100  0.16672500  0.15629700  1
  C  1339  1  0.84876000  0.15358100  0.17003600  1
  C  1340  1  0.84723400  0.12939900  0.16798200  1
  C  1341  1  0.85659200  0.11834100  0.15268000  1
  C  1342  1  0.86854300  0.13157600  0.13942000  1
  C  1349  1  0.85204400  0.09519200  0.15033800  1
  C  1350  1  0.87098800  0.17695100  0.07769800  1
  C  1351  1  0.92745870  0.21699000  0.11890400  1
  C  1352  1  0.83924300  0.16400900  0.18530900  1
  C  1357  1  0.67380700  0.86496800  0.12437100  1
  C  1358  1  0.65310300  0.84933900  0.12789700  1
  C  1359  1  0.64240500  0.83519300  0.11451900  1
  C  1360  1  0.65197000  0.83751300  0.09717300  1
  C  1361  1  0.67198000  0.85345500  0.09304400  1
  C  1362  1  0.68313600  0.86693500  0.10678200  1
  C  1365  1  0.68539900  0.87799100  0.13843600  1
  C  1366  1  0.69636400  0.86710300  0.15368700  1
  C  1367  1  0.70957400  0.88013200  0.16692600  1
  C  1368  1  0.71162800  0.90424300  0.16451300  1
  C  1369  1  0.70124200  0.91537700  0.14940500  1
  C  1370  1  0.68747300  0.90220000  0.13677400  1
  C  1377  1  0.70625400  0.93842500  0.14647000  1
  C  1378  1  0.68067100  0.85551300  0.07582000  1
  C  1379  1  0.62411800  0.81821300  0.11806200  1
  C  1380  1  0.72059400  0.86956900  0.18186200  1
  C  1385  1  0.87446800  0.86317400  0.37590300  1
  C  1386  1  0.89455300  0.84642300  0.37295500  1
  C  1387  1  0.90499370  0.83301600  0.38694200  1
  C  1388  1  0.89560500  0.83691100  0.40417200  1
  C  1389  1  0.87611400  0.85394800  0.40765100  1
  C  1390  1  0.86537000  0.86691800  0.39338400  1
  C  1393  1  0.86342700  0.87571800  0.36136800  1
  C  1394  1  0.85112500  0.86430100  0.34691900  1
  C  1395  1  0.83870900  0.87719000  0.33320400  1
  C  1396  1  0.83826400  0.90149500  0.33426600  1
  C  1397  1  0.85036800  0.91305100  0.34849800  1
  C  1398  1  0.86334400  0.90010100  0.36175700  1
  C  1405  1  0.84706700  0.93649300  0.35015900  1
  C  1406  1  0.86753900  0.85753900  0.42476900  1
  C  1407  1  0.92330870  0.81558800  0.38417200  1
  C  1408  1  0.82529200  0.86659100  0.31949700  1
  C  1413  1  0.67219300  0.17137900  0.37402600  1
  C  1414  1  0.65027000  0.18617600  0.37052700  1
  C  1415  1  0.63882900  0.19997500  0.38386400  1
  C  1416  1  0.64906300  0.19802000  0.40119900  1
  C  1417  1  0.67036900  0.18290200  0.40532900  1
  C  1418  1  0.68216000  0.16984000  0.39159200  1
  C  1421  1  0.68365900  0.15822900  0.36000100  1
  C  1422  1  0.69229400  0.16870600  0.34411400  1
  C  1423  1  0.70460000  0.15533700  0.33072700  1
  C  1424  1  0.70814800  0.13139800  0.33343400  1
  C  1425  1  0.69977200  0.12069600  0.34909200  1
  C  1426  1  0.68691100  0.13411400  0.36200000  1
  C  1433  1  0.70525100  0.09769800  0.35210200  1
  C  1434  1  0.67936700  0.18096400  0.42260300  1
  C  1435  1  0.61879500  0.21595900  0.38036200  1
  C  1436  1  0.71221500  0.16511900  0.31487500  1
  C  1441  1  0.17643900  0.36303400  0.87494400  1
  C  1442  1  0.15403700  0.35078300  0.86885800  1
  C  1443  1  0.13850300  0.33733200  0.88030100  1
  C  1444  1  0.14543600  0.33691100  0.89842500  1
  C  1445  1  0.16736400  0.34929500  0.90504200  1
  C  1446  1  0.18294700  0.36226800  0.89319900  1
  C  1449  1  0.19201700  0.37570700  0.86268200  1
  C  1450  1  0.20360200  0.36504600  0.84765300  1
  C  1451  1  0.21927500  0.37786700  0.83565900  1
  C  1452  1  0.22318200  0.40155900  0.83925000  1
  C  1453  1  0.21190600  0.41248400  0.85406500  1
  C  1454  1  0.19592300  0.39953200  0.86545100  1
  C  1461  1  0.21644300  0.43554600  0.85719200  1
  C  1462  1  0.17401400  0.34783800  0.92276800  1
  C  1463  1  0.11804000  0.32401400  0.87342400  1
  C  1464  1  0.23033400  0.36757400  0.82066100  1
  C  1469  1  0.38237000  0.67425200  0.87558800  1
  C  1470  1  0.40353600  0.68896100  0.87113400  1
  C  1471  1  0.41550800  0.70327800  0.88388300  1
  C  1472  1  0.40677300  0.70229900  0.90148800  1
  C  1473  1  0.38625600  0.68730600  0.90645400  1
  C  1474  1  0.37385600  0.67347200  0.89342100  1
  C  1477  1  0.36980900  0.66074600  0.86219600  1
  C  1478  1  0.35840100  0.67092600  0.84679900  1
  C  1479  1  0.34485300  0.65732600  0.83402900  1
  C  1480  1  0.34293600  0.63332700  0.83716700  1
  C  1481  1  0.35395100  0.62287700  0.85237600  1
  C  1482  1  0.36790600  0.63664600  0.86452500  1
  C  1489  1  0.35012000  0.59974700  0.85568300  1
  C  1490  1  0.37814200  0.68685200  0.92381800  1
  C  1491  1  0.43412700  0.71935200  0.87924600  1
  C  1492  1  0.33365800  0.66722100  0.81881400  1
  C  1497  1  0.18375100  0.67315800  0.62369100  1
  C  1498  1  0.16209000  0.68630400  0.63003800  1
  C  1499  1  0.14602100  0.69984400  0.61865300  1
  C  1500  1  0.15178100  0.69970100  0.60041500  1
  C  1501  1  0.17307400  0.68649100  0.59360200  1
  C  1502  1  0.18907900  0.67319800  0.60533600  1
  C  1505  1  0.19943600  0.66001800  0.63584600  1
  C  1506  1  0.21257600  0.67052500  0.65037900  1
  C  1507  1  0.22762100  0.65695000  0.66245500  1
  C  1508  1  0.22970600  0.63293700  0.65971500  1
  C  1509  1  0.21683200  0.62226700  0.64534200  1
  C  1510  1  0.20138100  0.63585300  0.63369100  1
  C  1517  1  0.21970900  0.59890400  0.64271900  1
  C  1518  1  0.17878700  0.68742800  0.57578700  1
  C  1519  1  0.12599700  0.71356900  0.62570300  1
  C  1520  1  0.24065900  0.66663000  0.67670600  1
  C  1525  1  0.38437100  0.35849000  0.62669000  1
  C  1526  1  0.40801700  0.34576700  0.62994000  1
  C  1527  1  0.42074100  0.33311300  0.61642800  1
  C  1528  1  0.40952500  0.33383500  0.59928700  1
  C  1529  1  0.38619800  0.34664200  0.59553900  1
  C  1530  1  0.37349500  0.35884200  0.60933700  1
  C  1533  1  0.37280600  0.37180300  0.64052800  1
  C  1534  1  0.36477000  0.36181500  0.65672500  1
  C  1535  1  0.35248300  0.37554000  0.66992500  1
  C  1536  1  0.34879900  0.39939400  0.66679100  1
  C  1537  1  0.35694700  0.40961100  0.65089200  1
  C  1538  1  0.36936600  0.39580000  0.63805200  1
  C  1545  1  0.35218700  0.43263400  0.64766100  1
  C  1546  1  0.37654700  0.34741700  0.57843200  1
  C  1547  1  0.44369900  0.32010700  0.61929300  1
  C  1548  1  0.34526000  0.36630200  0.68606800  1
  C  1553  1  0.38556800  0.67210400  0.12604500  1
  C  1554  1  0.40651400  0.68746200  0.12981300  1
  C  1555  1  0.41725400  0.70160100  0.11659700  1
  C  1556  1  0.40754800  0.69970600  0.09917300  1
  C  1557  1  0.38738900  0.68391300  0.09475300  1
  C  1558  1  0.37618600  0.67035700  0.10834500  1
  C  1561  1  0.37439800  0.65876400  0.13997800  1
  C  1562  1  0.36444200  0.66916300  0.15562900  1
  C  1563  1  0.35269700  0.65565000  0.16907900  1
  C  1564  1  0.35109300  0.63154100  0.16651900  1
  C  1565  1  0.36067800  0.62094400  0.15108600  1
  C  1566  1  0.37281300  0.63455200  0.13813700  1
  C  1573  1  0.35682300  0.59775800  0.14845000  1
  C  1574  1  0.37867200  0.68206600  0.07739500  1
  C  1575  1  0.43591200  0.71807400  0.12053200  1
  C  1576  1  0.34342600  0.66561000  0.18464100  1
  C  1581  1  0.17967200  0.36273900  0.12379400  1
  C  1582  1  0.15764500  0.35012700  0.12980600  1
  C  1583  1  0.14185600  0.33686100  0.11821700  1
  C  1584  1  0.14825700  0.33684800  0.10007000  1
  C  1585  1  0.16987700  0.34951800  0.09352900  1
  C  1586  1  0.18562100  0.36239800  0.10551600  1
  C  1589  1  0.19557700  0.37530200  0.13610600  1
  C  1590  1  0.20817400  0.36437400  0.15077600  1
  C  1591  1  0.22475100  0.37700200  0.16248300  1
  C  1592  1  0.22858400  0.40071300  0.15901200  1
  C  1593  1  0.21625900  0.41197300  0.14457700  1
  C  1594  1  0.19935500  0.39917300  0.13348700  1
  C  1601  1  0.22090200  0.43504300  0.14126500  1
  C  1602  1  0.17616000  0.34868400  0.07575600  1
  C  1603  1  0.12165700  0.32331200  0.12495400  1
  C  1604  1  0.23749400  0.36640400  0.17682900  1
  C  1609  1  0.38108700  0.36037700  0.37594300  1
  C  1610  1  0.40344500  0.34601700  0.37294400  1
  C  1611  1  0.41619300  0.33395000  0.38688500  1
  C  1612  1  0.40606800  0.33678300  0.40410600  1
  C  1613  1  0.38400400  0.35124800  0.40765700  1
  C  1614  1  0.37148500  0.36299300  0.39340100  1
  C  1617  1  0.36933200  0.37276600  0.36159400  1
  C  1618  1  0.35785400  0.36133900  0.34686100  1
  C  1619  1  0.34516700  0.37418100  0.33319900  1
  C  1620  1  0.34392000  0.39846800  0.33459200  1
  C  1621  1  0.35545000  0.41001800  0.34903300  1
  C  1622  1  0.36843900  0.39711200  0.36229900  1
  C  1629  1  0.35224900  0.43345800  0.35068600  1
  C  1630  1  0.37506400  0.35392800  0.42484000  1
  C  1631  1  0.43845200  0.31990700  0.38445100  1
  C  1632  1  0.33246400  0.36352300  0.31915900  1
  C  1637  1  0.17834300  0.67206400  0.37488700  1
  C  1638  1  0.15528800  0.68417800  0.36929600  1
  C  1639  1  0.13987900  0.69751100  0.38105600  1
  C  1640  1  0.14749900  0.69782900  0.39905500  1
  C  1641  1  0.16997800  0.68540400  0.40526700  1
  C  1642  1  0.18550300  0.67266900  0.39304200  1
  C  1645  1  0.19332800  0.65915800  0.36226600  1
  C  1646  1  0.20272500  0.66928100  0.34643700  1
  C  1647  1  0.21701600  0.65593900  0.33391300  1
  C  1648  1  0.22180100  0.63234600  0.33752700  1
  C  1649  1  0.21284200  0.62198500  0.35319600  1
  C  1650  1  0.19811000  0.63540700  0.36520600  1
  C  1657  1  0.21814100  0.59902400  0.35664500  1
  C  1658  1  0.17695600  0.68606700  0.42300400  1
  C  1659  1  0.11868000  0.71060000  0.37454200  1
  C  1660  1  0.22449700  0.66519000  0.31778800  1
  C  1665  1  0.66752500  0.86226100  0.95206400  1
  C  1666  1  0.68659000  0.84988100  0.96208300  1
  C  1667  1  0.68653200  0.85105100  0.98059400  1
  C  1668  1  0.66731700  0.86444400  0.98959000  1
  C  1669  1  0.64826900  0.87724900  0.97960800  1
  C  1670  1  0.64855700  0.87584500  0.96095500  1
  C  1672  1  0.66666667  0.86350500  0.00834400  1
  C  1673  1  0.68923600  0.86910200  0.01862200  1
  C  1674  1  0.68881200  0.86712500  0.03712300  1
  C  1675  1  0.66584100  0.85928100  0.04576900  1
  C  1676  1  0.64326500  0.85386500  0.03554800  1
  C  1677  1  0.64371600  0.85576300  0.01706800  1
  C  1689  1  0.88321200  0.17277300  0.95378700  1
  C  1690  1  0.86419300  0.18495700  0.96378800  1
  C  1691  1  0.86432900  0.18342400  0.98228300  1
  C  1692  1  0.88357300  0.16984700  0.99129100  1
  C  1693  1  0.90260270  0.15726500  0.98132500  1
  C  1694  1  0.90223070  0.15902900  0.96268700  1
  C  1696  1  0.88431200  0.17043600  0.01006100  1
  C  1697  1  0.86177900  0.16472300  0.02010500  1
  C  1698  1  0.86227500  0.16647600  0.03862800  1
  C  1699  1  0.88529800  0.17417900  0.04752100  1
  C  1700  1  0.90782070  0.17974400  0.03753200  1
  C  1701  1  0.90729770  0.17806200  0.01903800  1
  C  1713  1  0.66516100  0.17125200  0.54620100  1
  C  1714  1  0.68301100  0.18500200  0.53668200  1
  C  1715  1  0.68338200  0.18427700  0.51816000  1
  C  1716  1  0.66580000  0.16996600  0.50863800  1
  C  1717  1  0.64798800  0.15581600  0.51810100  1
  C  1718  1  0.64784800  0.15675900  0.53677400  1
  C  1720  1  0.66538800  0.17128700  0.48988700  1
  C  1721  1  0.68862300  0.16724100  0.47996200  1
  C  1722  1  0.68829800  0.16957400  0.46147600  1
  C  1723  1  0.66473800  0.17622400  0.45250200  1
  C  1724  1  0.64153200  0.18013100  0.46237300  1
  C  1725  1  0.64187500  0.17787300  0.48083400  1
  C  1737  1  0.88033100  0.86107100  0.54833600  1
  C  1738  1  0.86116700  0.84978900  0.53788500  1
  C  1739  1  0.86134500  0.85201300  0.51943700  1
  C  1740  1  0.88076900  0.86539500  0.51094300  1
  C  1741  1  0.89990500  0.87712700  0.52136900  1
  C  1742  1  0.89946500  0.87470000  0.53995400  1
  C  1744  1  0.88169700  0.86522300  0.49219500  1
  C  1745  1  0.85929100  0.87167400  0.48191700  1
  C  1746  1  0.85974000  0.86982700  0.46341100  1
  C  1747  1  0.88258100  0.86128700  0.45477700  1
  C  1748  1  0.90505970  0.85516300  0.46499000  1
  C  1749  1  0.90458270  0.85693200  0.48347300  1
  C  1761  1  0.15828000  0.35300100  0.95215500  1
  C  1762  1  0.17576400  0.33879600  0.96204400  1
  C  1763  1  0.17562000  0.33937400  0.98057800  1
  C  1764  1  0.15789500  0.35400600  0.98980200  1
  C  1765  1  0.14015900  0.36835100  0.97997600  1
  C  1766  1  0.14048900  0.36750700  0.96128600  1
  C  1768  1  0.15823400  0.35370000  0.00861400  1
  C  1769  1  0.18188500  0.35817500  0.01812100  1
  C  1770  1  0.18239800  0.35748900  0.03668000  1
  C  1771  1  0.15930700  0.35205300  0.04625700  1
  C  1772  1  0.13565000  0.34779300  0.03679600  1
  C  1773  1  0.13513500  0.34844000  0.01823300  1
  C  1785  1  0.39259800  0.67945700  0.95340600  1
  C  1786  1  0.37424300  0.69238100  0.96342600  1
  C  1787  1  0.37431000  0.69087700  0.98192700  1
  C  1788  1  0.39281100  0.67656900  0.99096200  1
  C  1789  1  0.41123900  0.66332600  0.98098700  1
  C  1790  1  0.41095600  0.66508000  0.96233800  1
  C  1792  1  0.39321000  0.67680200  0.00976300  1
  C  1793  1  0.37018100  0.67179500  0.01953800  1
  C  1794  1  0.37037300  0.67308600  0.03808700  1
  C  1795  1  0.39359400  0.67961700  0.04732600  1
  C  1796  1  0.41661500  0.68445700  0.03760200  1
  C  1797  1  0.41640900  0.68322100  0.01907500  1
  C  1809  1  0.16179700  0.68249700  0.54662300  1
  C  1810  1  0.17869300  0.69656900  0.53661300  1
  C  1811  1  0.17812900  0.69572300  0.51809000  1
  C  1812  1  0.16054700  0.68094900  0.50899100  1
  C  1813  1  0.14333300  0.66679000  0.51893700  1
  C  1814  1  0.14408400  0.66790100  0.53762300  1
  C  1816  1  0.16048500  0.68100800  0.49017900  1
  C  1817  1  0.18408200  0.67656900  0.48072700  1
  C  1818  1  0.18425900  0.67726800  0.46217000  1
  C  1819  1  0.16084800  0.68265600  0.45254600  1
  C  1820  1  0.13723500  0.68683000  0.46194100  1
  C  1821  1  0.13706600  0.68618800  0.48050200  1
  C  1833  1  0.38860000  0.35730600  0.54882900  1
  C  1834  1  0.37017400  0.34483600  0.53859100  1
  C  1835  1  0.36995900  0.34675800  0.52011100  1
  C  1836  1  0.38824300  0.36103000  0.51134500  1
  C  1837  1  0.40660900  0.37394300  0.52155900  1
  C  1838  1  0.40658400  0.37180300  0.54017400  1
  C  1840  1  0.38883000  0.36078300  0.49256500  1
  C  1841  1  0.36585400  0.36593900  0.48241700  1
  C  1842  1  0.36625100  0.36439700  0.46388200  1
  C  1843  1  0.38963500  0.35748000  0.45507000  1
  C  1844  1  0.41261300  0.35253500  0.46515900  1
  C  1845  1  0.41218700  0.35399200  0.48366200  1
  C  1857  1  0.73682300  0.96542800  0.85663600  1
  C  1858  1  0.72937100  0.98470900  0.84634600  1
  C  1859  1  0.74382000  0.00523500  0.84743800  1
  C  1860  1  0.76622600  0.00707500  0.85872500  1
  C  1861  1  0.77372200  0.98778800  0.86926600  1
  C  1862  1  0.75905000  0.96715500  0.86793300  1
  C  1864  1  0.78109500  0.02785700  0.85859900  1
  C  1865  1  0.76845400  0.04940200  0.86136100  1
  C  1866  1  0.78269100  0.07002800  0.86001600  1
  C  1867  1  0.80997100  0.06969900  0.85601800  1
  C  1868  1  0.82277600  0.04824100  0.85331400  1
  C  1869  1  0.80847000  0.02760800  0.85454200  1
  C  1881  1  0.74490700  0.06934200  0.64273100  1
  C  1882  1  0.73690500  0.05039100  0.65297200  1
  C  1883  1  0.75060300  0.02925900  0.65192200  1
  C  1884  1  0.77276000  0.02652400  0.64072700  1
  C  1885  1  0.78077200  0.04543700  0.63019900  1
  C  1886  1  0.76682300  0.06667400  0.63146500  1
  C  1888  1  0.78720900  0.00533200  0.64120200  1
  C  1889  1  0.77429400  0.98416400  0.63823100  1
  C  1890  1  0.78812000  0.96314600  0.64016500  1
  C  1891  1  0.81518200  0.96274300  0.64503300  1
  C  1892  1  0.82822900  0.98385100  0.64793700  1
  C  1893  1  0.81436700  0.00487300  0.64608200  1
  C  1905  1  0.81724600  0.06856300  0.14406300  1
  C  1906  1  0.82427700  0.04921000  0.15440100  1
  C  1907  1  0.80949400  0.02886500  0.15326800  1
  C  1908  1  0.78715400  0.02728100  0.14189600  1
  C  1909  1  0.78008700  0.04663400  0.13130200  1
  C  1910  1  0.79510400  0.06707300  0.13266500  1
  C  1912  1  0.77194400  0.00668200  0.14196200  1
  C  1913  1  0.78426400  0.98498700  0.13924500  1
  C  1914  1  0.76966600  0.96454200  0.14047800  1
  C  1915  1  0.74233500  0.96519800  0.14431200  1
  C  1916  1  0.72985100  0.98680500  0.14697800  1
  C  1917  1  0.74451700  0.00725800  0.14586300  1
  C  1929  1  0.81399700  0.96502100  0.35700400  1
  C  1930  1  0.82165400  0.98400700  0.34668100  1
  C  1931  1  0.80753500  0.00495600  0.34761000  1
  C  1932  1  0.78527300  0.00747700  0.35874800  1
  C  1933  1  0.77766400  0.98854700  0.36939800  1
  C  1934  1  0.79205200  0.96751800  0.36827300  1
  C  1936  1  0.77038000  0.02845800  0.35818200  1
  C  1937  1  0.78285400  0.04986200  0.36101800  1
  C  1938  1  0.76849800  0.07064400  0.35924700  1
  C  1939  1  0.74130800  0.07058400  0.35471300  1
  C  1940  1  0.72872500  0.04925100  0.35186700  1
  C  1941  1  0.74312700  0.02847000  0.35353900  1
  C  1953  1  0.25010300  0.46361300  0.86063700  1
  C  1954  1  0.24064100  0.48260300  0.85075100  1
  C  1955  1  0.25367600  0.50384700  0.85161900  1
  C  1956  1  0.27661500  0.50669800  0.86227500  1
  C  1957  1  0.28611000  0.48769100  0.87243000  1
  C  1958  1  0.27287300  0.46631400  0.87130100  1
  C  1960  1  0.29011600  0.52815800  0.86178600  1
  C  1961  1  0.27637500  0.54910500  0.86493500  1
  C  1962  1  0.28921600  0.57036900  0.86319400  1
  C  1963  1  0.31616800  0.57128500  0.85841900  1
  C  1964  1  0.33004100  0.55043100  0.85528000  1
  C  1965  1  0.31712800  0.52916500  0.85689400  1
  C  1977  1  0.25190400  0.56917500  0.63837800  1
  C  1978  1  0.24201400  0.55066000  0.64832100  1
  C  1979  1  0.25464300  0.52900000  0.64781500  1
  C  1980  1  0.27758200  0.52531900  0.63749400  1
  C  1981  1  0.28739200  0.54377000  0.62717700  1
  C  1982  1  0.27451600  0.56554400  0.62789900  1
  C  1984  1  0.29118500  0.50377200  0.63881100  1
  C  1985  1  0.27784000  0.48285600  0.63563100  1
  C  1986  1  0.29087200  0.46156900  0.63821400  1
  C  1987  1  0.31755200  0.46065100  0.64394100  1
  C  1988  1  0.33094500  0.48151000  0.64720100  1
  C  1989  1  0.31787600  0.50278500  0.64470700  1
  C  2001  1  0.32330100  0.57014900  0.14204200  1
  C  2002  1  0.33149300  0.55076200  0.15196900  1
  C  2003  1  0.31807500  0.52977300  0.15029600  1
  C  2004  1  0.29599900  0.52756200  0.13876900  1
  C  2005  1  0.28773500  0.54697300  0.12861300  1
  C  2006  1  0.30137600  0.56806400  0.13052400  1
  C  2008  1  0.28215500  0.50626100  0.13830800  1
  C  2009  1  0.29584800  0.48528400  0.13519100  1
  C  2010  1  0.28260500  0.46411100  0.13605100  1
  C  2011  1  0.25529300  0.46332900  0.13987300  1
  C  2012  1  0.24145700  0.48422400  0.14293900  1
  C  2013  1  0.25476100  0.50539500  0.14220200  1
  C  2025  1  0.32006700  0.46245000  0.35780700  1
  C  2026  1  0.32819500  0.48133400  0.34753800  1
  C  2027  1  0.31515900  0.50274400  0.34895600  1
  C  2028  1  0.29354000  0.50585400  0.36055500  1
  C  2029  1  0.28540200  0.48699900  0.37110400  1
  C  2030  1  0.29869700  0.46549500  0.36948200  1
  C  2032  1  0.27975500  0.52739400  0.36053800  1
  C  2033  1  0.29347000  0.54821900  0.36334800  1
  C  2034  1  0.28018500  0.56957400  0.36198300  1
  C  2035  1  0.25284800  0.57065800  0.35793000  1
  C  2036  1  0.23903200  0.54990500  0.35511400  1
  C  2037  1  0.25236000  0.52855600  0.35636800  1
  C  2049  1  0.47765200  0.72685300  0.87068900  1
  C  2050  1  0.47526100  0.74604500  0.85934300  1
  C  2051  1  0.49656300  0.76121700  0.85728100  1
  C  2052  1  0.52083700  0.75757200  0.86641800  1
  C  2053  1  0.52360400  0.73796400  0.87757000  1
  C  2054  1  0.50203300  0.72270500  0.87937800  1
  C  2056  1  0.54105700  0.77448000  0.86533100  1
  C  2057  1  0.53580800  0.79746300  0.87058300  1
  C  2058  1  0.55632800  0.81368100  0.87153800  1
  C  2059  1  0.58258600  0.80723300  0.86739900  1
  C  2060  1  0.58772500  0.78462900  0.86130300  1
  C  2061  1  0.56718200  0.76844400  0.86029100  1
  C  2073  1  0.07888000  0.30266600  0.87954400  1
  C  2074  1  0.07904900  0.28549600  0.86633900  1
  C  2075  1  0.05728000  0.27078700  0.86414500  1
  C  2076  1  0.03474600  0.27292900  0.87503100  1
  C  2077  1  0.03444900  0.28998800  0.88848100  1
  C  2078  1  0.05663800  0.30452900  0.89061300  1
  C  2080  1  0.01342600  0.25730700  0.87290400  1
  C  2081  1  0.01712000  0.23359400  0.87651400  1
  C  2082  1  0.99534974  0.21859200  0.87659100  1
  C  2083  1  0.96944070  0.22694100  0.87314100  1
  C  2084  1  0.96597570  0.25041000  0.86853700  1
  C  2085  1  0.98768470  0.26543600  0.86852500  1
  C  2097  1  0.48167300  0.31121800  0.63535700  1
  C  2098  1  0.48270400  0.29375000  0.64822200  1
  C  2099  1  0.50501600  0.27909700  0.64949300  1
  C  2100  1  0.52685900  0.28173400  0.63807100  1
  C  2101  1  0.52628000  0.29980600  0.62540100  1
  C  2102  1  0.50370700  0.31446200  0.62430700  1
  C  2104  1  0.54747200  0.26480800  0.63811700  1
  C  2105  1  0.54153400  0.24165900  0.63401400  1
  C  2106  1  0.56196600  0.22531800  0.63162200  1
  C  2107  1  0.58887700  0.23174900  0.63320400  1
  C  2108  1  0.59477000  0.25454900  0.63819500  1
  C  2109  1  0.57433300  0.27094100  0.64052300  1
  C  2121  1  0.08468600  0.73296100  0.62038300  1
  C  2122  1  0.08449900  0.74999200  0.63369700  1
  C  2123  1  0.06192800  0.76393800  0.63632700  1
  C  2124  1  0.03894900  0.76117300  0.62576500  1
  C  2125  1  0.03897800  0.74426700  0.61220000  1
  C  2126  1  0.06193700  0.73044100  0.60966900  1
  C  2128  1  0.01686500  0.77617200  0.62826900  1
  C  2129  1  0.01922500  0.80007300  0.62516500  1
  C  2130  1  0.99668274  0.81456200  0.62538200  1
  C  2131  1  0.97136270  0.80543100  0.62859900  1
  C  2132  1  0.96919170  0.78177800  0.63273600  1
  C  2133  1  0.99169974  0.76728500  0.63249700  1
  C  2145  1  0.08179100  0.30274800  0.11871500  1
  C  2146  1  0.08223900  0.28511000  0.13155400  1
  C  2147  1  0.06036800  0.27053300  0.13358700  1
  C  2148  1  0.03742900  0.27325100  0.12290400  1
  C  2149  1  0.03682800  0.29080500  0.10983100  1
  C  2150  1  0.05912200  0.30521400  0.10785600  1
  C  2152  1  0.01598900  0.25774800  0.12488900  1
  C  2153  1  0.01938800  0.23404100  0.12118500  1
  C  2154  1  0.99756274  0.21909900  0.12133500  1
  C  2155  1  0.97185170  0.22745900  0.12513900  1
  C  2156  1  0.96870570  0.25096600  0.12971400  1
  C  2157  1  0.99046974  0.26593300  0.12950400  1
  C  2169  1  0.47935400  0.72632900  0.12922000  1
  C  2170  1  0.47716400  0.74598500  0.14007500  1
  C  2171  1  0.49845000  0.76131300  0.14171400  1
  C  2172  1  0.52249300  0.75737400  0.13262100  1
  C  2173  1  0.52501500  0.73734500  0.12191600  1
  C  2174  1  0.50348200  0.72193400  0.12054100  1
  C  2176  1  0.54276500  0.77429800  0.13336800  1
  C  2177  1  0.53740000  0.79715600  0.12779800  1
  C  2178  1  0.55790300  0.81334100  0.12659800  1
  C  2179  1  0.58427800  0.80699600  0.13078700  1
  C  2180  1  0.58954800  0.78453500  0.13719900  1
  C  2181  1  0.56902300  0.76838800  0.13846500  1
  C  2193  1  0.07890700  0.73138800  0.38109700  1
  C  2194  1  0.07778400  0.74807800  0.36754200  1
  C  2195  1  0.05522700  0.76225200  0.36536800  1
  C  2196  1  0.03318600  0.76007700  0.37664000  1
  C  2197  1  0.03419500  0.74352200  0.39045400  1
  C  2198  1  0.05714900  0.72948100  0.39253400  1
  C  2200  1  0.01110200  0.77526600  0.37451900  1
  C  2201  1  0.01408000  0.79924100  0.37699500  1
  C  2202  1  0.99178074  0.81402600  0.37694400  1
  C  2203  1  0.96605270  0.80517800  0.37451500  1
  C  2204  1  0.96320070  0.78138000  0.37106400  1
  C  2205  1  0.98546570  0.76658700  0.37113900  1
  C  2217  1  0.47283500  0.30562200  0.36700100  1
  C  2218  1  0.47302400  0.28896800  0.35350400  1
  C  2219  1  0.49511200  0.27424300  0.35137400  1
  C  2220  1  0.51770100  0.27614400  0.36246700  1
  C  2221  1  0.51798600  0.29336100  0.37580700  1
  C  2222  1  0.49562200  0.30803700  0.37777000  1
  C  2224  1  0.53872900  0.25972900  0.36109100  1
  C  2225  1  0.53405100  0.23619600  0.36461700  1
  C  2226  1  0.55532100  0.22040400  0.36610800  1
  C  2227  1  0.58167100  0.22788200  0.36424900  1
  C  2228  1  0.58635700  0.25109700  0.35976100  1
  C  2229  1  0.56509300  0.26686100  0.35823100  1
  C  2241  1  0.74585100  0.87395500  0.79196700  1
  C  2242  1  0.73852300  0.85637700  0.78006700  1
  C  2243  1  0.75164000  0.85388700  0.76386400  1
  C  2244  1  0.77244700  0.86880500  0.75922500  1
  C  2245  1  0.78002800  0.88652800  0.77110100  1
  C  2246  1  0.76663400  0.88878400  0.78735700  1
  C  2248  1  0.78408700  0.86693100  0.74229300  1
  C  2249  1  0.76899000  0.87240800  0.72704400  1
  C  2250  1  0.78124900  0.87392500  0.71048500  1
  C  2251  1  0.80869200  0.86961200  0.70875200  1
  C  2252  1  0.82368400  0.86352000  0.72393100  1
  C  2253  1  0.81149700  0.86221000  0.74052400  1
  C  2265  1  0.79936800  0.15965200  0.79403400  1
  C  2266  1  0.79907900  0.18093600  0.78504700  1
  C  2267  1  0.78481400  0.18349500  0.76912500  1
  C  2268  1  0.77043400  0.16492300  0.76183800  1
  C  2269  1  0.77074700  0.14338800  0.77078000  1
  C  2270  1  0.78504300  0.14114800  0.78683600  1
  C  2272  1  0.75734100  0.16762700  0.74524500  1
  C  2273  1  0.77204100  0.17290600  0.72997700  1
  C  2274  1  0.76012500  0.17196700  0.71314200  1
  C  2275  1  0.73316600  0.16590000  0.71122700  1
  C  2276  1  0.71825900  0.16134600  0.72646800  1
  C  2277  1  0.73010000  0.16249000  0.74330100  1
  C  2289  1  0.80715700  0.16019400  0.20864300  1
  C  2290  1  0.81437300  0.17782100  0.22053100  1
  C  2291  1  0.80125400  0.18025800  0.23673900  1
  C  2292  1  0.78055900  0.16523400  0.24140200  1
  C  2293  1  0.77307700  0.14747100  0.22953100  1
  C  2294  1  0.78647100  0.14526800  0.21327100  1
  C  2296  1  0.76901100  0.16699600  0.25837400  1
  C  2297  1  0.78426700  0.16162100  0.27357400  1
  C  2298  1  0.77214300  0.15994900  0.29016800  1
  C  2299  1  0.74466700  0.16400400  0.29199300  1
  C  2300  1  0.72950600  0.17000300  0.27686500  1
  C  2301  1  0.74156200  0.17147100  0.26023500  1
  C  2313  1  0.75254900  0.87470300  0.20549000  1
  C  2314  1  0.75220100  0.85347300  0.21454400  1
  C  2315  1  0.76644700  0.85067200  0.23044300  1
  C  2316  1  0.78142300  0.86894500  0.23762700  1
  C  2317  1  0.78179800  0.89041300  0.22861300  1
  C  2318  1  0.76751700  0.89289200  0.21257400  1
  C  2320  1  0.79437100  0.86607700  0.25423200  1
  C  2321  1  0.77939400  0.86160800  0.26953000  1
  C  2322  1  0.79131900  0.86246900  0.28635800  1
  C  2323  1  0.81854600  0.86764100  0.28822500  1
  C  2324  1  0.83369000  0.87135700  0.27295100  1
  C  2325  1  0.82182200  0.87033300  0.25612500  1
  C  2337  1  0.25447500  0.37480100  0.79383000  1
  C  2338  1  0.24904200  0.35537100  0.78325100  1
  C  2339  1  0.26109100  0.35276100  0.76667800  1
  C  2340  1  0.27899000  0.36939600  0.76040000  1
  C  2341  1  0.28447500  0.38908800  0.77087100  1
  C  2342  1  0.27201700  0.39154300  0.78744200  1
  C  2344  1  0.29013700  0.36684200  0.74337400  1
  C  2345  1  0.27427100  0.37051600  0.72816700  1
  C  2346  1  0.28593200  0.37149000  0.71137700  1
  C  2347  1  0.31354000  0.36837000  0.70938700  1
  C  2348  1  0.32933600  0.36416000  0.72457400  1
  C  2349  1  0.31775700  0.36346100  0.74139200  1
  C  2361  1  0.30628900  0.65939000  0.79307700  1
  C  2362  1  0.30630800  0.68038900  0.78370000  1
  C  2363  1  0.29335400  0.68223700  0.76724400  1
  C  2364  1  0.27996900  0.66323100  0.75977900  1
  C  2365  1  0.27992100  0.64199000  0.76911700  1
  C  2366  1  0.29299300  0.64043600  0.78567300  1
  C  2368  1  0.26810100  0.66531900  0.74273500  1
  C  2369  1  0.28374900  0.67067400  0.72790700  1
  C  2370  1  0.27291800  0.66980800  0.71074900  1
  C  2371  1  0.24610300  0.66372900  0.70804900  1
  C  2372  1  0.23029500  0.65896200  0.72284200  1
  C  2373  1  0.24106200  0.65998900  0.73999300  1
  C  2385  1  0.31347500  0.66032500  0.20906600  1
  C  2386  1  0.32122000  0.67767400  0.22104900  1
  C  2387  1  0.30905600  0.67957400  0.23763000  1
  C  2388  1  0.28879500  0.66427600  0.24261000  1
  C  2389  1  0.28081000  0.64676900  0.23065600  1
  C  2390  1  0.29327700  0.64508100  0.21403000  1
  C  2392  1  0.27803500  0.66569600  0.25985000  1
  C  2393  1  0.29409400  0.66055800  0.27473700  1
  C  2394  1  0.28285800  0.65899000  0.29162600  1
  C  2395  1  0.25548000  0.66295500  0.29408300  1
  C  2396  1  0.23950000  0.66860800  0.27924800  1
  C  2397  1  0.25066100  0.66996200  0.26233000  1
  C  2409  1  0.25872700  0.37408500  0.20499900  1
  C  2410  1  0.26222000  0.35206900  0.21261500  1
  C  2411  1  0.27582200  0.34951100  0.22879800  1
  C  2412  1  0.28651100  0.36882100  0.23762300  1
  C  2413  1  0.28278600  0.39109000  0.23015500  1
  C  2414  1  0.26889600  0.39337900  0.21394700  1
  C  2416  1  0.30004600  0.36582400  0.25401300  1
  C  2417  1  0.28637400  0.35793000  0.26902700  1
  C  2418  1  0.29852900  0.35835700  0.28581500  1
  C  2419  1  0.32471500  0.36649400  0.28790200  1
  C  2420  1  0.33864000  0.37366800  0.27284400  1
  C  2421  1  0.32656100  0.37314500  0.25606900  1
  N  468  1  0.86754300  0.89141500  0.98836100  1
  N  471  1  0.90181000  0.85684800  0.06309500  1
  N  472  1  0.90281300  0.86010000  0.93474100  1
  N  492  1  0.15952600  0.14294900  0.99007600  1
  N  495  1  0.12553000  0.17666700  0.06485200  1
  N  496  1  0.12385700  0.17512300  0.93648900  1
  N  516  1  0.86894800  0.14077000  0.50881800  1
  N  519  1  0.90068600  0.17885500  0.43517100  1
  N  520  1  0.90016900  0.17251500  0.56354500  1
  N  540  1  0.15704800  0.89118800  0.51311400  1
  N  543  1  0.12254000  0.85824000  0.43750400  1
  N  544  1  0.12117000  0.85781800  0.56555100  1
  N  564  1  0.36102700  0.38378000  0.98892100  1
  N  567  1  0.39624700  0.35141900  0.06378800  1
  N  568  1  0.39485000  0.35280600  0.93462800  1
  N  588  1  0.66735900  0.64825300  0.98973400  1
  N  591  1  0.63356400  0.68154000  0.06474300  1
  N  592  1  0.63289700  0.68122300  0.93601300  1
  N  612  1  0.36431000  0.65127500  0.51012100  1
  N  615  1  0.39745600  0.68341300  0.43502600  1
  N  616  1  0.39893900  0.68292700  0.56415700  1
  N  636  1  0.66253900  0.38894800  0.51307600  1
  N  639  1  0.62977100  0.35504700  0.43773800  1
  N  640  1  0.62969200  0.35479900  0.56612300  1
  N  660  1  0.03350000  0.98949700  0.88116400  1
  N  663  1  0.05955000  0.08989600  0.85369000  1
  N  664  1  0.96391200  0.94490500  0.85471000  1
  N  684  1  0.04036300  0.04276700  0.61844100  1
  N  687  1  0.06436800  0.94226300  0.64779300  1
  N  688  1  0.97263300  0.09027700  0.64453300  1
  N  708  1  0.99652100  0.04518000  0.11932200  1
  N  711  1  0.96853500  0.94514400  0.14655200  1
  N  712  1  0.06657700  0.08897700  0.14596700  1
  N  732  1  0.99412200  0.99096600  0.38111800  1
  N  735  1  0.96763700  0.09086300  0.35216000  1
  N  736  1  0.06244100  0.94408700  0.35524600  1
  N  756  1  0.54644600  0.49039100  0.88373400  1
  N  759  1  0.56442200  0.59196000  0.85578400  1
  N  760  1  0.47850000  0.44262800  0.85861300  1
  N  780  1  0.54779500  0.54017200  0.61624400  1
  N  783  1  0.56616200  0.44000800  0.64701500  1
  N  784  1  0.48114200  0.59058200  0.64023300  1
  N  804  1  0.50438600  0.54494700  0.11651500  1
  N  807  1  0.48279200  0.44269500  0.14198000  1
  N  808  1  0.57147400  0.59094400  0.14436600  1
  N  828  1  0.50247700  0.48996700  0.38324200  1
  N  831  1  0.48014000  0.59136400  0.35554000  1
  N  832  1  0.56775900  0.44127900  0.35583400  1
  N  852  1  0.78528800  0.73455800  0.88754500  1
  N  855  1  0.83997000  0.82214800  0.87053100  1
  N  856  1  0.69551200  0.71313700  0.87427100  1
  N  876  1  0.25059000  0.29165600  0.90001300  1
  N  879  1  0.18738600  0.21260200  0.87558200  1
  N  880  1  0.33753200  0.31604400  0.88314300  1
  N  900  1  0.78542100  0.30209400  0.61327300  1
  N  903  1  0.84724100  0.21786900  0.62932700  1
  N  904  1  0.69736500  0.32297200  0.63263400  1
  N  924  1  0.25463300  0.74204400  0.60094600  1
  N  927  1  0.18843400  0.81917800  0.62632400  1
  N  928  1  0.34374400  0.71994700  0.61652700  1
  N  948  1  0.25253900  0.29309600  0.09849300  1
  N  951  1  0.18983200  0.21288300  0.12323200  1
  N  952  1  0.34045900  0.31609700  0.11527400  1
  N  972  1  0.78640700  0.73362100  0.11194700  1
  N  975  1  0.84152200  0.82194900  0.12754200  1
  N  976  1  0.69723100  0.71231100  0.12617300  1
  N  996  1  0.25085700  0.74187200  0.40237900  1
  N  999  1  0.18368100  0.81955200  0.37669300  1
  N  1000  1  0.33822400  0.71836900  0.38454100  1
  N  1020  1  0.77794000  0.29493000  0.38759200  1
  N  1023  1  0.83951400  0.21334900  0.36798500  1
  N  1024  1  0.68909000  0.31815400  0.36977300  1
  N  1044  1  0.03797500  0.90235300  0.76624000  1
  N  1047  1  0.05766100  0.87452700  0.69335400  1
  N  1048  1  0.97140700  0.87879600  0.80685200  1
  N  1068  1  0.99594800  0.12410200  0.76324400  1
  N  1071  1  0.96057700  0.16029200  0.69580500  1
  N  1072  1  0.05100500  0.15523000  0.80870400  1
  N  1092  1  0.99139600  0.13153500  0.23441100  1
  N  1095  1  0.97199700  0.15887800  0.30740500  1
  N  1096  1  0.05786300  0.15532300  0.19381000  1
  N  1116  1  0.03338300  0.90941100  0.23607000  1
  N  1119  1  0.06767400  0.87299300  0.30357100  1
  N  1120  1  0.97700500  0.87939200  0.19089700  1
  N  1140  1  0.53958700  0.40634100  0.76437300  1
  N  1143  1  0.56184100  0.37286500  0.69368900  1
  N  1144  1  0.48082800  0.37936400  0.80905400  1
  N  1164  1  0.50597600  0.62233800  0.76151700  1
  N  1167  1  0.47400000  0.65908300  0.69228200  1
  N  1168  1  0.55696300  0.65561200  0.80823700  1
  N  1188  1  0.49954200  0.63058900  0.23578400  1
  N  1191  1  0.48362100  0.65823500  0.30984100  1
  N  1192  1  0.56336600  0.65598700  0.19382400  1
  N  1212  1  0.53030700  0.41079500  0.23917700  1
  N  1215  1  0.57350900  0.37137100  0.30346200  1
  N  1216  1  0.48413400  0.37830600  0.18994000  1
  N  1684  1  0.62947400  0.89141500  0.98836100  1
  N  1687  1  0.66374100  0.85684800  0.06309500  1
  N  1688  1  0.66474400  0.86010000  0.93474100  1
  N  1708  1  0.92145670  0.14294900  0.99007600  1
  N  1711  1  0.88746100  0.17666700  0.06485200  1
  N  1712  1  0.88578800  0.17512300  0.93648900  1
  N  1732  1  0.63087900  0.14077000  0.50881800  1
  N  1735  1  0.66261700  0.17885500  0.43517100  1
  N  1736  1  0.66210000  0.17251500  0.56354500  1
  N  1756  1  0.91897870  0.89118800  0.51311400  1
  N  1759  1  0.88447100  0.85824000  0.43750400  1
  N  1760  1  0.88310100  0.85781800  0.56555100  1
  N  1780  1  0.12295800  0.38378000  0.98892100  1
  N  1783  1  0.15817800  0.35141900  0.06378800  1
  N  1784  1  0.15678100  0.35280600  0.93462800  1
  N  1804  1  0.42929000  0.64825300  0.98973400  1
  N  1807  1  0.39549500  0.68154000  0.06474300  1
  N  1808  1  0.39482800  0.68122300  0.93601300  1
  N  1828  1  0.12624100  0.65127500  0.51012100  1
  N  1831  1  0.15938700  0.68341300  0.43502600  1
  N  1832  1  0.16087000  0.68292700  0.56415700  1
  N  1852  1  0.42447000  0.38894800  0.51307600  1
  N  1855  1  0.39170200  0.35504700  0.43773800  1
  N  1856  1  0.39162300  0.35479900  0.56612300  1
  N  1876  1  0.79543100  0.98949700  0.88116400  1
  N  1879  1  0.82148100  0.08989600  0.85369000  1
  N  1880  1  0.72584300  0.94490500  0.85471000  1
  N  1900  1  0.80229400  0.04276700  0.61844100  1
  N  1903  1  0.82629900  0.94226300  0.64779300  1
  N  1904  1  0.73456400  0.09027700  0.64453300  1
  N  1924  1  0.75845200  0.04518000  0.11932200  1
  N  1927  1  0.73046600  0.94514400  0.14655200  1
  N  1928  1  0.82850800  0.08897700  0.14596700  1
  N  1948  1  0.75605300  0.99096600  0.38111800  1
  N  1951  1  0.72956800  0.09086300  0.35216000  1
  N  1952  1  0.82437200  0.94408700  0.35524600  1
  N  1972  1  0.30837700  0.49039100  0.88373400  1
  N  1975  1  0.32635300  0.59196000  0.85578400  1
  N  1976  1  0.24043100  0.44262800  0.85861300  1
  N  1996  1  0.30972600  0.54017200  0.61624400  1
  N  1999  1  0.32809300  0.44000800  0.64701500  1
  N  2000  1  0.24307300  0.59058200  0.64023300  1
  N  2020  1  0.26631700  0.54494700  0.11651500  1
  N  2023  1  0.24472300  0.44269500  0.14198000  1
  N  2024  1  0.33340500  0.59094400  0.14436600  1
  N  2044  1  0.26440800  0.48996700  0.38324200  1
  N  2047  1  0.24207100  0.59136400  0.35554000  1
  N  2048  1  0.32969000  0.44127900  0.35583400  1
  N  2068  1  0.54721900  0.73455800  0.88754500  1
  N  2071  1  0.60190100  0.82214800  0.87053100  1
  N  2072  1  0.45744300  0.71313700  0.87427100  1
  N  2092  1  0.01252100  0.29165600  0.90001300  1
  N  2095  1  0.94931670  0.21260200  0.87558200  1
  N  2096  1  0.09946300  0.31604400  0.88314300  1
  N  2116  1  0.54735200  0.30209400  0.61327300  1
  N  2119  1  0.60917200  0.21786900  0.62932700  1
  N  2120  1  0.45929600  0.32297200  0.63263400  1
  N  2140  1  0.01656400  0.74204400  0.60094600  1
  N  2143  1  0.95036470  0.81917800  0.62632400  1
  N  2144  1  0.10567500  0.71994700  0.61652700  1
  N  2164  1  0.01447000  0.29309600  0.09849300  1
  N  2167  1  0.95176270  0.21288300  0.12323200  1
  N  2168  1  0.10239000  0.31609700  0.11527400  1
  N  2188  1  0.54833800  0.73362100  0.11194700  1
  N  2191  1  0.60345300  0.82194900  0.12754200  1
  N  2192  1  0.45916200  0.71231100  0.12617300  1
  N  2212  1  0.01278800  0.74187200  0.40237900  1
  N  2215  1  0.94561170  0.81955200  0.37669300  1
  N  2216  1  0.10015500  0.71836900  0.38454100  1
  N  2236  1  0.53987100  0.29493000  0.38759200  1
  N  2239  1  0.60144500  0.21334900  0.36798500  1
  N  2240  1  0.45102100  0.31815400  0.36977300  1
  N  2260  1  0.79990600  0.90235300  0.76624000  1
  N  2263  1  0.81959200  0.87452700  0.69335400  1
  N  2264  1  0.73333800  0.87879600  0.80685200  1
  N  2284  1  0.75787900  0.12410200  0.76324400  1
  N  2287  1  0.72250800  0.16029200  0.69580500  1
  N  2288  1  0.81293600  0.15523000  0.80870400  1
  N  2308  1  0.75332700  0.13153500  0.23441100  1
  N  2311  1  0.73392800  0.15887800  0.30740500  1
  N  2312  1  0.81979400  0.15532300  0.19381000  1
  N  2332  1  0.79531400  0.90941100  0.23607000  1
  N  2335  1  0.82960500  0.87299300  0.30357100  1
  N  2336  1  0.73893600  0.87939200  0.19089700  1
  N  2356  1  0.30151800  0.40634100  0.76437300  1
  N  2359  1  0.32377200  0.37286500  0.69368900  1
  N  2360  1  0.24275900  0.37936400  0.80905400  1
  N  2380  1  0.26790700  0.62233800  0.76151700  1
  N  2383  1  0.23593100  0.65908300  0.69228200  1
  N  2384  1  0.31889400  0.65561200  0.80823700  1
  N  2404  1  0.26147300  0.63058900  0.23578400  1
  N  2407  1  0.24555200  0.65823500  0.30984100  1
  N  2408  1  0.32529700  0.65598700  0.19382400  1
  N  2428  1  0.29223800  0.41079500  0.23917700  1
  N  2431  1  0.33544000  0.37137100  0.30346200  1
  N  2432  1  0.24606500  0.37830600  0.18994000  1
  O  17  1  0.94194400  0.88029400  0.89487700  1
  O  18  1  0.93081600  0.84384600  0.84301000  1
  O  45  1  0.08405400  0.15501500  0.89663800  1
  O  46  1  0.09259200  0.19171100  0.84518800  1
  O  73  1  0.94545300  0.15819400  0.60348100  1
  O  74  1  0.93469200  0.19219300  0.65384000  1
  O  101  1  0.08301800  0.87614000  0.60595900  1
  O  102  1  0.09797400  0.84020800  0.65804600  1
  O  129  1  0.08767700  0.15167600  0.10583700  1
  O  130  1  0.09748400  0.19022300  0.15719400  1
  O  157  1  0.94228400  0.88081300  0.10329700  1
  O  158  1  0.93453400  0.84361200  0.15473400  1
  O  185  1  0.08305800  0.88213900  0.39628500  1
  O  186  1  0.08760300  0.84083100  0.34690200  1
  O  213  1  0.94232500  0.15669000  0.39505500  1
  O  214  1  0.92909900  0.19211700  0.34241400  1
  O  241  1  0.44339300  0.37297300  0.89914200  1
  O  242  1  0.43897500  0.34182400  0.84548200  1
  O  269  1  0.59053900  0.66043500  0.89781400  1
  O  270  1  0.59672200  0.69434700  0.84510600  1
  O  297  1  0.44876100  0.66138000  0.59918800  1
  O  298  1  0.44980800  0.69392700  0.65220300  1
  O  325  1  0.58814500  0.37022900  0.60612700  1
  O  326  1  0.60496800  0.33853600  0.65896300  1
  O  353  1  0.59315400  0.65652100  0.10462200  1
  O  354  1  0.60206200  0.69262700  0.15698000  1
  O  381  1  0.44577900  0.37344500  0.09967700  1
  O  382  1  0.44357600  0.34115100  0.15289500  1
  O  409  1  0.58739200  0.37619800  0.39627300  1
  O  410  1  0.59568000  0.33783700  0.34645700  1
  O  437  1  0.44645300  0.66191400  0.39849800  1
  O  438  1  0.43779400  0.69247100  0.34392800  1
  O  469  1  0.84416100  0.88547700  0.98490200  1
  O  470  1  0.87010800  0.91222100  0.98421600  1
  O  493  1  0.18288200  0.14898200  0.98689100  1
  O  494  1  0.15698000  0.12222400  0.98566500  1
  O  517  1  0.84497100  0.14519400  0.51191900  1
  O  518  1  0.87360700  0.12008700  0.51273800  1
  O  541  1  0.18030600  0.88437500  0.51643500  1
  O  542  1  0.15479400  0.91182200  0.51792000  1
  O  565  1  0.33710200  0.37984000  0.98537300  1
  O  566  1  0.36584500  0.40436500  0.98508800  1
  O  589  1  0.69102900  0.65334000  0.98657400  1
  O  590  1  0.66371000  0.62766700  0.98530100  1
  O  613  1  0.34038500  0.65532900  0.51362900  1
  O  614  1  0.36962900  0.63073500  0.51413400  1
  O  637  1  0.68628300  0.38350900  0.51631600  1
  O  638  1  0.65879500  0.40949400  0.51771600  1
  O  661  1  0.05135000  0.97492300  0.87777000  1
  O  662  1  0.02629000  0.98674300  0.89684800  1
  O  685  1  0.05872300  0.05656600  0.62193300  1
  O  686  1  0.03308900  0.04582300  0.60271200  1
  O  709  1  0.97888700  0.05998400  0.12263300  1
  O  710  1  0.00391200  0.04780900  0.10366300  1
  O  733  1  0.97607000  0.97684700  0.37767100  1
  O  734  1  0.00139700  0.98816500  0.39687200  1
  O  757  1  0.56502900  0.47681800  0.87973000  1
  O  758  1  0.54044000  0.48706400  0.89958200  1
  O  781  1  0.56654500  0.55328200  0.62035400  1
  O  782  1  0.54198400  0.54335000  0.60027300  1
  O  805  1  0.48580000  0.55872300  0.12010500  1
  O  806  1  0.51168500  0.54858600  0.10095900  1
  O  829  1  0.48360400  0.47661200  0.37995600  1
  O  830  1  0.51023700  0.48656200  0.39882700  1
  O  853  1  0.79619900  0.71558100  0.88399000  1
  O  854  1  0.78100100  0.73540000  0.90384400  1
  O  877  1  0.23972000  0.31120400  0.89919800  1
  O  878  1  0.25732200  0.28772400  0.91573200  1
  O  901  1  0.79602300  0.32153100  0.61445500  1
  O  902  1  0.77772800  0.29911700  0.59763400  1
  O  925  1  0.24507200  0.72217400  0.60175700  1
  O  926  1  0.26025000  0.74635500  0.58517300  1
  O  949  1  0.24195200  0.31270300  0.09979900  1
  O  950  1  0.25860100  0.28968400  0.08265100  1
  O  973  1  0.79751400  0.71482400  0.11589800  1
  O  974  1  0.78161300  0.73380800  0.09565200  1
  O  997  1  0.24093200  0.72210900  0.40216000  1
  O  998  1  0.25795300  0.74650800  0.41789600  1
  O  1021  1  0.78853800  0.31440000  0.38688300  1
  O  1022  1  0.77127800  0.29104300  0.40324600  1
  O  1045  1  0.05710500  0.90200000  0.77697100  1
  O  1046  1  0.02892200  0.92256500  0.76527400  1
  O  1069  1  0.97845700  0.11632200  0.77328700  1
  O  1070  1  0.01213700  0.10819000  0.75970500  1
  O  1093  1  0.97225000  0.13177600  0.22369400  1
  O  1094  1  0.00059500  0.11137400  0.23538000  1
  O  1117  1  0.05109400  0.91669800  0.22597800  1
  O  1118  1  0.01772300  0.92572900  0.23957900  1
  O  1141  1  0.55929600  0.40910800  0.77437600  1
  O  1142  1  0.52763600  0.42531100  0.76261100  1
  O  1165  1  0.48781000  0.61471200  0.77108800  1
  O  1166  1  0.52262200  0.60647900  0.75885700  1
  O  1189  1  0.47980700  0.63099500  0.22555200  1
  O  1190  1  0.50893200  0.61046000  0.23620700  1
  O  1213  1  0.54675900  0.42163400  0.23007400  1
  O  1214  1  0.51168000  0.42425800  0.24328400  1
  O  1233  1  0.70387500  0.88029400  0.89487700  1
  O  1234  1  0.69274700  0.84384600  0.84301000  1
  O  1261  1  0.84598500  0.15501500  0.89663800  1
  O  1262  1  0.85452300  0.19171100  0.84518800  1
  O  1289  1  0.70738400  0.15819400  0.60348100  1
  O  1290  1  0.69662300  0.19219300  0.65384000  1
  O  1317  1  0.84494900  0.87614000  0.60595900  1
  O  1318  1  0.85990500  0.84020800  0.65804600  1
  O  1345  1  0.84960800  0.15167600  0.10583700  1
  O  1346  1  0.85941500  0.19022300  0.15719400  1
  O  1373  1  0.70421500  0.88081300  0.10329700  1
  O  1374  1  0.69646500  0.84361200  0.15473400  1
  O  1401  1  0.84498900  0.88213900  0.39628500  1
  O  1402  1  0.84953400  0.84083100  0.34690200  1
  O  1429  1  0.70425600  0.15669000  0.39505500  1
  O  1430  1  0.69103000  0.19211700  0.34241400  1
  O  1457  1  0.20532400  0.37297300  0.89914200  1
  O  1458  1  0.20090600  0.34182400  0.84548200  1
  O  1485  1  0.35247000  0.66043500  0.89781400  1
  O  1486  1  0.35865300  0.69434700  0.84510600  1
  O  1513  1  0.21069200  0.66138000  0.59918800  1
  O  1514  1  0.21173900  0.69392700  0.65220300  1
  O  1541  1  0.35007600  0.37022900  0.60612700  1
  O  1542  1  0.36689900  0.33853600  0.65896300  1
  O  1569  1  0.35508500  0.65652100  0.10462200  1
  O  1570  1  0.36399300  0.69262700  0.15698000  1
  O  1597  1  0.20771000  0.37344500  0.09967700  1
  O  1598  1  0.20550700  0.34115100  0.15289500  1
  O  1625  1  0.34932300  0.37619800  0.39627300  1
  O  1626  1  0.35761100  0.33783700  0.34645700  1
  O  1653  1  0.20838400  0.66191400  0.39849800  1
  O  1654  1  0.19972500  0.69247100  0.34392800  1
  O  1685  1  0.60609200  0.88547700  0.98490200  1
  O  1686  1  0.63203900  0.91222100  0.98421600  1
  O  1709  1  0.94481270  0.14898200  0.98689100  1
  O  1710  1  0.91891070  0.12222400  0.98566500  1
  O  1733  1  0.60690200  0.14519400  0.51191900  1
  O  1734  1  0.63553800  0.12008700  0.51273800  1
  O  1757  1  0.94223670  0.88437500  0.51643500  1
  O  1758  1  0.91672470  0.91182200  0.51792000  1
  O  1781  1  0.09903300  0.37984000  0.98537300  1
  O  1782  1  0.12777600  0.40436500  0.98508800  1
  O  1805  1  0.45296000  0.65334000  0.98657400  1
  O  1806  1  0.42564100  0.62766700  0.98530100  1
  O  1829  1  0.10231600  0.65532900  0.51362900  1
  O  1830  1  0.13156000  0.63073500  0.51413400  1
  O  1853  1  0.44821400  0.38350900  0.51631600  1
  O  1854  1  0.42072600  0.40949400  0.51771600  1
  O  1877  1  0.81328100  0.97492300  0.87777000  1
  O  1878  1  0.78822100  0.98674300  0.89684800  1
  O  1901  1  0.82065400  0.05656600  0.62193300  1
  O  1902  1  0.79502000  0.04582300  0.60271200  1
  O  1925  1  0.74081800  0.05998400  0.12263300  1
  O  1926  1  0.76584300  0.04780900  0.10366300  1
  O  1949  1  0.73800100  0.97684700  0.37767100  1
  O  1950  1  0.76332800  0.98816500  0.39687200  1
  O  1973  1  0.32696000  0.47681800  0.87973000  1
  O  1974  1  0.30237100  0.48706400  0.89958200  1
  O  1997  1  0.32847600  0.55328200  0.62035400  1
  O  1998  1  0.30391500  0.54335000  0.60027300  1
  O  2021  1  0.24773100  0.55872300  0.12010500  1
  O  2022  1  0.27361600  0.54858600  0.10095900  1
  O  2045  1  0.24553500  0.47661200  0.37995600  1
  O  2046  1  0.27216800  0.48656200  0.39882700  1
  O  2069  1  0.55813000  0.71558100  0.88399000  1
  O  2070  1  0.54293200  0.73540000  0.90384400  1
  O  2093  1  0.00165100  0.31120400  0.89919800  1
  O  2094  1  0.01925300  0.28772400  0.91573200  1
  O  2117  1  0.55795400  0.32153100  0.61445500  1
  O  2118  1  0.53965900  0.29911700  0.59763400  1
  O  2141  1  0.00700300  0.72217400  0.60175700  1
  O  2142  1  0.02218100  0.74635500  0.58517300  1
  O  2165  1  0.00388300  0.31270300  0.09979900  1
  O  2166  1  0.02053200  0.28968400  0.08265100  1
  O  2189  1  0.55944500  0.71482400  0.11589800  1
  O  2190  1  0.54354400  0.73380800  0.09565200  1
  O  2213  1  0.00286300  0.72210900  0.40216000  1
  O  2214  1  0.01988400  0.74650800  0.41789600  1
  O  2237  1  0.55046900  0.31440000  0.38688300  1
  O  2238  1  0.53320900  0.29104300  0.40324600  1
  O  2261  1  0.81903600  0.90200000  0.77697100  1
  O  2262  1  0.79085300  0.92256500  0.76527400  1
  O  2285  1  0.74038800  0.11632200  0.77328700  1
  O  2286  1  0.77406800  0.10819000  0.75970500  1
  O  2309  1  0.73418100  0.13177600  0.22369400  1
  O  2310  1  0.76252600  0.11137400  0.23538000  1
  O  2333  1  0.81302500  0.91669800  0.22597800  1
  O  2334  1  0.77965400  0.92572900  0.23957900  1
  O  2357  1  0.32122700  0.40910800  0.77437600  1
  O  2358  1  0.28956700  0.42531100  0.76261100  1
  O  2381  1  0.24974100  0.61471200  0.77108800  1
  O  2382  1  0.28455300  0.60647900  0.75885700  1
  O  2405  1  0.24173800  0.63099500  0.22555200  1
  O  2406  1  0.27086300  0.61046000  0.23620700  1
  O  2429  1  0.30869000  0.42163400  0.23007400  1
  O  2430  1  0.27361100  0.42425800  0.24328400  1
