# generated using pymatgen
data_H21C25N2
_symmetry_space_group_name_H-M   'P 1'
_cell_length_a   61.11720000
_cell_length_b   61.11960000
_cell_length_c   61.12050000
_cell_angle_alpha   90.00000000
_cell_angle_beta   90.00000000
_cell_angle_gamma   90.00000000
_symmetry_Int_Tables_number   1
_chemical_formula_structural   H21C25N2
_chemical_formula_sum   'H1008 C1200 N96'
_cell_volume   228313.11063178
_cell_formula_units_Z   48
loop_
 _symmetry_equiv_pos_site_id
 _symmetry_equiv_pos_as_xyz
  1  'x, y, z'
loop_
 _atom_site_type_symbol
 _atom_site_label
 _atom_site_symmetry_multiplicity
 _atom_site_fract_x
 _atom_site_fract_y
 _atom_site_fract_z
 _atom_site_occupancy
  H  1  1  0.30799000  0.11232700  0.10930800  1
  H  2  1  0.63486100  0.12423000  0.10087900  1
  H  5  1  0.22868800  0.22204800  0.03488900  1
  H  6  1  0.25045200  0.24115300  0.03406400  1
  H  12  1  0.29042600  0.18951500  0.10300300  1
  H  13  1  0.28632900  0.12493600  0.07922000  1
  H  15  1  0.25974500  0.15969400  0.06962600  1
  H  20  1  0.29467200  0.16228100  0.00612600  1
  H  21  1  0.25939300  0.20044100  0.05113500  1
  H  23  1  0.30369700  0.16795800  0.05064900  1
  H  24  1  0.28464700  0.14739800  0.04339900  1
  H  31  1  0.64468400  0.14233400  0.06739700  1
  H  32  1  0.65583300  0.20087800  0.10209800  1
  H  34  1  0.65103600  0.19748800  0.05954100  1
  H  36  1  0.74544800  0.22873000  0.03478800  1
  H  41  1  0.67296900  0.16229500  0.02368600  1
  H  42  1  0.70838300  0.21686300  0.04541700  1
  H  45  1  0.68845800  0.19669500  0.07188400  1
  H  46  1  0.69009200  0.16870400  0.06494100  1
  H  47  1  0.12360300  0.33203800  0.10107500  1
  H  54  1  0.14182500  0.32232000  0.06762900  1
  H  55  1  0.20033300  0.31136500  0.10246000  1
  H  57  1  0.19703900  0.31627500  0.05991000  1
  H  62  1  0.16209300  0.29436900  0.02384700  1
  H  63  1  0.21669400  0.25903500  0.04562200  1
  H  65  1  0.19638000  0.27879900  0.07210000  1
  H  66  1  0.16841900  0.27706700  0.06506000  1
  H  67  1  0.72640600  0.25054200  0.03380300  1
  H  73  1  0.77798100  0.29065100  0.10277700  1
  H  74  1  0.84261400  0.28620900  0.07919800  1
  H  75  1  0.85521800  0.30796200  0.10922300  1
  H  77  1  0.80777800  0.25971200  0.06961900  1
  H  82  1  0.80554700  0.29437700  0.00596500  1
  H  83  1  0.76709500  0.25943100  0.05098700  1
  H  85  1  0.79974500  0.30361500  0.05043100  1
  H  86  1  0.82025800  0.28445700  0.04333000  1
  H  87  1  0.11241400  0.65969300  0.10923200  1
  H  93  1  0.18965200  0.67699900  0.10277900  1
  H  94  1  0.12501500  0.68145100  0.07920900  1
  H  96  1  0.15985500  0.70794500  0.06963000  1
  H  101  1  0.16208700  0.67328600  0.00596800  1
  H  102  1  0.20053400  0.70822900  0.05099500  1
  H  104  1  0.24122500  0.71712000  0.03381800  1
  H  105  1  0.22218500  0.73893200  0.03479600  1
  H  107  1  0.16786900  0.66404700  0.05043000  1
  H  108  1  0.14737000  0.68321900  0.04333000  1
  H  112  1  0.71717300  0.72648400  0.03406900  1
  H  113  1  0.73893400  0.74559200  0.03488900  1
  H  114  1  0.75093800  0.70861100  0.04562900  1
  H  121  1  0.82581300  0.64534600  0.06763800  1
  H  122  1  0.84404100  0.63563400  0.10108400  1
  H  123  1  0.76730600  0.65629200  0.10247100  1
  H  125  1  0.77059600  0.65137900  0.05992200  1
  H  130  1  0.80554200  0.67328000  0.02385500  1
  H  132  1  0.77125800  0.68885600  0.07210900  1
  H  133  1  0.79921900  0.69058500  0.06506500  1
  H  134  1  0.25924600  0.75080000  0.04543100  1
  H  141  1  0.32292500  0.82534200  0.06741300  1
  H  142  1  0.33275700  0.84344500  0.10089000  1
  H  143  1  0.31180400  0.76679200  0.10211600  1
  H  145  1  0.31659500  0.77018000  0.05956200  1
  H  150  1  0.29466700  0.80536400  0.02369700  1
  H  152  1  0.27917000  0.77097400  0.07189700  1
  H  153  1  0.27753400  0.79896100  0.06494800  1
  H  159  1  0.67721200  0.77814000  0.10299300  1
  H  160  1  0.68131100  0.84271700  0.07920500  1
  H  161  1  0.65966000  0.85533000  0.10929800  1
  H  163  1  0.70789200  0.80795400  0.06961100  1
  H  168  1  0.67295900  0.80536000  0.00611300  1
  H  169  1  0.70823300  0.76720400  0.05113100  1
  H  171  1  0.66393600  0.79970300  0.05063800  1
  H  172  1  0.68299600  0.82025100  0.04338100  1
  H  182  1  0.32249500  0.03540400  0.17392700  1
  H  183  1  0.33295500  0.06832300  0.15509100  1
  H  184  1  0.30996800  0.07188300  0.23111400  1
  H  185  1  0.32099100  0.10486900  0.21259800  1
  H  186  1  0.30618400  0.10824200  0.14993200  1
  H  187  1  0.36248100  0.11515700  0.18878600  1
  H  189  1  0.31474600  0.02990500  0.22968600  1
  H  193  1  0.27663600  0.03984000  0.22494300  1
  H  194  1  0.27785000  0.03040500  0.19764900  1
  H  195  1  0.25770000  0.01352100  0.24636400  1
  H  196  1  0.58106100  0.11326100  0.19294200  1
  H  197  1  0.62274400  0.11189500  0.19583000  1
  H  207  1  0.66511900  0.10600400  0.20538600  1
  H  208  1  0.68465200  0.07393000  0.21693000  1
  H  209  1  0.66934800  0.04293300  0.15726900  1
  H  210  1  0.64995300  0.07497200  0.14544000  1
  H  211  1  0.65960500  0.11738100  0.13799200  1
  H  213  1  0.69912900  0.02995800  0.18481500  1
  H  216  1  0.70085200  0.02105200  0.23792200  1
  H  218  1  0.66166600  0.02752500  0.21596200  1
  H  219  1  0.66286700  0.01425200  0.19034700  1
  H  221  1  0.31147900  0.17704500  0.13362400  1
  H  225  1  0.34897900  0.16126800  0.13952300  1
  H  226  1  0.36272900  0.18152300  0.17862700  1
  H  227  1  0.39928000  0.12464800  0.16396000  1
  H  234  1  0.43227900  0.14323800  0.17443100  1
  H  235  1  0.39585300  0.19984900  0.18941300  1
  H  237  1  0.43856100  0.19803500  0.18365000  1
  H  242  1  0.47543900  0.16193200  0.20446000  1
  H  243  1  0.45326800  0.21582900  0.24063300  1
  H  245  1  0.42685500  0.19532700  0.22110100  1
  H  246  1  0.43433600  0.16744400  0.22145300  1
  H  256  1  0.60273200  0.17879000  0.18784700  1
  H  257  1  0.57144800  0.19058500  0.20835100  1
  H  258  1  0.55009200  0.12526100  0.21382000  1
  H  259  1  0.60826700  0.16145700  0.15025600  1
  H  261  1  0.53904800  0.16001200  0.23955000  1
  H  263  1  0.52016500  0.20018500  0.24002100  1
  H  265  1  0.51999600  0.16782700  0.19553000  1
  H  266  1  0.51301100  0.14721100  0.21462200  1
  H  267  1  0.50293000  0.24053200  0.24933000  1
  H  268  1  0.64570000  0.18305100  0.13565300  1
  H  279  1  0.10490400  0.30256600  0.20586100  1
  H  280  1  0.07295700  0.28276000  0.21726900  1
  H  281  1  0.04256000  0.29671000  0.15697700  1
  H  282  1  0.07446800  0.31640100  0.14529500  1
  H  283  1  0.11670500  0.30738300  0.13826700  1
  H  284  1  0.11101000  0.34452900  0.19591100  1
  H  286  1  0.02958600  0.26716800  0.18479900  1
  H  289  1  0.02018700  0.26558700  0.23749300  1
  H  291  1  0.02636000  0.30507400  0.21529600  1
  H  292  1  0.01328600  0.30320700  0.18962200  1
  H  293  1  0.18238100  0.32139800  0.13598300  1
  H  297  1  0.16072100  0.35877900  0.15043600  1
  H  298  1  0.17798900  0.36426400  0.18806500  1
  H  301  1  0.79044200  0.31179900  0.13333700  1
  H  308  1  0.85917400  0.30635200  0.14988200  1
  H  309  1  0.85231200  0.36285900  0.18843600  1
  H  310  1  0.80633300  0.34927400  0.13907100  1
  H  311  1  0.86234300  0.32144000  0.21247900  1
  H  312  1  0.78592300  0.36326500  0.17786200  1
  H  319  1  0.93195700  0.32229600  0.17405600  1
  H  320  1  0.89918400  0.33294100  0.15506900  1
  H  321  1  0.89518200  0.31023900  0.23115300  1
  H  323  1  0.93732200  0.31482000  0.22976100  1
  H  328  1  0.97636800  0.29743300  0.19611100  1
  H  329  1  0.95329000  0.25783700  0.24712700  1
  H  331  1  0.92695800  0.27680600  0.22572300  1
  H  332  1  0.93607500  0.27745100  0.19830300  1
  H  333  1  0.11256100  0.38630500  0.19286000  1
  H  334  1  0.12468600  0.41737000  0.21353700  1
  H  340  1  0.18990600  0.39562400  0.20837400  1
  H  342  1  0.15946000  0.42844400  0.23925200  1
  H  347  1  0.16184000  0.49179600  0.20383200  1
  H  348  1  0.19993200  0.44698400  0.23945200  1
  H  350  1  0.16749100  0.44709200  0.19509800  1
  H  351  1  0.14691300  0.45438800  0.21411000  1
  H  352  1  0.24046900  0.46409700  0.24855200  1
  H  353  1  0.75163500  0.45388900  0.23970200  1
  H  360  1  0.84304600  0.39958700  0.16358800  1
  H  361  1  0.82449800  0.43266200  0.17387800  1
  H  362  1  0.76763700  0.39646400  0.18846200  1
  H  364  1  0.76966100  0.43917300  0.18272600  1
  H  369  1  0.80581400  0.47585600  0.20382200  1
  H  371  1  0.77205300  0.42742300  0.22017000  1
  H  372  1  0.79997800  0.43473900  0.22072300  1
  H  374  1  0.11532600  0.60478800  0.18843900  1
  H  375  1  0.12459700  0.56806000  0.16358200  1
  H  384  1  0.14315100  0.53498600  0.17387000  1
  H  385  1  0.18171200  0.60439000  0.17787500  1
  H  386  1  0.20000300  0.57119300  0.18846900  1
  H  387  1  0.16130200  0.61837300  0.13907200  1
  H  389  1  0.19798500  0.52848000  0.18273100  1
  H  392  1  0.21601400  0.51377800  0.23970800  1
  H  394  1  0.19559500  0.54023800  0.22017200  1
  H  395  1  0.16767100  0.53291900  0.22073000  1
  H  396  1  0.72719100  0.50357700  0.24854800  1
  H  406  1  0.78967500  0.60339900  0.18808100  1
  H  407  1  0.77776300  0.57203400  0.20838500  1
  H  408  1  0.85510300  0.58135500  0.19284700  1
  H  409  1  0.84298400  0.55028300  0.21351800  1
  H  410  1  0.80693500  0.60888200  0.15044400  1
  H  411  1  0.85665100  0.62314100  0.19591300  1
  H  413  1  0.80821600  0.53920700  0.23924500  1
  H  415  1  0.76773300  0.52067900  0.23944200  1
  H  417  1  0.80017200  0.52056600  0.19509000  1
  H  418  1  0.82075100  0.51326300  0.21410000  1
  H  419  1  0.10529600  0.64620700  0.21248200  1
  H  428  1  0.03568100  0.64535800  0.17406100  1
  H  429  1  0.06845200  0.63470300  0.15507500  1
  H  430  1  0.07245800  0.65741800  0.23115600  1
  H  431  1  0.10846200  0.66129500  0.14988400  1
  H  433  1  0.03031300  0.65284000  0.22976400  1
  H  436  1  0.01436200  0.70981800  0.24712500  1
  H  438  1  0.04069200  0.69084900  0.22572100  1
  H  439  1  0.03158400  0.69020200  0.19830000  1
  H  441  1  0.17719200  0.65584900  0.13333500  1
  H  443  1  0.46471700  0.72714300  0.24931200  1
  H  445  1  0.78526200  0.64626200  0.13599400  1
  H  449  1  0.85092600  0.66029900  0.13827700  1
  H  451  1  0.86276200  0.66507000  0.20589000  1
  H  457  1  0.89470400  0.68488700  0.21729200  1
  H  458  1  0.92505200  0.67104500  0.15695000  1
  H  459  1  0.89315000  0.65134100  0.14527500  1
  H  461  1  0.93803200  0.70055800  0.18479900  1
  H  466  1  0.99212000  0.67026300  0.19607800  1
  H  467  1  0.94746300  0.70211200  0.23745900  1
  H  469  1  0.94130500  0.66260900  0.21523700  1
  H  470  1  0.95436500  0.66452700  0.18956000  1
  H  471  1  0.32194900  0.78462400  0.13566900  1
  H  478  1  0.30801800  0.85028900  0.13801300  1
  H  479  1  0.35937700  0.80622700  0.15025700  1
  H  480  1  0.34491400  0.85579600  0.19582600  1
  H  481  1  0.36491500  0.78889900  0.18784700  1
  H  483  1  0.30258100  0.86171400  0.20542900  1
  H  491  1  0.39619900  0.77710300  0.20834900  1
  H  492  1  0.38659800  0.85442600  0.19292700  1
  H  493  1  0.41757000  0.84242200  0.21380400  1
  H  495  1  0.42860900  0.80767500  0.23953800  1
  H  500  1  0.49221500  0.80574000  0.20445000  1
  H  501  1  0.44748500  0.76749200  0.24001300  1
  H  503  1  0.44765500  0.79983800  0.19552200  1
  H  504  1  0.45464500  0.82046500  0.21459900  1
  H  505  1  0.51438100  0.75184100  0.24062300  1
  H  515  1  0.56837000  0.84301300  0.16396000  1
  H  516  1  0.53537100  0.82442500  0.17443400  1
  H  517  1  0.60491600  0.78612800  0.17860100  1
  H  518  1  0.57179500  0.76780600  0.18939100  1
  H  519  1  0.60516800  0.85249700  0.18878000  1
  H  520  1  0.61867000  0.80639100  0.13951400  1
  H  522  1  0.52908700  0.76962200  0.18364400  1
  H  526  1  0.54079500  0.77234000  0.22108900  1
  H  527  1  0.53331800  0.80022400  0.22143600  1
  H  529  1  0.65616900  0.79061500  0.13361900  1
  H  533  1  0.66146700  0.85941800  0.14992700  1
  H  534  1  0.64665600  0.86278400  0.21259300  1
  H  539  1  0.28301000  0.89377400  0.21694700  1
  H  540  1  0.29815500  0.92468900  0.15720200  1
  H  541  1  0.31759000  0.89266500  0.14540000  1
  H  543  1  0.26841400  0.93767600  0.18477400  1
  H  548  1  0.29832400  0.99119800  0.19620100  1
  H  549  1  0.26670100  0.94663100  0.23785500  1
  H  551  1  0.30590400  0.94018400  0.21588300  1
  H  552  1  0.30465700  0.95343600  0.19025900  1
  H  559  1  0.64511300  0.93225700  0.17394000  1
  H  560  1  0.63467900  0.89933700  0.15509300  1
  H  561  1  0.65765300  0.89577300  0.23112000  1
  H  563  1  0.65283600  0.93774500  0.22970400  1
  H  568  1  0.66922700  0.97733000  0.19626300  1
  H  569  1  0.70988500  0.95416000  0.24639500  1
  H  571  1  0.69095800  0.92784300  0.22496700  1
  H  572  1  0.68974400  0.93729700  0.19767800  1
  H  574  1  0.11263400  0.07699800  0.33898800  1
  H  575  1  0.10869000  0.11756800  0.33745600  1
  H  576  1  0.06864700  0.12293900  0.36380900  1
  H  584  1  0.17744400  0.10094000  0.34321100  1
  H  585  1  0.18993500  0.07041100  0.32205100  1
  H  586  1  0.12527100  0.04701400  0.31719800  1
  H  588  1  0.16028900  0.03759700  0.29073600  1
  H  590  1  0.20050000  0.01854700  0.29000100  1
  H  591  1  0.24054800  0.00296200  0.28104000  1
  H  592  1  0.22198800  0.00087100  0.25887900  1
  H  594  1  0.16766000  0.01791000  0.33449300  1
  H  595  1  0.14747200  0.01101600  0.31492200  1
  H  596  1  0.71522100  0.00192400  0.27523700  1
  H  597  1  0.73568700  0.00541800  0.25501800  1
  H  606  1  0.82555000  0.03662100  0.35382400  1
  H  607  1  0.84382000  0.06995600  0.36383500  1
  H  608  1  0.76711500  0.07163900  0.34310100  1
  H  609  1  0.85081100  0.10730400  0.33948500  1
  H  611  1  0.77037100  0.02900400  0.34783100  1
  H  614  1  0.75043200  0.01497900  0.29053800  1
  H  616  1  0.77072600  0.04138800  0.31043900  1
  H  617  1  0.79869800  0.03446400  0.30846300  1
  H  618  1  0.78511300  0.10504900  0.35342000  1
  H  619  1  0.89301200  0.11417400  0.34842300  1
  H  627  1  0.03588700  0.14200400  0.35326800  1
  H  628  1  0.07271900  0.19909500  0.34135800  1
  H  630  1  0.03062900  0.19778400  0.34607700  1
  H  633  1  0.01441700  0.21534300  0.28917100  1
  H  635  1  0.04072600  0.19375900  0.30796500  1
  H  636  1  0.03141400  0.16640700  0.30863300  1
  H  637  1  0.00316000  0.23054300  0.25484700  1
  H  638  1  0.10554600  0.18034100  0.35246300  1
  H  641  1  0.46393000  0.22792400  0.27759900  1
  H  642  1  0.50372900  0.22134100  0.27102400  1
  H  645  1  0.86271800  0.17491900  0.33506900  1
  H  652  1  0.89459900  0.18631500  0.31515100  1
  H  653  1  0.92484900  0.12584100  0.32861600  1
  H  655  1  0.93766700  0.15371200  0.29904400  1
  H  660  1  0.99207900  0.16451400  0.32894700  1
  H  661  1  0.94750700  0.20622800  0.29742400  1
  H  663  1  0.96521800  0.24321300  0.28342200  1
  H  664  1  0.96440800  0.22343700  0.26224900  1
  H  666  1  0.94147100  0.18407700  0.33699700  1
  H  667  1  0.95431700  0.15829800  0.33498400  1
  H  669  1  0.00265500  0.25172900  0.27461800  1
  H  673  1  0.35898900  0.34816000  0.33754000  1
  H  674  1  0.36471100  0.31056500  0.32030000  1
  H  675  1  0.32120300  0.36247900  0.31608200  1
  H  677  1  0.46473700  0.24962700  0.25842400  1
  H  683  1  0.39608800  0.29021500  0.30848400  1
  H  684  1  0.41762500  0.28503300  0.37377000  1
  H  686  1  0.42872700  0.25927700  0.33906300  1
  H  691  1  0.49220000  0.29448200  0.33703300  1
  H  692  1  0.44749100  0.25891500  0.29876700  1
  H  694  1  0.44755500  0.30335900  0.33104800  1
  H  695  1  0.45464900  0.28440000  0.35174500  1
  H  704  1  0.53560400  0.32446100  0.35571700  1
  H  705  1  0.60491300  0.32043700  0.31698000  1
  H  706  1  0.57169200  0.30961300  0.29885400  1
  H  707  1  0.61870800  0.35958200  0.33724900  1
  H  709  1  0.52901000  0.31530300  0.30092700  1
  H  712  1  0.51439000  0.25831300  0.28313700  1
  H  714  1  0.54079200  0.27785000  0.30363800  1
  H  715  1  0.53332000  0.27751500  0.33152400  1
  H  716  1  0.56870200  0.33496100  0.37410700  1
  H  718  1  0.65609500  0.36564000  0.32125900  1
  H  721  1  0.22131400  0.46337000  0.27027600  1
  H  728  1  0.32246900  0.43091100  0.35649700  1
  H  729  1  0.31087500  0.39594700  0.29819600  1
  H  731  1  0.31572000  0.43850600  0.30134900  1
  H  736  1  0.29413200  0.47461400  0.33648900  1
  H  737  1  0.25834500  0.45263500  0.28227200  1
  H  739  1  0.27827000  0.42623200  0.30252500  1
  H  740  1  0.27688100  0.43337500  0.33047800  1
  H  747  1  0.67714200  0.39626600  0.30878700  1
  H  748  1  0.68164600  0.41979700  0.37343000  1
  H  750  1  0.70813000  0.42935300  0.33860000  1
  H  755  1  0.67352400  0.49306900  0.33648300  1
  H  756  1  0.70876400  0.44817400  0.29815000  1
  H  758  1  0.71790300  0.46543700  0.25762900  1
  H  759  1  0.73965400  0.46447500  0.27674200  1
  H  761  1  0.66430200  0.44867400  0.33049500  1
  H  762  1  0.68336700  0.45563600  0.35114200  1
  H  764  1  0.22800300  0.50319700  0.27674800  1
  H  766  1  0.24975100  0.50224000  0.25763200  1
  H  775  1  0.31153800  0.60204400  0.32127400  1
  H  776  1  0.29048600  0.57142200  0.30880000  1
  H  777  1  0.28600500  0.54787500  0.37343800  1
  H  778  1  0.34893000  0.60809100  0.33725200  1
  H  780  1  0.25951600  0.53831700  0.33861100  1
  H  782  1  0.25889100  0.51950400  0.29815400  1
  H  784  1  0.30335000  0.51901400  0.33049500  1
  H  785  1  0.28429100  0.51204400  0.35114600  1
  H  787  1  0.60865800  0.61950700  0.33753000  1
  H  788  1  0.64643700  0.60519700  0.31606700  1
  H  796  1  0.64520500  0.53676100  0.35647600  1
  H  797  1  0.65677400  0.57173100  0.29817500  1
  H  799  1  0.65194700  0.52917100  0.30132300  1
  H  802  1  0.70931900  0.51504100  0.28226700  1
  H  804  1  0.68939300  0.54144800  0.30251700  1
  H  805  1  0.69076800  0.53430800  0.33047200  1
  H  806  1  0.74635100  0.50430000  0.27026800  1
  H  807  1  0.00242400  0.72440900  0.28343200  1
  H  808  1  0.00325800  0.74421000  0.26228200  1
  H  809  1  0.36272300  0.64725100  0.31699200  1
  H  817  1  0.43205000  0.64318200  0.35569100  1
  H  818  1  0.39594100  0.65806400  0.29885200  1
  H  820  1  0.43862400  0.65235200  0.30090700  1
  H  822  1  0.46391900  0.74632400  0.27101400  1
  H  827  1  0.47544200  0.67317200  0.33700600  1
  H  828  1  0.45325700  0.70934700  0.28311500  1
  H  831  1  0.42685200  0.68980800  0.30361000  1
  H  832  1  0.43432600  0.69014700  0.33149800  1
  H  833  1  0.39895500  0.63268900  0.37409500  1
  H  842  1  0.60293800  0.65709900  0.32029500  1
  H  843  1  0.57156100  0.67744600  0.30847300  1
  H  844  1  0.55000600  0.68261700  0.37375300  1
  H  846  1  0.53891400  0.70838200  0.33903800  1
  H  848  1  0.52015500  0.70874200  0.29874800  1
  H  849  1  0.50291100  0.71804100  0.25840300  1
  H  850  1  0.50371700  0.73973700  0.27758900  1
  H  852  1  0.52008900  0.66429400  0.33103600  1
  H  853  1  0.51298800  0.68326400  0.35172300  1
  H  856  1  0.96498400  0.71593100  0.27459900  1
  H  857  1  0.96450800  0.73713700  0.25484600  1
  H  866  1  0.10499100  0.79280100  0.33495500  1
  H  867  1  0.07309300  0.78139100  0.31506900  1
  H  868  1  0.04274100  0.84176300  0.32876400  1
  H  869  1  0.07459600  0.85344600  0.34853100  1
  H  870  1  0.11683700  0.86038700  0.33949000  1
  H  872  1  0.02993500  0.81394200  0.29913200  1
  H  875  1  0.02015100  0.76137100  0.29748100  1
  H  877  1  0.02622000  0.78349300  0.33702800  1
  H  878  1  0.01334700  0.80926200  0.33509200  1
  H  881  1  0.18253800  0.86263200  0.35340000  1
  H  885  1  0.85894300  0.85011400  0.33742700  1
  H  886  1  0.79018500  0.86672900  0.34318600  1
  H  887  1  0.86209100  0.78734000  0.35242700  1
  H  894  1  0.93175400  0.82567000  0.35325500  1
  H  895  1  0.89899100  0.84474000  0.36377800  1
  H  896  1  0.89492000  0.76858000  0.34134200  1
  H  898  1  0.93700300  0.76988600  0.34608400  1
  H  903  1  0.97642600  0.80309900  0.32900300  1
  H  904  1  0.95323900  0.75231500  0.28917300  1
  H  906  1  0.92693400  0.77390700  0.30796200  1
  H  907  1  0.93626800  0.80125400  0.30863100  1
  H  908  1  0.12383000  0.89771200  0.36385000  1
  H  916  1  0.14209400  0.93105500  0.35385000  1
  H  917  1  0.20052900  0.89604800  0.34309300  1
  H  919  1  0.19727000  0.93868600  0.34783100  1
  H  921  1  0.23188400  0.96226700  0.25498800  1
  H  926  1  0.16238500  0.97453400  0.32552400  1
  H  927  1  0.21717800  0.95270300  0.29052800  1
  H  930  1  0.19689500  0.92629400  0.31044200  1
  H  931  1  0.16892300  0.93321300  0.30848100  1
  H  932  1  0.25237100  0.96575400  0.27518600  1
  H  935  1  0.72705700  0.96471700  0.28106900  1
  H  936  1  0.74559500  0.96681600  0.25889200  1
  H  943  1  0.77768500  0.89726000  0.32203600  1
  H  944  1  0.84234100  0.92067500  0.31718800  1
  H  945  1  0.85498700  0.89069000  0.33896600  1
  H  947  1  0.80731800  0.93008800  0.29072200  1
  H  952  1  0.80523800  0.99398200  0.32551100  1
  H  953  1  0.76710000  0.94913300  0.29000700  1
  H  955  1  0.79994700  0.94976400  0.33448500  1
  H  956  1  0.82014100  0.95665900  0.31492200  1
  H  958  1  0.16146800  0.10694200  0.38050400  1
  H  959  1  0.80675700  0.11924800  0.39088700  1
  H  962  1  0.11553600  0.15643500  0.39374500  1
  H  963  1  0.12476000  0.13188400  0.43065900  1
  H  964  1  0.18190600  0.14581800  0.39424700  1
  H  972  1  0.14330300  0.14243000  0.46365600  1
  H  973  1  0.20018800  0.15666800  0.42736700  1
  H  975  1  0.19812100  0.15113600  0.47015600  1
  H  978  1  0.21648200  0.20817700  0.48453100  1
  H  980  1  0.19605000  0.18851100  0.45815900  1
  H  981  1  0.16811000  0.18932600  0.46538900  1
  H  982  1  0.23121600  0.24376800  0.49393700  1
  H  983  1  0.25167500  0.22356000  0.49754000  1
  H  984  1  0.72782500  0.21796000  0.49501900  1
  H  985  1  0.74647400  0.24002800  0.49731900  1
  H  993  1  0.78946700  0.15668500  0.39663100  1
  H  994  1  0.77749300  0.17700400  0.42795100  1
  H  995  1  0.85489400  0.16183900  0.41858000  1
  H  996  1  0.84271000  0.18255700  0.44959200  1
  H  997  1  0.85653000  0.16475100  0.37692300  1
  H  999  1  0.80774800  0.20823300  0.46050000  1
  H  1001  1  0.76772700  0.20882300  0.47944800  1
  H  1003  1  0.80033600  0.16419000  0.47958100  1
  H  1004  1  0.82062800  0.18357300  0.48669300  1
  H  1015  1  0.30247800  0.29294700  0.39319900  1
  H  1016  1  0.28287900  0.28143700  0.42525200  1
  H  1017  1  0.29809100  0.34114900  0.45619600  1
  H  1018  1  0.31754400  0.35294600  0.42417500  1
  H  1019  1  0.30772700  0.36028500  0.38173900  1
  H  1020  1  0.34489500  0.30264400  0.38727300  1
  H  1022  1  0.26820400  0.31367700  0.46905900  1
  H  1025  1  0.26621800  0.26067600  0.47828600  1
  H  1027  1  0.30553400  0.28240900  0.47184000  1
  H  1028  1  0.30441200  0.30810900  0.48495300  1
  H  1029  1  0.38656400  0.30576100  0.38579000  1
  H  1031  1  0.60561800  0.31014100  0.38328900  1
  H  1032  1  0.64730600  0.28641900  0.39328200  1
  H  1041  1  0.64581800  0.32487100  0.46286800  1
  H  1042  1  0.63521100  0.34376900  0.43002900  1
  H  1043  1  0.65848100  0.26784200  0.42618600  1
  H  1044  1  0.66186000  0.34911100  0.38997200  1
  H  1046  1  0.65378800  0.26907900  0.46812300  1
  H  1049  1  0.71082000  0.25269000  0.48461600  1
  H  1051  1  0.69190200  0.27419200  0.45835200  1
  H  1052  1  0.69043100  0.30141400  0.46796100  1
  H  1053  1  0.33247600  0.39751400  0.37466300  1
  H  1054  1  0.65998900  0.38971000  0.38604400  1
  H  1056  1  0.30766800  0.57795700  0.38605200  1
  H  1057  1  0.30579800  0.61856100  0.38999200  1
  H  1058  1  0.33245100  0.62389200  0.43004400  1
  H  1059  1  0.63519100  0.57015300  0.37464700  1
  H  1061  1  0.65013800  0.61469200  0.42414700  1
  H  1062  1  0.65992400  0.60738600  0.38172800  1
  H  1063  1  0.22113400  0.72760300  0.49729600  1
  H  1064  1  0.23979200  0.74966600  0.49501200  1
  H  1073  1  0.32182800  0.64277900  0.46288100  1
  H  1074  1  0.30915500  0.69980800  0.42620400  1
  H  1075  1  0.32034500  0.68124300  0.39330200  1
  H  1076  1  0.36204500  0.65752100  0.38329900  1
  H  1078  1  0.31382700  0.69856300  0.46814900  1
  H  1081  1  0.25679200  0.71493800  0.48460700  1
  H  1083  1  0.27572400  0.69344500  0.45834400  1
  H  1084  1  0.27719400  0.66621800  0.46793500  1
  H  1085  1  0.58106700  0.66189400  0.38578100  1
  H  1086  1  0.62273800  0.66501300  0.38727300  1
  H  1095  1  0.66513500  0.67473100  0.39321700  1
  H  1096  1  0.68474700  0.68622700  0.42526300  1
  H  1097  1  0.66960700  0.62647200  0.45616600  1
  H  1099  1  0.69946900  0.65396000  0.46904100  1
  H  1102  1  0.70144400  0.70695700  0.47828300  1
  H  1103  1  0.71596700  0.74408400  0.49752700  1
  H  1104  1  0.73643600  0.72388400  0.49393100  1
  H  1106  1  0.66212600  0.68521200  0.47185000  1
  H  1107  1  0.66327000  0.65950900  0.48495700  1
  H  1108  1  0.11275700  0.80581000  0.41853700  1
  H  1109  1  0.11113700  0.80290800  0.37688200  1
  H  1110  1  0.12492800  0.78508500  0.44955000  1
  H  1119  1  0.17819200  0.81096200  0.39661200  1
  H  1120  1  0.19015300  0.79063500  0.42793200  1
  H  1121  1  0.16090100  0.84840900  0.39087700  1
  H  1123  1  0.15988100  0.75940500  0.46046900  1
  H  1125  1  0.19989500  0.75880900  0.47942700  1
  H  1127  1  0.16729700  0.80344800  0.47954600  1
  H  1128  1  0.14699500  0.78407100  0.48665300  1
  H  1139  1  0.84287400  0.83578100  0.43062800  1
  H  1140  1  0.82433300  0.82522500  0.46362500  1
  H  1141  1  0.78572800  0.82185600  0.39421500  1
  H  1142  1  0.76744700  0.81099500  0.42733300  1
  H  1143  1  0.85210200  0.81123700  0.39370900  1
  H  1144  1  0.80616100  0.86072600  0.38047500  1
  H  1146  1  0.76951500  0.81652700  0.47011900  1
  H  1149  1  0.75115000  0.75948100  0.48451500  1
  H  1151  1  0.77157500  0.77914900  0.45813600  1
  H  1152  1  0.79951500  0.77833000  0.46536100  1
  H  1153  1  0.11278600  0.16186500  0.61209400  1
  H  1154  1  0.12496900  0.18259800  0.58109300  1
  H  1160  1  0.19018700  0.17702000  0.60272100  1
  H  1162  1  0.15994100  0.20826700  0.57018500  1
  H  1167  1  0.16209800  0.17268900  0.50662700  1
  H  1168  1  0.19994400  0.20884100  0.55121800  1
  H  1170  1  0.23984100  0.21797100  0.53563700  1
  H  1171  1  0.22119100  0.24003900  0.53333300  1
  H  1173  1  0.16730600  0.16421900  0.55109800  1
  H  1174  1  0.14703100  0.18362200  0.54399400  1
  H  1178  1  0.71598300  0.22356200  0.53311200  1
  H  1179  1  0.73644400  0.24376600  0.53671400  1
  H  1186  1  0.84286900  0.13189100  0.60003900  1
  H  1187  1  0.82433600  0.14243400  0.56703700  1
  H  1188  1  0.76743000  0.15665000  0.60330800  1
  H  1190  1  0.76951300  0.15112600  0.56052100  1
  H  1195  1  0.80554700  0.17266600  0.52405700  1
  H  1196  1  0.75116500  0.20817200  0.54612900  1
  H  1198  1  0.77158300  0.18850100  0.57251000  1
  H  1199  1  0.79952500  0.18931200  0.56529200  1
  H  1205  1  0.32185500  0.32488600  0.56778700  1
  H  1206  1  0.33245300  0.34376700  0.60063500  1
  H  1207  1  0.30916800  0.26784400  0.60444200  1
  H  1209  1  0.31388500  0.26909900  0.56250200  1
  H  1214  1  0.29784900  0.30247400  0.52271300  1
  H  1215  1  0.25684700  0.25269600  0.54603000  1
  H  1217  1  0.27577200  0.27419700  0.57228900  1
  H  1218  1  0.27723100  0.30142000  0.56268400  1
  H  1225  1  0.68473200  0.28141100  0.60536600  1
  H  1226  1  0.66958900  0.34116400  0.57446500  1
  H  1227  1  0.65012800  0.35294700  0.60648600  1
  H  1229  1  0.69945000  0.31368200  0.56158400  1
  H  1234  1  0.66981500  0.30247100  0.50792300  1
  H  1235  1  0.70144400  0.26067900  0.55235800  1
  H  1237  1  0.66212100  0.28241000  0.55879600  1
  H  1238  1  0.66324900  0.30811100  0.54568300  1
  H  1239  1  0.31745200  0.61466700  0.60649200  1
  H  1240  1  0.63519900  0.62387700  0.60061000  1
  H  1243  1  0.23114100  0.72385300  0.53669600  1
  H  1244  1  0.25161500  0.74404800  0.53310800  1
  H  1250  1  0.28289400  0.68622700  0.60536000  1
  H  1251  1  0.29795900  0.62643900  0.57448600  1
  H  1253  1  0.26811800  0.65393900  0.56160700  1
  H  1258  1  0.29776900  0.66513500  0.50791300  1
  H  1259  1  0.26613000  0.70691900  0.55235000  1
  H  1261  1  0.30546600  0.68518100  0.55877300  1
  H  1262  1  0.30431000  0.65947400  0.54567500  1
  H  1268  1  0.64580700  0.64276400  0.56776900  1
  H  1269  1  0.65845300  0.69980700  0.60443600  1
  H  1271  1  0.65377000  0.69855500  0.56249400  1
  H  1273  1  0.74645800  0.72762700  0.53332700  1
  H  1278  1  0.66982300  0.66515800  0.52271700  1
  H  1279  1  0.71080200  0.71496100  0.54602500  1
  H  1282  1  0.69187900  0.69346000  0.57228900  1
  H  1283  1  0.69042300  0.66623300  0.56269000  1
  H  1285  1  0.72780200  0.74969100  0.53562400  1
  H  1286  1  0.12474700  0.83580100  0.59998500  1
  H  1293  1  0.14328600  0.82524300  0.56698800  1
  H  1294  1  0.20016100  0.81097600  0.60328200  1
  H  1296  1  0.19809800  0.81651100  0.56049100  1
  H  1301  1  0.16206900  0.79497600  0.52402200  1
  H  1302  1  0.21643500  0.75945700  0.54611100  1
  H  1304  1  0.19601700  0.77913600  0.57248500  1
  H  1305  1  0.16807700  0.77833100  0.56526000  1
  H  1311  1  0.77747800  0.79062400  0.60269100  1
  H  1312  1  0.85487600  0.80579700  0.61207000  1
  H  1313  1  0.84269600  0.78507700  0.58105500  1
  H  1315  1  0.80773700  0.75940100  0.57013800  1
  H  1320  1  0.80553600  0.79497700  0.50659300  1
  H  1321  1  0.76770500  0.75882900  0.55119800  1
  H  1323  1  0.80032100  0.80344900  0.55107500  1
  H  1324  1  0.82061400  0.78407100  0.54395500  1
  H  1326  1  0.07459700  0.11421200  0.68207600  1
  H  1327  1  0.11683800  0.10726200  0.69112700  1
  H  1328  1  0.12383300  0.06993700  0.66677600  1
  H  1336  1  0.14209500  0.03659600  0.67678100  1
  H  1337  1  0.20053300  0.07159900  0.68752500  1
  H  1338  1  0.18254300  0.10501500  0.67721500  1
  H  1339  1  0.16091500  0.11924800  0.63975300  1
  H  1341  1  0.19726900  0.02896100  0.68280000  1
  H  1344  1  0.21718600  0.01496100  0.74010200  1
  H  1346  1  0.19690200  0.04136600  0.72018400  1
  H  1347  1  0.16892800  0.03445100  0.72215400  1
  H  1349  1  0.72707200  0.00294000  0.74958300  1
  H  1359  1  0.79017500  0.10091300  0.68747500  1
  H  1360  1  0.77769100  0.07037100  0.70862000  1
  H  1361  1  0.84235700  0.04697300  0.71344100  1
  H  1362  1  0.85498700  0.07697100  0.69166600  1
  H  1363  1  0.85893300  0.11753300  0.69322200  1
  H  1364  1  0.80615300  0.10693400  0.65017300  1
  H  1366  1  0.80735000  0.03754600  0.73991500  1
  H  1368  1  0.76712000  0.01851000  0.74063700  1
  H  1370  1  0.79995300  0.01787800  0.69615400  1
  H  1371  1  0.82015200  0.01097500  0.71570700  1
  H  1372  1  0.89897100  0.12291600  0.66685800  1
  H  1381  1  0.10500400  0.17484400  0.69568300  1
  H  1382  1  0.07310700  0.18625100  0.71557500  1
  H  1383  1  0.04274400  0.12589300  0.70185000  1
  H  1384  1  0.11115700  0.16475600  0.65375600  1
  H  1386  1  0.02993100  0.15371000  0.73148300  1
  H  1389  1  0.02016800  0.20629600  0.73313700  1
  H  1391  1  0.02625600  0.18418200  0.69360200  1
  H  1392  1  0.01337100  0.15841500  0.69551300  1
  H  1393  1  0.00243700  0.24325100  0.74719400  1
  H  1395  1  0.17821300  0.15668600  0.63403300  1
  H  1397  1  0.78570800  0.14580100  0.63643500  1
  H  1401  1  0.85209100  0.15642700  0.63695300  1
  H  1402  1  0.86208600  0.18032000  0.67824500  1
  H  1409  1  0.93174300  0.14197900  0.67737300  1
  H  1410  1  0.89492500  0.19907200  0.68932000  1
  H  1412  1  0.93700300  0.19776100  0.68454900  1
  H  1417  1  0.97644900  0.16456100  0.70161600  1
  H  1418  1  0.95325400  0.21533400  0.74145500  1
  H  1420  1  0.92695200  0.19373000  0.72267900  1
  H  1421  1  0.93629900  0.16638900  0.72200000  1
  H  1422  1  0.32033400  0.28640700  0.63735700  1
  H  1429  1  0.30578300  0.34909800  0.64067500  1
  H  1430  1  0.36202900  0.31013500  0.64737200  1
  H  1431  1  0.34891700  0.35956400  0.69341700  1
  H  1432  1  0.36271800  0.32042100  0.71369000  1
  H  1433  1  0.31151500  0.36562600  0.70939500  1
  H  1440  1  0.39892700  0.33495300  0.65656500  1
  H  1441  1  0.43202900  0.32446700  0.67496000  1
  H  1442  1  0.39594300  0.30961300  0.73182000  1
  H  1444  1  0.43862800  0.31530500  0.72974900  1
  H  1449  1  0.47542600  0.29448800  0.69362500  1
  H  1451  1  0.42684200  0.27785500  0.72702800  1
  H  1452  1  0.43430800  0.27753000  0.69913900  1
  H  1453  1  0.45324700  0.25831000  0.74751500  1
  H  1463  1  0.60292000  0.31054200  0.71033600  1
  H  1464  1  0.57154000  0.29019700  0.72214900  1
  H  1465  1  0.58106200  0.30576600  0.64484600  1
  H  1466  1  0.54999400  0.28504300  0.65686300  1
  H  1467  1  0.60865700  0.34814500  0.69310300  1
  H  1468  1  0.62271800  0.30263600  0.64335700  1
  H  1470  1  0.53889400  0.25927400  0.69156200  1
  H  1472  1  0.52014200  0.25890400  0.73186600  1
  H  1474  1  0.52007500  0.30335800  0.69959700  1
  H  1475  1  0.51297000  0.28440300  0.67889700  1
  H  1478  1  0.66512500  0.29290600  0.63741500  1
  H  1482  1  0.65992200  0.36025100  0.64890200  1
  H  1483  1  0.64644600  0.36245000  0.71456900  1
  H  1490  1  0.29047300  0.39625800  0.72185600  1
  H  1491  1  0.28600600  0.41978400  0.65720800  1
  H  1492  1  0.30766000  0.38969000  0.64460700  1
  H  1494  1  0.25950800  0.42935300  0.69202300  1
  H  1499  1  0.29411400  0.49306100  0.69415000  1
  H  1500  1  0.25887500  0.44816700  0.73248400  1
  H  1502  1  0.30333700  0.44866100  0.70015600  1
  H  1503  1  0.28428800  0.45562600  0.67949500  1
  H  1510  1  0.64519200  0.43088100  0.67415000  1
  H  1511  1  0.63518300  0.39748500  0.65598600  1
  H  1512  1  0.65677700  0.39592000  0.73245500  1
  H  1514  1  0.65193300  0.43847100  0.72930000  1
  H  1519  1  0.67350400  0.47460100  0.69417500  1
  H  1520  1  0.70930600  0.45262100  0.74838400  1
  H  1522  1  0.68938900  0.42621500  0.72812400  1
  H  1523  1  0.69077600  0.43336700  0.70017400  1
  H  1532  1  0.32243100  0.53675700  0.67415000  1
  H  1533  1  0.33244300  0.57014600  0.65598000  1
  H  1534  1  0.31086000  0.57173000  0.73245100  1
  H  1535  1  0.32119800  0.60519500  0.71455700  1
  H  1536  1  0.30770600  0.60738500  0.64890300  1
  H  1537  1  0.35897900  0.61949800  0.69309200  1
  H  1539  1  0.31568500  0.52917100  0.72930500  1
  H  1542  1  0.25831400  0.51503800  0.74836100  1
  H  1544  1  0.27823800  0.54144300  0.72810800  1
  H  1545  1  0.27686300  0.53429800  0.70015500  1
  H  1548  1  0.61870300  0.60809000  0.69340200  1
  H  1558  1  0.65608500  0.60203800  0.70938600  1
  H  1559  1  0.67712700  0.57141400  0.72186900  1
  H  1560  1  0.68163300  0.54786400  0.65723300  1
  H  1561  1  0.65997800  0.57794700  0.64461000  1
  H  1562  1  0.66184300  0.61855100  0.64066200  1
  H  1564  1  0.70811200  0.53831200  0.69207400  1
  H  1566  1  0.70873800  0.51949300  0.73251500  1
  H  1568  1  0.66427800  0.51899900  0.70016400  1
  H  1569  1  0.68334900  0.51203400  0.67952300  1
  H  1571  1  0.30252900  0.67473900  0.63739500  1
  H  1575  1  0.34490300  0.66500100  0.64334400  1
  H  1576  1  0.36469900  0.65709200  0.71032100  1
  H  1583  1  0.39607300  0.67743900  0.72214700  1
  H  1584  1  0.38657900  0.66187600  0.64484100  1
  H  1585  1  0.41764000  0.68260100  0.65687000  1
  H  1587  1  0.42873200  0.70836500  0.69157600  1
  H  1592  1  0.49219700  0.67315900  0.69363500  1
  H  1593  1  0.44747600  0.70873000  0.73188400  1
  H  1595  1  0.44754500  0.66428000  0.69961500  1
  H  1596  1  0.45465300  0.68323100  0.67891100  1
  H  1597  1  0.60491300  0.64723100  0.71366400  1
  H  1606  1  0.56868400  0.63269100  0.65655200  1
  H  1607  1  0.53558900  0.64319000  0.67495500  1
  H  1608  1  0.57169700  0.65805200  0.73180000  1
  H  1609  1  0.60559500  0.65751400  0.64734900  1
  H  1611  1  0.52901300  0.65235000  0.72974500  1
  H  1615  1  0.54078200  0.68980500  0.72703100  1
  H  1616  1  0.53331300  0.69013700  0.69914300  1
  H  1617  1  0.51437400  0.70934500  0.74752200  1
  H  1618  1  0.64727900  0.68123800  0.63734300  1
  H  1620  1  0.96519800  0.72444200  0.74719800  1
  H  1630  1  0.03586800  0.82567100  0.67737200  1
  H  1631  1  0.06862900  0.84473700  0.66683400  1
  H  1632  1  0.07270000  0.76858200  0.68928600  1
  H  1633  1  0.10552800  0.78733500  0.67818700  1
  H  1634  1  0.10867700  0.85010500  0.69319100  1
  H  1635  1  0.11551400  0.81124100  0.63690100  1
  H  1637  1  0.03061000  0.76989100  0.68455600  1
  H  1640  1  0.01439800  0.75232200  0.74145700  1
  H  1642  1  0.04070400  0.77391500  0.72266900  1
  H  1643  1  0.03138500  0.80126700  0.72200200  1
  H  1644  1  0.18188300  0.82183800  0.63640000  1
  H  1648  1  0.16145600  0.86072600  0.65014200  1
  H  1649  1  0.17743500  0.86672500  0.68743200  1
  H  1651  1  0.78944700  0.81094600  0.63401300  1
  H  1658  1  0.85078200  0.86034900  0.69114900  1
  H  1659  1  0.80673700  0.84838900  0.63974100  1
  H  1660  1  0.85650500  0.80289100  0.65372800  1
  H  1662  1  0.86268800  0.79273800  0.69560000  1
  H  1663  1  0.78508700  0.86260200  0.67720300  1
  H  1669  1  0.89457600  0.78135000  0.71551300  1
  H  1670  1  0.92483000  0.84181200  0.70199700  1
  H  1671  1  0.89298400  0.85347300  0.68219800  1
  H  1673  1  0.93765600  0.81395300  0.73158100  1
  H  1678  1  0.99205300  0.80315200  0.70168300  1
  H  1679  1  0.94748600  0.76142200  0.73319900  1
  H  1681  1  0.94144000  0.78357500  0.69363800  1
  H  1682  1  0.95429100  0.80935200  0.69563700  1
  H  1683  1  0.11262900  0.89067200  0.69166800  1
  H  1690  1  0.18993200  0.89725100  0.70859400  1
  H  1691  1  0.12527000  0.92065100  0.71345900  1
  H  1693  1  0.16029500  0.93005800  0.73992200  1
  H  1698  1  0.16238000  0.99396300  0.70513200  1
  H  1699  1  0.20050000  0.94911900  0.74065800  1
  H  1701  1  0.16765500  0.94975600  0.69616700  1
  H  1702  1  0.14746700  0.95664200  0.71574200  1
  H  1703  1  0.24054800  0.96469200  0.74958800  1
  H  1711  1  0.82553700  0.93102000  0.67680700  1
  H  1712  1  0.84380000  0.89768300  0.66679900  1
  H  1713  1  0.76709200  0.89601500  0.68752200  1
  H  1715  1  0.77035600  0.93865100  0.68279900  1
  H  1720  1  0.80523800  0.97449400  0.70512000  1
  H  1721  1  0.75043200  0.95266800  0.74009900  1
  H  1723  1  0.77071600  0.92625800  0.72018600  1
  H  1724  1  0.79869000  0.93317500  0.72215900  1
  H  1725  1  0.23194100  0.00541000  0.77562400  1
  H  1726  1  0.25239700  0.00190100  0.75539600  1
  H  1735  1  0.30250200  0.10599500  0.82528400  1
  H  1736  1  0.28296500  0.07392300  0.81373700  1
  H  1737  1  0.29833700  0.04288900  0.87336000  1
  H  1738  1  0.34490000  0.11187600  0.83482000  1
  H  1740  1  0.26853300  0.02992200  0.84582800  1
  H  1743  1  0.26678600  0.02104000  0.79270000  1
  H  1745  1  0.30596500  0.02752900  0.81464200  1
  H  1746  1  0.30480100  0.01424300  0.84025000  1
  H  1747  1  0.38658300  0.11324500  0.83770900  1
  H  1749  1  0.60518600  0.11516100  0.84184400  1
  H  1750  1  0.64668500  0.10488500  0.81804000  1
  H  1758  1  0.64513100  0.03541400  0.85669800  1
  H  1759  1  0.65769000  0.07189500  0.79951900  1
  H  1761  1  0.65286700  0.02992600  0.80093600  1
  H  1764  1  0.70991000  0.01349200  0.78425600  1
  H  1766  1  0.69099000  0.03981300  0.80568700  1
  H  1767  1  0.68976300  0.03035500  0.83297300  1
  H  1768  1  0.74561800  0.00082500  0.77175400  1
  H  1769  1  0.00327300  0.22344700  0.76834000  1
  H  1771  1  0.36490400  0.17877100  0.84280400  1
  H  1778  1  0.39618100  0.19056900  0.82229200  1
  H  1779  1  0.41754700  0.12524800  0.81682300  1
  H  1781  1  0.42857800  0.16000200  0.79109000  1
  H  1786  1  0.49219700  0.16190400  0.82616300  1
  H  1787  1  0.44747100  0.20016800  0.79061400  1
  H  1789  1  0.46471500  0.24051400  0.78131400  1
  H  1790  1  0.46390400  0.22133300  0.75961400  1
  H  1792  1  0.44764500  0.16781500  0.83510300  1
  H  1793  1  0.45461700  0.14719100  0.81601600  1
  H  1795  1  0.56838000  0.12463000  0.86665700  1
  H  1803  1  0.53537500  0.14320300  0.85618100  1
  H  1804  1  0.57177500  0.19983900  0.84122200  1
  H  1806  1  0.52906900  0.19800400  0.84697300  1
  H  1809  1  0.51437200  0.21580100  0.78999200  1
  H  1811  1  0.54078200  0.19529600  0.80952400  1
  H  1812  1  0.53330200  0.16741100  0.80917200  1
  H  1813  1  0.50370300  0.22790700  0.75302600  1
  H  1814  1  0.60490500  0.18152800  0.85201500  1
  H  1817  1  0.96452200  0.23051500  0.77577900  1
  H  1826  1  0.03568700  0.32228900  0.85658300  1
  H  1827  1  0.07246900  0.31023300  0.79948800  1
  H  1828  1  0.10530500  0.32144200  0.81816600  1
  H  1829  1  0.11533000  0.36285700  0.84220400  1
  H  1831  1  0.03032400  0.31481200  0.80087700  1
  H  1834  1  0.01437200  0.25783200  0.78350800  1
  H  1836  1  0.04069900  0.27680000  0.80491700  1
  H  1837  1  0.03158300  0.27744300  0.83233800  1
  H  1839  1  0.18171500  0.36327000  0.85277600  1
  H  1840  1  0.50290800  0.24960200  0.77221200  1
  H  1844  1  0.85664400  0.34450700  0.83471700  1
  H  1846  1  0.86275500  0.30257900  0.82474300  1
  H  1847  1  0.78967000  0.36425600  0.84256500  1
  H  1849  1  0.96499500  0.25172100  0.75602800  1
  H  1855  1  0.89470100  0.28276700  0.81333100  1
  H  1856  1  0.92506200  0.29662300  0.87365900  1
  H  1858  1  0.93803200  0.26710100  0.84581800  1
  H  1863  1  0.99212200  0.29739200  0.83454800  1
  H  1864  1  0.94747300  0.26554500  0.79315900  1
  H  1866  1  0.94130800  0.30504800  0.81537600  1
  H  1867  1  0.95436500  0.30313400  0.84105700  1
  H  1868  1  0.12459300  0.39959200  0.86705400  1
  H  1875  1  0.14314300  0.43266800  0.85676500  1
  H  1876  1  0.20000100  0.39646900  0.84217900  1
  H  1878  1  0.19797900  0.43917800  0.84791000  1
  H  1880  1  0.22798200  0.46447100  0.75389100  1
  H  1885  1  0.16182500  0.47585900  0.82681300  1
  H  1886  1  0.21600300  0.45388700  0.79093300  1
  H  1889  1  0.19558700  0.42742400  0.81046900  1
  H  1890  1  0.16766100  0.43473900  0.80991500  1
  H  1891  1  0.24973300  0.46543200  0.77300300  1
  H  1894  1  0.72718500  0.46407900  0.78210100  1
  H  1895  1  0.74633700  0.46336200  0.76037500  1
  H  1901  1  0.77775700  0.39561900  0.82226100  1
  H  1902  1  0.85510000  0.38628900  0.83777300  1
  H  1903  1  0.84297900  0.41736000  0.81710400  1
  H  1905  1  0.80820500  0.42844200  0.79139100  1
  H  1910  1  0.80581400  0.49179500  0.82681600  1
  H  1911  1  0.76772800  0.44697600  0.79119400  1
  H  1913  1  0.80017700  0.44708900  0.83554500  1
  H  1914  1  0.82074900  0.45438900  0.81652600  1
  H  1915  1  0.11254600  0.58136800  0.83777800  1
  H  1916  1  0.11100000  0.62313200  0.83471300  1
  H  1918  1  0.12466300  0.55029300  0.81710600  1
  H  1926  1  0.17797900  0.60339600  0.84256000  1
  H  1927  1  0.18988800  0.57202900  0.82225800  1
  H  1929  1  0.15943100  0.53921200  0.79138800  1
  H  1931  1  0.19990800  0.52067700  0.79119000  1
  H  1932  1  0.24044800  0.50357300  0.78208100  1
  H  1933  1  0.22128500  0.50429500  0.76036400  1
  H  1935  1  0.16745900  0.52056600  0.83554300  1
  H  1936  1  0.14689000  0.51326300  0.81652300  1
  H  1937  1  0.71789100  0.50222200  0.77303200  1
  H  1938  1  0.73963500  0.50318700  0.75391100  1
  H  1939  1  0.75162800  0.51376600  0.79094700  1
  H  1948  1  0.84303600  0.56809400  0.86702700  1
  H  1949  1  0.82449900  0.53501000  0.85675200  1
  H  1950  1  0.76761000  0.57117700  0.84219500  1
  H  1951  1  0.85228400  0.60482200  0.84218600  1
  H  1953  1  0.76965900  0.52846900  0.84792200  1
  H  1957  1  0.77204800  0.54022900  0.81047900  1
  H  1958  1  0.79997300  0.53291600  0.80992300  1
  H  1959  1  0.78588800  0.60438900  0.85277900  1
  H  1968  1  0.10489600  0.66510600  0.82475400  1
  H  1969  1  0.07294200  0.68489300  0.81333900  1
  H  1970  1  0.04254100  0.67093400  0.87362700  1
  H  1972  1  0.02955900  0.70047100  0.84580500  1
  H  1975  1  0.02017600  0.70205100  0.79310500  1
  H  1976  1  0.00263800  0.71592400  0.75598900  1
  H  1977  1  0.00314600  0.73710100  0.77577100  1
  H  1979  1  0.02636700  0.66257000  0.81529800  1
  H  1980  1  0.01328500  0.66442000  0.84096800  1
  H  1983  1  0.46472000  0.71803300  0.77222700  1
  H  1984  1  0.46390700  0.73973000  0.75304400  1
  H  1985  1  0.50291100  0.72714200  0.78131700  1
  H  1986  1  0.50370400  0.74632500  0.75961900  1
  H  1987  1  0.86230900  0.64625100  0.81814900  1
  H  1995  1  0.93192600  0.64535800  0.85657000  1
  H  1996  1  0.89515400  0.65744400  0.79947600  1
  H  1998  1  0.93728900  0.65283300  0.80086700  1
  H  2000  1  0.96439500  0.74421500  0.76837600  1
  H  2005  1  0.97636700  0.67020400  0.83449600  1
  H  2006  1  0.95327700  0.70981600  0.78349700  1
  H  2009  1  0.92694900  0.69085700  0.80491000  1
  H  2010  1  0.93608200  0.69020400  0.83232500  1
  H  2014  1  0.36243000  0.85246300  0.84183900  1
  H  2015  1  0.32092600  0.86275800  0.81802800  1
  H  2016  1  0.36270100  0.78608700  0.85201400  1
  H  2017  1  0.45324200  0.75183600  0.79000500  1
  H  2024  1  0.39922000  0.84299100  0.86664900  1
  H  2025  1  0.43222900  0.82441600  0.85618900  1
  H  2026  1  0.39583600  0.76777500  0.84123800  1
  H  2028  1  0.43854400  0.76961200  0.84698800  1
  H  2033  1  0.47540600  0.80573300  0.82618300  1
  H  2035  1  0.42682700  0.77233500  0.80954000  1
  H  2036  1  0.43430500  0.80022000  0.80919800  1
  H  2045  1  0.60270300  0.78888400  0.84281100  1
  H  2046  1  0.57142000  0.77708800  0.82230300  1
  H  2047  1  0.58102600  0.85441200  0.83772100  1
  H  2048  1  0.55005800  0.84241100  0.81683900  1
  H  2049  1  0.62270800  0.85577900  0.83482300  1
  H  2051  1  0.53902300  0.80766200  0.79110600  1
  H  2053  1  0.52013800  0.76748900  0.79062200  1
  H  2055  1  0.51995800  0.79983500  0.83511600  1
  H  2056  1  0.51298000  0.82046000  0.81603200  1
  H  2060  1  0.66508300  0.86167300  0.82526000  1
  H  2064  1  0.22201300  0.96681300  0.77176900  1
  H  2071  1  0.32251500  0.93222000  0.85669900  1
  H  2072  1  0.30993600  0.89575500  0.79951400  1
  H  2074  1  0.31478500  0.93772700  0.80094100  1
  H  2079  1  0.29842200  0.97732200  0.83435500  1
  H  2080  1  0.25772900  0.95414900  0.78425200  1
  H  2082  1  0.27665900  0.92783300  0.80568100  1
  H  2083  1  0.27787900  0.93729500  0.83296600  1
  H  2088  1  0.68462600  0.89374100  0.81371700  1
  H  2089  1  0.66934800  0.92473300  0.87338800  1
  H  2091  1  0.69912400  0.93770700  0.84583700  1
  H  2096  1  0.66923700  0.99117000  0.83438000  1
  H  2097  1  0.70085700  0.94660300  0.79272100  1
  H  2099  1  0.71522600  0.96573300  0.75540800  1
  H  2100  1  0.73569500  0.96222800  0.77562200  1
  H  2102  1  0.66167300  0.94013000  0.81467600  1
  H  2103  1  0.66286200  0.95340900  0.84028900  1
  H  2106  1  0.31773500  0.07492400  0.88519200  1
  H  2107  1  0.30804700  0.11734500  0.89266300  1
  H  2108  1  0.33278800  0.12420900  0.92978100  1
  H  2109  1  0.63468700  0.06833800  0.87553800  1
  H  2111  1  0.65967500  0.11234400  0.92132300  1
  H  2112  1  0.66147800  0.10826700  0.88070900  1
  H  2113  1  0.22217000  0.22869600  0.99586200  1
  H  2122  1  0.32295800  0.14231700  0.96325900  1
  H  2123  1  0.31179900  0.20085000  0.92854400  1
  H  2124  1  0.32193700  0.18302000  0.89499600  1
  H  2125  1  0.35937200  0.16143700  0.88039500  1
  H  2127  1  0.31659500  0.19747200  0.97110300  1
  H  2130  1  0.25924000  0.21683400  0.98522900  1
  H  2132  1  0.27917300  0.19667000  0.95876300  1
  H  2133  1  0.27754200  0.16868100  0.96570900  1
  H  2135  1  0.61865900  0.16127200  0.89111500  1
  H  2144  1  0.65614800  0.17706600  0.89702800  1
  H  2145  1  0.67718900  0.18954000  0.92765400  1
  H  2146  1  0.68132700  0.12495600  0.95141700  1
  H  2148  1  0.70789600  0.15972900  0.96101100  1
  H  2150  1  0.70824300  0.20045900  0.97951300  1
  H  2151  1  0.71717800  0.24117600  0.99657600  1
  H  2152  1  0.73894100  0.22207100  0.99576400  1
  H  2154  1  0.66394400  0.16794000  0.98000800  1
  H  2155  1  0.68302900  0.14740900  0.98725300  1
  H  2156  1  0.06845600  0.33294200  0.87557000  1
  H  2158  1  0.11241500  0.30796500  0.92141900  1
  H  2159  1  0.10846800  0.30635800  0.88077000  1
  H  2161  1  0.24121000  0.25050900  0.99683900  1
  H  2170  1  0.17719600  0.31181700  0.89732400  1
  H  2171  1  0.18965200  0.29066000  0.92787900  1
  H  2172  1  0.12501300  0.28620300  0.95144200  1
  H  2173  1  0.16130200  0.34929100  0.89157800  1
  H  2175  1  0.15984700  0.25971000  0.96102000  1
  H  2177  1  0.20052000  0.25939800  0.97966100  1
  H  2179  1  0.16788100  0.30360000  0.98022900  1
  H  2180  1  0.14736900  0.28443900  0.98732200  1
  H  2181  1  0.75094100  0.25905400  0.98502300  1
  H  2191  1  0.82583600  0.32232400  0.96300400  1
  H  2192  1  0.84405700  0.33203400  0.92955200  1
  H  2193  1  0.76732700  0.31135700  0.92818100  1
  H  2194  1  0.78527300  0.32138000  0.89465600  1
  H  2195  1  0.85093400  0.30735800  0.89236000  1
  H  2196  1  0.80694100  0.35877000  0.88019700  1
  H  2198  1  0.77062400  0.31628800  0.97072800  1
  H  2202  1  0.77126700  0.27880700  0.95854600  1
  H  2203  1  0.79922500  0.27706300  0.96559600  1
  H  2204  1  0.89316400  0.31631900  0.88534500  1
  H  2206  1  0.16070700  0.60889500  0.88019700  1
  H  2208  1  0.80631300  0.61837800  0.89156500  1
  H  2210  1  0.07445600  0.65126200  0.88531700  1
  H  2211  1  0.11669000  0.66029200  0.89235000  1
  H  2212  1  0.12358300  0.63563100  0.92954100  1
  H  2213  1  0.18237100  0.64628200  0.89465200  1
  H  2221  1  0.14179700  0.64534300  0.96299600  1
  H  2222  1  0.20031300  0.65630800  0.92818300  1
  H  2224  1  0.19700500  0.65137700  0.97072500  1
  H  2227  1  0.21669800  0.70860400  0.98503300  1
  H  2229  1  0.19637200  0.68885900  0.95855200  1
  H  2230  1  0.16841400  0.69060800  0.96559900  1
  H  2231  1  0.22870200  0.74558400  0.99577100  1
  H  2232  1  0.25046300  0.72647700  0.99659200  1
  H  2233  1  0.72641300  0.71712200  0.99684600  1
  H  2234  1  0.74545000  0.73893600  0.99586400  1
  H  2244  1  0.79041400  0.65586200  0.89732300  1
  H  2245  1  0.77796800  0.67700500  0.92789000  1
  H  2246  1  0.84261200  0.68143800  0.95144200  1
  H  2247  1  0.85520000  0.65968900  0.92140600  1
  H  2248  1  0.85914100  0.66131600  0.88076200  1
  H  2250  1  0.80779100  0.70793800  0.96103600  1
  H  2252  1  0.76710200  0.70823400  0.97966600  1
  H  2254  1  0.79974000  0.66404200  0.98022900  1
  H  2255  1  0.82025800  0.68319300  0.98732800  1
  H  2256  1  0.89914800  0.63472100  0.87555600  1
  H  2267  1  0.31143000  0.79057500  0.89702100  1
  H  2268  1  0.29039900  0.77811500  0.92766100  1
  H  2269  1  0.28632200  0.84270200  0.95142500  1
  H  2270  1  0.30796100  0.85530000  0.92131600  1
  H  2271  1  0.30613600  0.85937700  0.88070100  1
  H  2272  1  0.34893900  0.80635500  0.89110700  1
  H  2274  1  0.25973700  0.80795400  0.96104300  1
  H  2276  1  0.25940300  0.76718900  0.97952200  1
  H  2278  1  0.30369400  0.79968000  0.98000300  1
  H  2279  1  0.28464800  0.82024100  0.98726100  1
  H  2281  1  0.60825100  0.80621300  0.88039900  1
  H  2282  1  0.70838200  0.75079400  0.98522900  1
  H  2283  1  0.64567900  0.78462200  0.89498400  1
  H  2292  1  0.64468100  0.82532300  0.96325100  1
  H  2293  1  0.63484300  0.84343300  0.92977600  1
  H  2294  1  0.65582700  0.76678800  0.92853100  1
  H  2295  1  0.65958500  0.85029700  0.89265000  1
  H  2297  1  0.65103100  0.77016700  0.97108800  1
  H  2301  1  0.68845600  0.77095700  0.95875900  1
  H  2302  1  0.69009400  0.79894700  0.96569900  1
  H  2303  1  0.33294200  0.89928900  0.87553100  1
  H  2304  1  0.64994300  0.89269900  0.88521500  1
  C  3  1  0.22922000  0.24132500  0.00558500  1
  C  4  1  0.24133800  0.22917200  0.02440200  1
  C  7  1  0.30405700  0.12858400  0.10854200  1
  C  8  1  0.29148100  0.13592500  0.09073500  1
  C  9  1  0.28657100  0.15836600  0.08840400  1
  C  10  1  0.29389300  0.17320000  0.10443500  1
  C  11  1  0.30641600  0.16582900  0.12227000  1
  C  16  1  0.25676900  0.21114300  0.01849100  1
  C  17  1  0.26425600  0.19727400  0.03543800  1
  C  18  1  0.27793300  0.17909600  0.03122800  1
  C  19  1  0.28470400  0.17533500  0.00946600  1
  C  22  1  0.28623700  0.16440900  0.04879800  1
  C  25  1  0.63924700  0.15197800  0.12139400  1
  C  26  1  0.63898400  0.14045800  0.10133000  1
  C  27  1  0.64454000  0.15105900  0.08168300  1
  C  28  1  0.65095300  0.17320300  0.08178900  1
  C  29  1  0.65101600  0.18485900  0.10173900  1
  C  30  1  0.64497700  0.17440100  0.12132800  1
  C  35  1  0.73839900  0.24135600  0.02422300  1
  C  37  1  0.71085600  0.21117100  0.01131700  1
  C  38  1  0.68293400  0.17535300  0.02034600  1
  C  39  1  0.68951300  0.18920800  0.03761800  1
  C  40  1  0.70347300  0.20699600  0.03286800  1
  C  43  1  0.72628800  0.22919800  0.00540600  1
  C  44  1  0.68254300  0.18429600  0.06038800  1
  C  48  1  0.15131300  0.32772300  0.12165800  1
  C  49  1  0.13984000  0.32795400  0.10156500  1
  C  50  1  0.15051600  0.32247800  0.08193600  1
  C  51  1  0.17269000  0.31615900  0.08208800  1
  C  52  1  0.18428700  0.31609300  0.10207000  1
  C  53  1  0.17375300  0.32205500  0.12164100  1
  C  58  1  0.21112400  0.25668000  0.01149300  1
  C  59  1  0.17519300  0.28445900  0.02051100  1
  C  60  1  0.18900700  0.27785200  0.03780500  1
  C  61  1  0.20685800  0.26396900  0.03305800  1
  C  64  1  0.18399100  0.28470600  0.06058800  1
  C  68  1  0.83894900  0.30407800  0.10843100  1
  C  69  1  0.83161500  0.29143200  0.09067100  1
  C  70  1  0.80915800  0.28661200  0.08828700  1
  C  71  1  0.79430700  0.29406000  0.10424300  1
  C  72  1  0.80167300  0.30663800  0.12204100  1
  C  78  1  0.75649600  0.25671100  0.01831700  1
  C  79  1  0.77033000  0.26422300  0.03528300  1
  C  80  1  0.78857500  0.27781300  0.03107900  1
  C  81  1  0.79244100  0.28447200  0.00930100  1
  C  84  1  0.80323400  0.28613400  0.04866500  1
  C  88  1  0.12868600  0.66355800  0.10842600  1
  C  89  1  0.13601800  0.67621200  0.09067100  1
  C  90  1  0.15847300  0.68104000  0.08829100  1
  C  91  1  0.17332800  0.67358400  0.10424000  1
  C  92  1  0.16596100  0.66100600  0.12203900  1
  C  97  1  0.21113900  0.71094900  0.01832700  1
  C  98  1  0.19730000  0.70343900  0.03529000  1
  C  99  1  0.17906100  0.68984300  0.03108500  1
  C  100  1  0.17519300  0.68318800  0.00930500  1
  C  103  1  0.22923300  0.72630400  0.02423400  1
  C  106  1  0.16439200  0.68152900  0.04866800  1
  C  109  1  0.24135100  0.73845700  0.00541800  1
  C  110  1  0.73840300  0.72631000  0.00558900  1
  C  111  1  0.72628500  0.73846500  0.02440400  1
  C  115  1  0.81633000  0.63994000  0.12166700  1
  C  116  1  0.82780100  0.63971000  0.10157400  1
  C  117  1  0.81712000  0.64517100  0.08194300  1
  C  118  1  0.79494800  0.65149500  0.08209700  1
  C  119  1  0.78335100  0.65155900  0.10208000  1
  C  120  1  0.79388800  0.64560300  0.12165200  1
  C  126  1  0.75650100  0.71095900  0.01149800  1
  C  127  1  0.79244000  0.68318800  0.02051800  1
  C  128  1  0.77862700  0.68979800  0.03781300  1
  C  129  1  0.76077400  0.70367800  0.03306500  1
  C  131  1  0.78364500  0.68294600  0.06059700  1
  C  135  1  0.32838200  0.81569700  0.12140700  1
  C  136  1  0.32863400  0.82721700  0.10134200  1
  C  137  1  0.32308900  0.81661200  0.08169500  1
  C  138  1  0.31666900  0.79446900  0.08180600  1
  C  139  1  0.31660800  0.78281600  0.10175700  1
  C  140  1  0.32263900  0.79327700  0.12134500  1
  C  146  1  0.25678200  0.75648600  0.01132800  1
  C  147  1  0.28470200  0.79230600  0.02035600  1
  C  148  1  0.27812100  0.77845200  0.03762900  1
  C  149  1  0.26416300  0.76066300  0.03288000  1
  C  151  1  0.28508700  0.78336900  0.06039900  1
  C  154  1  0.66359400  0.83907300  0.10853300  1
  C  155  1  0.67617100  0.83173200  0.09072800  1
  C  156  1  0.68106900  0.80928700  0.08839200  1
  C  157  1  0.67375100  0.79445500  0.10442600  1
  C  158  1  0.66123300  0.80183000  0.12226400  1
  C  164  1  0.71085400  0.75649200  0.01849000  1
  C  165  1  0.70336700  0.77036700  0.03543400  1
  C  166  1  0.68969500  0.78854400  0.03121900  1
  C  167  1  0.68292600  0.79230200  0.00945600  1
  C  170  1  0.68139900  0.80324200  0.04878500  1
  C  173  1  0.33355700  0.10900800  0.17089700  1
  C  174  1  0.32017700  0.11667200  0.15370900  1
  C  175  1  0.35261300  0.12077400  0.17644200  1
  C  176  1  0.32803700  0.08957700  0.18217500  1
  C  177  1  0.32832700  0.06925000  0.17116400  1
  C  178  1  0.32234000  0.04996700  0.18218100  1
  C  179  1  0.31538400  0.05076100  0.20415100  1
  C  180  1  0.31504600  0.07106100  0.21519300  1
  C  181  1  0.32160200  0.09029100  0.20437200  1
  C  190  1  0.27886900  0.00505200  0.22065100  1
  C  191  1  0.26450800  0.00063300  0.23821300  1
  C  192  1  0.28436200  0.02783200  0.21412800  1
  C  198  1  0.62593500  0.11973600  0.18136100  1
  C  199  1  0.64704200  0.12265900  0.14776700  1
  C  200  1  0.64307400  0.11200700  0.16788500  1
  C  201  1  0.65574200  0.09358500  0.17426700  1
  C  202  1  0.65760400  0.07518800  0.16033800  1
  C  203  1  0.66886600  0.05635300  0.16725200  1
  C  204  1  0.67887600  0.05569200  0.18806800  1
  C  205  1  0.67774500  0.07425900  0.20168700  1
  C  206  1  0.66609100  0.09292800  0.19496600  1
  C  214  1  0.69773500  0.00523700  0.23332400  1
  C  215  1  0.68367200  0.00137700  0.21539700  1
  C  217  1  0.67278400  0.01997200  0.20413000  1
  C  220  1  0.31191100  0.14342600  0.12453100  1
  C  222  1  0.32534200  0.13605700  0.14215600  1
  C  223  1  0.34449900  0.14762300  0.14816900  1
  C  224  1  0.35834100  0.14005600  0.16506600  1
  C  228  1  0.37791500  0.15136400  0.17029500  1
  C  229  1  0.39834400  0.14056600  0.16909100  1
  C  230  1  0.41771200  0.15146700  0.17501800  1
  C  231  1  0.41698100  0.17318200  0.18271800  1
  C  232  1  0.39665600  0.18414400  0.18370100  1
  C  233  1  0.37731900  0.17340100  0.17731900  1
  C  238  1  0.48744400  0.21052200  0.24284200  1
  C  239  1  0.47868800  0.17491600  0.21454800  1
  C  240  1  0.46128300  0.18848300  0.22140700  1
  C  241  1  0.46590200  0.20615800  0.23555300  1
  C  244  1  0.43851200  0.18342200  0.21452000  1
  C  247  1  0.50043900  0.17880000  0.22131700  1
  C  248  1  0.61294500  0.13787100  0.17519300  1
  C  249  1  0.61775100  0.14855600  0.15523100  1
  C  250  1  0.59501400  0.14484600  0.18837700  1
  C  251  1  0.59178800  0.16728300  0.19315800  1
  C  252  1  0.57354400  0.17425700  0.20531100  1
  C  253  1  0.55800200  0.15899800  0.21281700  1
  C  254  1  0.56123300  0.13654700  0.20849000  1
  C  255  1  0.57952600  0.12957500  0.19638900  1
  C  262  1  0.50449300  0.19689300  0.23516000  1
  C  264  1  0.51817500  0.16428900  0.21299200  1
  C  269  1  0.63464000  0.14107400  0.14135500  1
  C  270  1  0.12193700  0.31999200  0.14800500  1
  C  271  1  0.11119200  0.32405600  0.16806300  1
  C  272  1  0.11888800  0.34126500  0.18148100  1
  C  273  1  0.09277900  0.31134700  0.17445000  1
  C  274  1  0.07458000  0.30901700  0.16032700  1
  C  275  1  0.05582200  0.29756200  0.16714400  1
  C  276  1  0.05502600  0.28781800  0.18808300  1
  C  277  1  0.07337800  0.28947200  0.20194000  1
  C  278  1  0.09197500  0.30128800  0.19529100  1
  C  287  1  0.00436000  0.26886000  0.23304800  1
  C  288  1  0.00047200  0.28280900  0.21503800  1
  C  290  1  0.01903200  0.29363200  0.20363200  1
  C  294  1  0.14036000  0.33237800  0.14158300  1
  C  295  1  0.13706600  0.35420700  0.17532600  1
  C  296  1  0.14779200  0.34932800  0.15540400  1
  C  299  1  0.14408100  0.37215900  0.18846400  1
  C  300  1  0.82409000  0.31206400  0.12433900  1
  C  302  1  0.85843400  0.33383600  0.17070400  1
  C  303  1  0.85078000  0.32039300  0.15356000  1
  C  304  1  0.83145500  0.32556800  0.14191000  1
  C  305  1  0.81994100  0.34479900  0.14777800  1
  C  306  1  0.82748600  0.35869700  0.16463900  1
  C  307  1  0.84670900  0.35295700  0.17611100  1
  C  313  1  0.87779500  0.32828300  0.18209100  1
  C  314  1  0.89816800  0.32838700  0.17115700  1
  C  315  1  0.91736500  0.32229100  0.18226300  1
  C  316  1  0.91644100  0.31540600  0.20425100  1
  C  317  1  0.89610100  0.31526900  0.21522200  1
  C  318  1  0.87695800  0.32193100  0.20431000  1
  C  324  1  0.98787400  0.25894300  0.24477700  1
  C  325  1  0.97945900  0.28714500  0.20896600  1
  C  326  1  0.96172600  0.27847000  0.22097000  1
  C  327  1  0.96616700  0.26433300  0.23871000  1
  C  330  1  0.93894200  0.28418900  0.21464500  1
  C  335  1  0.16652400  0.37530000  0.19328200  1
  C  336  1  0.17357100  0.39359600  0.20531200  1
  C  337  1  0.15838300  0.40927800  0.21266800  1
  C  338  1  0.13592100  0.40612500  0.20832000  1
  C  339  1  0.12887300  0.38777100  0.19635100  1
  C  343  1  0.21048900  0.47965300  0.24209600  1
  C  344  1  0.19672200  0.46265700  0.23453700  1
  C  345  1  0.17860400  0.46676400  0.22074100  1
  C  346  1  0.17484300  0.48850800  0.21388200  1
  C  349  1  0.16395400  0.44907900  0.21254200  1
  C  354  1  0.81620600  0.37832400  0.16974200  1
  C  355  1  0.82708100  0.39871500  0.16858700  1
  C  356  1  0.81619700  0.41813300  0.17437800  1
  C  357  1  0.79442900  0.41748800  0.18193700  1
  C  358  1  0.78338800  0.39720300  0.18286800  1
  C  359  1  0.79410700  0.37782200  0.17658400  1
  C  365  1  0.75716700  0.48801400  0.24208200  1
  C  366  1  0.79281000  0.47914900  0.21387100  1
  C  367  1  0.77910100  0.46180400  0.22060400  1
  C  368  1  0.76140400  0.46647900  0.23470400  1
  C  370  1  0.78406900  0.43902300  0.21369100  1
  C  373  1  0.12092600  0.61469000  0.17611300  1
  C  376  1  0.14769400  0.62284800  0.14777900  1
  C  377  1  0.14015100  0.60895200  0.16464200  1
  C  378  1  0.15143200  0.58932700  0.16974500  1
  C  379  1  0.14055900  0.56893400  0.16858500  1
  C  380  1  0.15143900  0.54952100  0.17440300  1
  C  381  1  0.17321500  0.55016400  0.18194100  1
  C  382  1  0.18425400  0.57044900  0.18286300  1
  C  383  1  0.17353100  0.58983000  0.17659200  1
  C  390  1  0.18854800  0.50585600  0.22061300  1
  C  391  1  0.20624800  0.50118600  0.23471200  1
  C  393  1  0.18357800  0.52863700  0.21369600  1
  C  397  1  0.78905600  0.50089500  0.22073100  1
  C  398  1  0.83059300  0.61345800  0.17533100  1
  C  399  1  0.81986200  0.61833500  0.15541100  1
  C  400  1  0.82358300  0.59550600  0.18846900  1
  C  401  1  0.80113900  0.59236200  0.19329200  1
  C  402  1  0.79409600  0.57406000  0.20531400  1
  C  403  1  0.80928600  0.55837700  0.21266400  1
  C  404  1  0.83174800  0.56153300  0.20831500  1
  C  405  1  0.83879200  0.57988900  0.19634500  1
  C  414  1  0.77093800  0.50500700  0.23452500  1
  C  416  1  0.80371200  0.51857700  0.21253300  1
  C  420  1  0.10920200  0.63381100  0.17070700  1
  C  421  1  0.11686000  0.64725900  0.15356800  1
  C  422  1  0.08984100  0.63936400  0.18209600  1
  C  423  1  0.06946900  0.63925600  0.17116400  1
  C  424  1  0.05026800  0.64533600  0.18227400  1
  C  425  1  0.05119800  0.65223800  0.20425600  1
  C  426  1  0.07153900  0.65238500  0.21522600  1
  C  427  1  0.09068300  0.64573200  0.20431000  1
  C  434  1  0.00592700  0.68920000  0.22095900  1
  C  435  1  0.00148400  0.70333400  0.23870100  1
  C  437  1  0.02870900  0.68347000  0.21464200  1
  C  440  1  0.14354500  0.65558000  0.12433800  1
  C  442  1  0.13618000  0.64208000  0.14191100  1
  C  444  1  0.84876800  0.62640500  0.18148400  1
  C  446  1  0.82728400  0.63529200  0.14159200  1
  C  447  1  0.84570300  0.64768400  0.14801400  1
  C  448  1  0.85645400  0.64362200  0.16806800  1
  C  450  1  0.87486200  0.65634100  0.17445500  1
  C  452  1  0.89304500  0.65870700  0.16031600  1
  C  453  1  0.91179700  0.67017800  0.16712600  1
  C  454  1  0.91260700  0.67988500  0.18807900  1
  C  455  1  0.89427200  0.67819800  0.20195400  1
  C  456  1  0.87567800  0.66637400  0.19530900  1
  C  462  1  0.98061600  0.70873300  0.24475700  1
  C  463  1  0.96329000  0.69882800  0.23302200  1
  C  464  1  0.96717900  0.68488700  0.21500500  1
  C  465  1  0.98902900  0.68052600  0.20895300  1
  C  468  1  0.94861800  0.67407500  0.20359000  1
  C  472  1  0.33299300  0.82660200  0.14136600  1
  C  473  1  0.32058200  0.84500900  0.14778700  1
  C  474  1  0.32456300  0.85567300  0.16789600  1
  C  475  1  0.34171200  0.84794700  0.18136500  1
  C  476  1  0.35470500  0.82981700  0.17519200  1
  C  477  1  0.34990000  0.81913700  0.15522700  1
  C  482  1  0.31189900  0.87409800  0.17427500  1
  C  484  1  0.37264000  0.82284200  0.18837100  1
  C  485  1  0.30157800  0.87477200  0.19499000  1
  C  486  1  0.37586300  0.80040600  0.19315500  1
  C  487  1  0.39410700  0.79343100  0.20530600  1
  C  488  1  0.40965400  0.80868800  0.21280900  1
  C  489  1  0.40642600  0.83113900  0.20847700  1
  C  490  1  0.38812800  0.83811200  0.19638400  1
  C  496  1  0.48020700  0.75715500  0.24283700  1
  C  497  1  0.46315800  0.77078500  0.23515500  1
  C  498  1  0.46721400  0.78887800  0.22131400  1
  C  499  1  0.48896500  0.79275700  0.21454200  1
  C  502  1  0.44947900  0.80338500  0.21298100  1
  C  506  1  0.62314500  0.82004300  0.14815200  1
  C  507  1  0.60930800  0.82760000  0.16505600  1
  C  508  1  0.61503600  0.84688200  0.17643300  1
  C  509  1  0.58973400  0.81629300  0.17028200  1
  C  510  1  0.56930500  0.82709300  0.16908200  1
  C  511  1  0.54993400  0.81618300  0.17498500  1
  C  512  1  0.55066700  0.79447500  0.18270000  1
  C  513  1  0.57099100  0.78351300  0.18368600  1
  C  514  1  0.59032800  0.79425600  0.17730700  1
  C  523  1  0.50637000  0.77919000  0.22140000  1
  C  524  1  0.50174900  0.76151300  0.23554500  1
  C  525  1  0.52913900  0.78424400  0.21450900  1
  C  528  1  0.65574200  0.82423300  0.12452500  1
  C  530  1  0.63409200  0.85864900  0.17089200  1
  C  531  1  0.64747700  0.85098400  0.15370700  1
  C  532  1  0.64230700  0.83160400  0.14214600  1
  C  535  1  0.31000100  0.89247600  0.16033000  1
  C  536  1  0.29869800  0.91129500  0.16721700  1
  C  537  1  0.28870300  0.91197100  0.18804200  1
  C  538  1  0.28991300  0.89343800  0.20170000  1
  C  544  1  0.25938500  0.97976900  0.24452400  1
  C  545  1  0.26980600  0.96244600  0.23324900  1
  C  546  1  0.28387100  0.96630700  0.21532500  1
  C  547  1  0.28798600  0.98813100  0.20902000  1
  C  550  1  0.29476300  0.94771600  0.20405800  1
  C  553  1  0.63960900  0.87807800  0.18217100  1
  C  554  1  0.63931100  0.89840700  0.17116500  1
  C  555  1  0.64528000  0.91769300  0.18218900  1
  C  556  1  0.65222900  0.91689700  0.20416200  1
  C  557  1  0.65258100  0.89659600  0.21519800  1
  C  558  1  0.64604100  0.87736300  0.20437000  1
  C  564  1  0.70817500  0.98875000  0.24457900  1
  C  565  1  0.67957100  0.98039300  0.20907900  1
  C  566  1  0.68869800  0.96263200  0.22069800  1
  C  567  1  0.70306400  0.96705000  0.23825700  1
  C  570  1  0.68322500  0.93985200  0.21415900  1
  C  573  1  0.11707000  0.12130600  0.35148800  1
  C  577  1  0.13637400  0.10965200  0.35675100  1
  C  578  1  0.14377200  0.09202800  0.34331200  1
  C  579  1  0.12892700  0.07615700  0.33522100  1
  C  580  1  0.13628200  0.05841400  0.32255500  1
  C  581  1  0.15875200  0.05599400  0.31781300  1
  C  582  1  0.17360100  0.07188300  0.32541100  1
  C  583  1  0.16621200  0.08967100  0.33799600  1
  C  589  1  0.19739900  0.00288600  0.29502200  1
  C  593  1  0.16447100  0.01631100  0.31693800  1
  C  598  1  0.82714400  0.11050400  0.36447700  1
  C  599  1  0.84560300  0.11696300  0.35216700  1
  C  600  1  0.81615500  0.09062900  0.35966000  1
  C  601  1  0.82759200  0.07051200  0.35972400  1
  C  602  1  0.81689300  0.05094800  0.35405600  1
  C  603  1  0.79472600  0.05118300  0.34772000  1
  C  604  1  0.78316100  0.07118600  0.34781900  1
  C  605  1  0.79372400  0.09069200  0.35395000  1
  C  612  1  0.77821800  0.00712500  0.30918800  1
  C  613  1  0.76032800  0.00241300  0.29533800  1
  C  615  1  0.78319700  0.02988100  0.31618000  1
  C  620  1  0.10941500  0.13853900  0.36482200  1
  C  621  1  0.09007400  0.14993800  0.35919200  1
  C  622  1  0.06968700  0.13903100  0.35927200  1
  C  623  1  0.05049200  0.15018700  0.35325100  1
  C  624  1  0.05143200  0.17220000  0.34644500  1
  C  625  1  0.07179000  0.18313800  0.34630100  1
  C  626  1  0.09092900  0.17217200  0.35289300  1
  C  631  1  0.00593800  0.18926200  0.30988100  1
  C  632  1  0.00152500  0.20703200  0.29577000  1
  C  634  1  0.02871900  0.18275600  0.31542000  1
  C  639  1  0.49326700  0.22849300  0.25837000  1
  C  640  1  0.47439500  0.24057900  0.27045800  1
  C  643  1  0.85636100  0.13699200  0.35633400  1
  C  644  1  0.87477700  0.14342600  0.34363900  1
  C  646  1  0.84864800  0.15033500  0.37359600  1
  C  647  1  0.89292200  0.12925900  0.34114600  1
  C  648  1  0.91163700  0.13606200  0.32961300  1
  C  649  1  0.91245300  0.15704100  0.31996100  1
  C  650  1  0.89415600  0.17095000  0.32177900  1
  C  651  1  0.87560900  0.16431900  0.33368800  1
  C  656  1  0.98066300  0.21325600  0.29053400  1
  C  657  1  0.96332300  0.20166500  0.30058700  1
  C  658  1  0.96717500  0.18363000  0.31451300  1
  C  659  1  0.98901100  0.17740600  0.31870300  1
  C  662  1  0.97487800  0.23095400  0.27466900  1
  C  665  1  0.94860500  0.17236900  0.32547700  1
  C  668  1  0.99367600  0.24304200  0.26243600  1
  C  670  1  0.33263500  0.35697700  0.35798000  1
  C  671  1  0.35451900  0.32326500  0.36121400  1
  C  672  1  0.34957400  0.34317000  0.35048500  1
  C  676  1  0.37250700  0.31016400  0.35422800  1
  C  678  1  0.37571400  0.30535000  0.33179500  1
  C  679  1  0.39402200  0.29329900  0.32480800  1
  C  680  1  0.40964100  0.28591500  0.34004800  1
  C  681  1  0.40643200  0.29028000  0.36249700  1
  C  682  1  0.38807600  0.30227500  0.36948300  1
  C  687  1  0.48021500  0.25609500  0.28844200  1
  C  688  1  0.46316300  0.26376800  0.30207100  1
  C  689  1  0.46721100  0.27760500  0.32016900  1
  C  690  1  0.48895700  0.28438800  0.32405000  1
  C  693  1  0.44945900  0.28592300  0.33466500  1
  C  696  1  0.62329400  0.35090500  0.35083600  1
  C  697  1  0.60954400  0.33394900  0.35843600  1
  C  698  1  0.58990800  0.32870800  0.34724500  1
  C  699  1  0.56954300  0.32986000  0.35817400  1
  C  700  1  0.55011400  0.32393900  0.34738300  1
  C  701  1  0.55072100  0.31624100  0.32566300  1
  C  702  1  0.57098000  0.31529300  0.31457500  1
  C  703  1  0.59037200  0.32170900  0.32519500  1
  C  710  1  0.50636800  0.27753600  0.31048700  1
  C  711  1  0.50175600  0.26339000  0.29280800  1
  C  713  1  0.52913700  0.28443400  0.31554100  1
  C  717  1  0.64250700  0.35693300  0.36230400  1
  C  719  1  0.24062600  0.49265200  0.26966400  1
  C  720  1  0.22847300  0.47380200  0.25760100  1
  C  722  1  0.32789000  0.37688100  0.34703600  1
  C  723  1  0.32821000  0.39699000  0.35847400  1
  C  724  1  0.32254600  0.41658600  0.34783600  1
  C  725  1  0.31595500  0.41638000  0.32574300  1
  C  726  1  0.31581900  0.39638000  0.31417400  1
  C  727  1  0.32196700  0.37684100  0.32466500  1
  C  732  1  0.25606700  0.48679500  0.28770500  1
  C  733  1  0.28411000  0.47790200  0.32346100  1
  C  734  1  0.27738000  0.46055600  0.30977300  1
  C  735  1  0.26335600  0.46523700  0.29201800  1
  C  738  1  0.28431600  0.43779700  0.31479500  1
  C  741  1  0.65585800  0.37461100  0.35491000  1
  C  742  1  0.66379700  0.39055100  0.36976100  1
  C  743  1  0.67638700  0.40834900  0.36242200  1
  C  744  1  0.68119400  0.41074700  0.33996400  1
  C  745  1  0.67374700  0.39479200  0.32511200  1
  C  746  1  0.66122300  0.37695400  0.33248600  1
  C  751  1  0.71159700  0.48088300  0.28770400  1
  C  752  1  0.70396900  0.46387100  0.30141800  1
  C  753  1  0.69022500  0.46801200  0.31956100  1
  C  754  1  0.68354700  0.48977900  0.32345600  1
  C  757  1  0.72703100  0.47502100  0.26966100  1
  C  760  1  0.68176700  0.45037900  0.33408600  1
  C  763  1  0.73918600  0.49386900  0.25759400  1
  C  765  1  0.27743100  0.49967000  0.31956500  1
  C  767  1  0.32514100  0.61073900  0.36231700  1
  C  768  1  0.34435000  0.61676600  0.35084500  1
  C  769  1  0.31178300  0.59306700  0.35492300  1
  C  770  1  0.30383300  0.57713200  0.36977600  1
  C  771  1  0.29125500  0.55932800  0.36243200  1
  C  772  1  0.28644500  0.55693400  0.33997600  1
  C  773  1  0.29388900  0.57289200  0.32512500  1
  C  774  1  0.30641100  0.59072900  0.33249900  1
  C  781  1  0.26369300  0.50380900  0.30141800  1
  C  783  1  0.28588500  0.51730200  0.33409100  1
  C  786  1  0.61806300  0.62448700  0.35048500  1
  C  789  1  0.63501400  0.61069100  0.35796800  1
  C  790  1  0.63976300  0.59078900  0.34702100  1
  C  791  1  0.63944500  0.57067800  0.35845400  1
  C  792  1  0.64508800  0.55108000  0.34780800  1
  C  793  1  0.65169100  0.55129500  0.32571900  1
  C  794  1  0.65183800  0.57129800  0.31415600  1
  C  795  1  0.64569700  0.59083500  0.32465200  1
  C  800  1  0.69028200  0.50712500  0.30977000  1
  C  801  1  0.70430900  0.50244100  0.29201700  1
  C  803  1  0.68334100  0.52988200  0.31478500  1
  C  810  1  0.35810700  0.63372000  0.35844300  1
  C  811  1  0.37774000  0.63896000  0.34724500  1
  C  812  1  0.39810700  0.63779900  0.35816600  1
  C  813  1  0.41753200  0.64374300  0.34737400  1
  C  814  1  0.41692000  0.65142300  0.32565000  1
  C  815  1  0.39665900  0.65236700  0.31456700  1
  C  816  1  0.37726900  0.64595300  0.32519400  1
  C  821  1  0.47438000  0.73917500  0.25835700  1
  C  823  1  0.48743100  0.71155900  0.28841700  1
  C  824  1  0.47868700  0.68326400  0.32402200  1
  C  825  1  0.46127600  0.69011900  0.31046000  1
  C  826  1  0.46589000  0.70426700  0.29278400  1
  C  829  1  0.49325100  0.72708400  0.27044100  1
  C  830  1  0.43850700  0.68322400  0.31551600  1
  C  834  1  0.50043500  0.69004200  0.32014000  1
  C  835  1  0.61312000  0.64439600  0.36121100  1
  C  836  1  0.59513400  0.65749600  0.35422200  1
  C  837  1  0.59193200  0.66231300  0.33178900  1
  C  838  1  0.57362600  0.67436300  0.32479800  1
  C  839  1  0.55800300  0.68174500  0.34003500  1
  C  840  1  0.56121000  0.67738800  0.36248400  1
  C  841  1  0.57956000  0.66538600  0.36947300  1
  C  847  1  0.50448300  0.70388100  0.30204300  1
  C  851  1  0.51818300  0.68173200  0.33464500  1
  C  854  1  0.99361400  0.73668500  0.27468500  1
  C  855  1  0.97481600  0.72462400  0.26242900  1
  C  858  1  0.12205800  0.85071100  0.35215200  1
  C  859  1  0.11130100  0.83068000  0.35631300  1
  C  860  1  0.09288400  0.82425000  0.34362100  1
  C  861  1  0.07471400  0.83839600  0.34118500  1
  C  862  1  0.05598100  0.83157300  0.32969300  1
  C  863  1  0.05518100  0.81060900  0.32000700  1
  C  864  1  0.07351200  0.79673500  0.32174800  1
  C  865  1  0.09207500  0.80338100  0.33362300  1
  C  873  1  0.00433500  0.76593600  0.30064400  1
  C  874  1  0.00048700  0.78396900  0.31457500  1
  C  876  1  0.01905900  0.79522000  0.32554400  1
  C  879  1  0.11901500  0.81732700  0.37356500  1
  C  880  1  0.14051400  0.85716700  0.36447200  1
  C  882  1  0.85822200  0.82914000  0.36479100  1
  C  883  1  0.85056900  0.84638000  0.35146300  1
  C  884  1  0.83125900  0.85802400  0.35672200  1
  C  888  1  0.87756300  0.81774300  0.35915900  1
  C  889  1  0.89795000  0.82864900  0.35924400  1
  C  890  1  0.91714600  0.81749200  0.35322200  1
  C  891  1  0.91620700  0.79547600  0.34642600  1
  C  892  1  0.89584900  0.78453900  0.34628200  1
  C  893  1  0.87670900  0.79550400  0.35287500  1
  C  899  1  0.98783200  0.75436800  0.29056900  1
  C  900  1  0.97949000  0.79022300  0.31873600  1
  C  901  1  0.96172400  0.77837700  0.30990600  1
  C  902  1  0.96613200  0.76061000  0.29578900  1
  C  905  1  0.93894400  0.78490400  0.31542400  1
  C  909  1  0.17922800  0.99958000  0.30872900  1
  C  910  1  0.15150000  0.87704800  0.35966800  1
  C  911  1  0.14006000  0.89716200  0.35974500  1
  C  912  1  0.15075500  0.91673000  0.35408300  1
  C  913  1  0.17292000  0.91650100  0.34773900  1
  C  914  1  0.18448800  0.89650000  0.34783300  1
  C  915  1  0.17393500  0.87699200  0.35397800  1
  C  920  1  0.24338200  0.97400300  0.26210000  1
  C  922  1  0.21144100  0.98678300  0.28782700  1
  C  923  1  0.17548400  0.97784300  0.31560300  1
  C  924  1  0.18940000  0.96055400  0.30919100  1
  C  925  1  0.20728200  0.96526800  0.29533100  1
  C  928  1  0.22948500  0.99269600  0.27241100  1
  C  929  1  0.18442800  0.93779900  0.31618700  1
  C  933  1  0.72419700  0.99451600  0.26214000  1
  C  934  1  0.73810800  0.97582400  0.27243200  1
  C  937  1  0.82385500  0.87564400  0.34328100  1
  C  938  1  0.83869700  0.89151400  0.33518400  1
  C  939  1  0.83133700  0.90925800  0.32252000  1
  C  940  1  0.80886400  0.91168300  0.31779500  1
  C  941  1  0.79402000  0.89578500  0.32538500  1
  C  942  1  0.80141400  0.87799700  0.33796700  1
  C  948  1  0.75616700  0.98173700  0.28783300  1
  C  949  1  0.77020900  0.96479400  0.29502400  1
  C  950  1  0.78838700  0.96893800  0.30872100  1
  C  951  1  0.79213400  0.99067400  0.31559500  1
  C  954  1  0.80313900  0.95136600  0.31693300  1
  C  957  1  0.14786800  0.11562700  0.37596600  1
  C  960  1  0.81970200  0.12425600  0.38148400  1
  C  961  1  0.12112700  0.14403900  0.38392700  1
  C  965  1  0.14033200  0.13258100  0.38975800  1
  C  966  1  0.15161300  0.13782900  0.40935400  1
  C  967  1  0.14072600  0.13686700  0.42975100  1
  C  968  1  0.15160200  0.14283100  0.44912400  1
  C  969  1  0.17338200  0.15035400  0.44843500  1
  C  970  1  0.18442900  0.15109900  0.42814600  1
  C  971  1  0.17371900  0.14465100  0.40881200  1
  C  976  1  0.18890600  0.18926300  0.49251700  1
  C  977  1  0.20666000  0.20331900  0.49713400  1
  C  979  1  0.18395300  0.18220700  0.46977000  1
  C  986  1  0.83044900  0.14414000  0.38649600  1
  C  987  1  0.82338500  0.15724100  0.40447300  1
  C  988  1  0.80092300  0.16195800  0.40764700  1
  C  989  1  0.79383900  0.17399800  0.42592600  1
  C  990  1  0.80900300  0.18148800  0.44156900  1
  C  991  1  0.83148000  0.17723000  0.43839500  1
  C  992  1  0.83856400  0.16523700  0.42006500  1
  C  1000  1  0.77081400  0.20368100  0.49507100  1
  C  1002  1  0.80360500  0.18170300  0.48142400  1
  C  1005  1  0.78887900  0.18979300  0.49910800  1
  C  1006  1  0.32032600  0.35055700  0.37645300  1
  C  1007  1  0.32442900  0.33048800  0.38714700  1
  C  1008  1  0.34161300  0.31707800  0.37940300  1
  C  1009  1  0.31181900  0.32408400  0.40559900  1
  C  1010  1  0.30992400  0.33803200  0.42397700  1
  C  1011  1  0.29862300  0.33114100  0.44279700  1
  C  1012  1  0.28861300  0.31032300  0.44346300  1
  C  1013  1  0.28980500  0.29667400  0.42492500  1
  C  1014  1  0.30149300  0.30337400  0.40626800  1
  C  1023  1  0.26927600  0.26537200  0.49408500  1
  C  1024  1  0.28341000  0.28325400  0.49788700  1
  C  1026  1  0.29444700  0.29434400  0.47927100  1
  C  1030  1  0.61542100  0.32252500  0.37764600  1
  C  1033  1  0.63453800  0.32807800  0.38930600  1
  C  1034  1  0.64782600  0.34532600  0.38161700  1
  C  1035  1  0.64019500  0.31677200  0.40868100  1
  C  1036  1  0.63991500  0.32772100  0.42904100  1
  C  1037  1  0.64599000  0.31666900  0.44827500  1
  C  1038  1  0.65302400  0.29472500  0.44740000  1
  C  1039  1  0.65336600  0.28374900  0.42706500  1
  C  1040  1  0.64673900  0.29460900  0.40788100  1
  C  1047  1  0.68948200  0.27823300  0.49316000  1
  C  1048  1  0.70391200  0.26071500  0.49752900  1
  C  1050  1  0.68404000  0.28486400  0.47039700  1
  C  1055  1  0.31983100  0.62234400  0.38163300  1
  C  1060  1  0.64733000  0.61711500  0.37643500  1
  C  1065  1  0.33312400  0.63958900  0.38932300  1
  C  1066  1  0.35223800  0.64514000  0.37765600  1
  C  1067  1  0.32747400  0.65089300  0.40869900  1
  C  1068  1  0.32774900  0.63994000  0.42905700  1
  C  1069  1  0.32166400  0.65098600  0.44829100  1
  C  1070  1  0.31462200  0.67292700  0.44741800  1
  C  1071  1  0.31428500  0.68390700  0.42708400  1
  C  1072  1  0.32093900  0.67305900  0.40790200  1
  C  1079  1  0.27811500  0.68938100  0.49315000  1
  C  1080  1  0.26368700  0.70690300  0.49751900  1
  C  1082  1  0.28357800  0.68276600  0.47038900  1
  C  1087  1  0.62602300  0.65058000  0.37940100  1
  C  1088  1  0.64321300  0.63717400  0.38714300  1
  C  1089  1  0.65582000  0.64357800  0.40559700  1
  C  1090  1  0.65772300  0.62962300  0.42396900  1
  C  1091  1  0.66904200  0.63650100  0.44278300  1
  C  1092  1  0.67904900  0.65731900  0.44345700  1
  C  1093  1  0.67781700  0.67099300  0.42493600  1
  C  1094  1  0.66613200  0.66429400  0.40627800  1
  C  1100  1  0.69839300  0.70225800  0.49408000  1
  C  1101  1  0.68426100  0.68437300  0.49788700  1
  C  1105  1  0.67322500  0.67328000  0.47927300  1
  C  1111  1  0.13721500  0.82351500  0.38646800  1
  C  1112  1  0.14795700  0.84340500  0.38146900  1
  C  1113  1  0.14427100  0.81040900  0.40444400  1
  C  1114  1  0.16673200  0.80568600  0.40762300  1
  C  1115  1  0.17380900  0.79363600  0.42589600  1
  C  1116  1  0.15863700  0.78614700  0.44153300  1
  C  1117  1  0.13616100  0.79040800  0.43835200  1
  C  1118  1  0.12908700  0.80241500  0.42002900  1
  C  1124  1  0.19680200  0.76395000  0.49504800  1
  C  1126  1  0.16402100  0.78593600  0.48139200  1
  C  1129  1  0.17873900  0.77784200  0.49907800  1
  C  1130  1  0.81976400  0.85204400  0.37593800  1
  C  1131  1  0.82730400  0.83509100  0.38972700  1
  C  1132  1  0.84651000  0.82363400  0.38389200  1
  C  1133  1  0.81602400  0.82983500  0.40932100  1
  C  1134  1  0.82691000  0.83079200  0.42972000  1
  C  1135  1  0.81603500  0.82482200  0.44909200  1
  C  1136  1  0.79425800  0.81729800  0.44839900  1
  C  1137  1  0.78321000  0.81655300  0.42811200  1
  C  1138  1  0.79392200  0.82299900  0.40877800  1
  C  1147  1  0.77872400  0.77840200  0.49249300  1
  C  1148  1  0.76097100  0.76434600  0.49711600  1
  C  1150  1  0.78367500  0.78545300  0.46974300  1
  C  1155  1  0.16675800  0.16197200  0.62302300  1
  C  1156  1  0.17384300  0.17401600  0.60474800  1
  C  1157  1  0.15867600  0.18152300  0.58911500  1
  C  1158  1  0.13619700  0.17727900  0.59229700  1
  C  1159  1  0.12911400  0.16527400  0.61062000  1
  C  1163  1  0.21081500  0.21092100  0.51860800  1
  C  1164  1  0.19685100  0.20369600  0.53559600  1
  C  1165  1  0.17878100  0.18981100  0.53157000  1
  C  1166  1  0.17511100  0.18274200  0.50987500  1
  C  1169  1  0.22877000  0.22647200  0.52444100  1
  C  1172  1  0.16405400  0.18173500  0.54925600  1
  C  1175  1  0.24269100  0.23669500  0.50571900  1
  C  1176  1  0.73889300  0.22646300  0.50621500  1
  C  1177  1  0.72497100  0.23669200  0.52493200  1
  C  1180  1  0.81601100  0.13783400  0.62133800  1
  C  1181  1  0.82690100  0.13687200  0.60094200  1
  C  1182  1  0.81602900  0.14283400  0.58156600  1
  C  1183  1  0.79424600  0.15034500  0.58224800  1
  C  1184  1  0.78319700  0.15109900  0.60253600  1
  C  1185  1  0.79391200  0.14467700  0.62187500  1
  C  1191  1  0.75684700  0.21091600  0.51205400  1
  C  1192  1  0.79254000  0.18272400  0.52080400  1
  C  1193  1  0.77874000  0.18925000  0.53815500  1
  C  1194  1  0.76099000  0.20331100  0.53353000  1
  C  1197  1  0.78368300  0.18219500  0.56090500  1
  C  1200  1  0.32774900  0.32771800  0.60161500  1
  C  1201  1  0.32169200  0.31667100  0.58237300  1
  C  1202  1  0.31464500  0.29473200  0.58323800  1
  C  1203  1  0.31429100  0.28374900  0.60357000  1
  C  1204  1  0.32091800  0.29459800  0.62276000  1
  C  1210  1  0.25871600  0.25427000  0.51143600  1
  C  1211  1  0.28743800  0.28970600  0.51968700  1
  C  1212  1  0.27818200  0.27824300  0.53748100  1
  C  1213  1  0.26375400  0.26072200  0.53311600  1
  C  1216  1  0.28362700  0.28487400  0.56024200  1
  C  1219  1  0.32746100  0.31676100  0.62197000  1
  C  1220  1  0.65770400  0.33801100  0.60666100  1
  C  1221  1  0.66902100  0.33113400  0.58784700  1
  C  1222  1  0.67904100  0.31032100  0.58717600  1
  C  1223  1  0.67783000  0.29665800  0.60570500  1
  C  1224  1  0.66612300  0.30334500  0.62435500  1
  C  1230  1  0.70894900  0.25427000  0.51921000  1
  C  1231  1  0.69839100  0.26537800  0.53656100  1
  C  1232  1  0.68424900  0.28325300  0.53275300  1
  C  1233  1  0.68020900  0.28968800  0.51095300  1
  C  1236  1  0.67321100  0.29434600  0.55136700  1
  C  1241  1  0.22871500  0.74116300  0.50620000  1
  C  1242  1  0.24262400  0.73092300  0.52492000  1
  C  1245  1  0.30988000  0.62960500  0.60666700  1
  C  1246  1  0.29855100  0.63648000  0.58785700  1
  C  1247  1  0.28855100  0.65730300  0.58718100  1
  C  1248  1  0.28981400  0.67098800  0.60569000  1
  C  1249  1  0.30151400  0.66429400  0.62434200  1
  C  1254  1  0.25863900  0.71333900  0.51920100  1
  C  1255  1  0.26918100  0.70221800  0.53655200  1
  C  1256  1  0.28332100  0.68434200  0.53274400  1
  C  1257  1  0.28737200  0.67791700  0.51094300  1
  C  1260  1  0.29436200  0.67325000  0.55135800  1
  C  1263  1  0.63989800  0.63992600  0.60159400  1
  C  1264  1  0.64597200  0.65097300  0.58235600  1
  C  1265  1  0.65299900  0.67291800  0.58322700  1
  C  1266  1  0.65333500  0.68390200  0.60355900  1
  C  1267  1  0.64669000  0.67305100  0.62274200  1
  C  1272  1  0.73887400  0.74118900  0.52443000  1
  C  1274  1  0.70894000  0.71337300  0.51143100  1
  C  1275  1  0.68022400  0.67793600  0.51968800  1
  C  1276  1  0.68947900  0.68940400  0.53748100  1
  C  1277  1  0.70390300  0.70692700  0.53311200  1
  C  1280  1  0.72495800  0.73095500  0.50571100  1
  C  1281  1  0.68402800  0.68277900  0.56024200  1
  C  1284  1  0.64016800  0.65088100  0.62195000  1
  C  1287  1  0.15159400  0.82983900  0.62129200  1
  C  1288  1  0.14071000  0.83080900  0.60089300  1
  C  1289  1  0.15158000  0.82482400  0.58152300  1
  C  1290  1  0.17335900  0.81729900  0.58221200  1
  C  1291  1  0.18440600  0.81655500  0.60250000  1
  C  1292  1  0.17369100  0.82299100  0.62183700  1
  C  1297  1  0.21076200  0.75671500  0.51203400  1
  C  1298  1  0.17507500  0.78491400  0.52077300  1
  C  1299  1  0.18887000  0.77838500  0.53812900  1
  C  1300  1  0.20661800  0.76432300  0.53350800  1
  C  1303  1  0.18392200  0.78544500  0.56087600  1
  C  1306  1  0.80090400  0.80567100  0.62299700  1
  C  1307  1  0.79382200  0.79362400  0.60472300  1
  C  1308  1  0.80899000  0.78613700  0.58908100  1
  C  1309  1  0.83146600  0.79039600  0.59225800  1
  C  1310  1  0.83854600  0.80239600  0.61058400  1
  C  1316  1  0.75682500  0.75674400  0.51859200  1
  C  1317  1  0.77079300  0.76397300  0.53557500  1
  C  1318  1  0.78886500  0.77785400  0.53154000  1
  C  1319  1  0.79252300  0.78492500  0.50984500  1
  C  1322  1  0.80359200  0.78593900  0.54922300  1
  C  1325  1  0.12205600  0.11693300  0.67846000  1
  C  1329  1  0.14051900  0.11048300  0.66614800  1
  C  1330  1  0.15150300  0.09060100  0.67095000  1
  C  1331  1  0.14006200  0.07048700  0.67088100  1
  C  1332  1  0.15075600  0.05091900  0.67654700  1
  C  1333  1  0.17292200  0.05114800  0.68288900  1
  C  1334  1  0.18449000  0.07114900  0.68279400  1
  C  1335  1  0.17394000  0.09065500  0.67664000  1
  C  1342  1  0.18940200  0.00710600  0.72145200  1
  C  1343  1  0.20729000  0.00239400  0.73530300  1
  C  1345  1  0.18443100  0.02986000  0.71444600  1
  C  1348  1  0.14796800  0.12425000  0.64915700  1
  C  1350  1  0.85054900  0.12128500  0.67919800  1
  C  1351  1  0.83124100  0.10963800  0.67393300  1
  C  1352  1  0.81973500  0.11563600  0.65473100  1
  C  1353  1  0.82384700  0.09200200  0.68735900  1
  C  1354  1  0.83869500  0.07612400  0.69543100  1
  C  1355  1  0.83134400  0.05837600  0.70809300  1
  C  1356  1  0.80887500  0.05595500  0.71284400  1
  C  1357  1  0.79402500  0.07185100  0.70526600  1
  C  1358  1  0.80140900  0.08964200  0.69268100  1
  C  1367  1  0.77022200  0.00284900  0.73561700  1
  C  1369  1  0.80315200  0.01627100  0.71370500  1
  C  1373  1  0.11130900  0.13697300  0.67431100  1
  C  1374  1  0.11903100  0.15033300  0.65706600  1
  C  1375  1  0.09289100  0.14340200  0.68700000  1
  C  1376  1  0.07471900  0.12925900  0.68943000  1
  C  1377  1  0.05598400  0.13608300  0.70091900  1
  C  1378  1  0.05519300  0.15703700  0.71062700  1
  C  1379  1  0.07352400  0.17091100  0.70888700  1
  C  1380  1  0.09208700  0.16426600  0.69701000  1
  C  1387  1  0.00435300  0.20172900  0.72997300  1
  C  1388  1  0.00050700  0.18369900  0.71603800  1
  C  1390  1  0.01908300  0.17245000  0.70507300  1
  C  1394  1  0.14429400  0.15725700  0.62619700  1
  C  1396  1  0.13723000  0.14414300  0.64416400  1
  C  1398  1  0.85820500  0.13852300  0.66587200  1
  C  1399  1  0.82728600  0.13258100  0.64093600  1
  C  1400  1  0.84649200  0.14403500  0.64677300  1
  C  1403  1  0.87755000  0.14991500  0.67150300  1
  C  1404  1  0.89793500  0.13900600  0.67140300  1
  C  1405  1  0.91713600  0.15015700  0.67742100  1
  C  1406  1  0.91620500  0.17217100  0.68422200  1
  C  1407  1  0.89584800  0.18311100  0.68438200  1
  C  1408  1  0.87670100  0.17214800  0.67780700  1
  C  1413  1  0.98784800  0.21329200  0.74005000  1
  C  1414  1  0.97951100  0.17744900  0.71186900  1
  C  1415  1  0.96174200  0.18928000  0.72071600  1
  C  1416  1  0.96615000  0.20704300  0.73483500  1
  C  1419  1  0.93896300  0.18274200  0.71520800  1
  C  1423  1  0.33310400  0.32806200  0.64135100  1
  C  1424  1  0.31980500  0.34529800  0.64904700  1
  C  1425  1  0.32512000  0.35691000  0.66835800  1
  C  1426  1  0.34432200  0.35087400  0.67983700  1
  C  1427  1  0.35808400  0.33392900  0.67223300  1
  C  1428  1  0.35222000  0.32251400  0.65301700  1
  C  1434  1  0.37772300  0.32869700  0.68342700  1
  C  1435  1  0.39808800  0.32985700  0.67249900  1
  C  1436  1  0.41751900  0.32394200  0.68329300  1
  C  1437  1  0.41691400  0.31625900  0.70501700  1
  C  1438  1  0.39665400  0.31530000  0.71610200  1
  C  1439  1  0.37725900  0.32170200  0.70547700  1
  C  1445  1  0.48741900  0.25608800  0.74220300  1
  C  1446  1  0.47867000  0.28439200  0.70660400  1
  C  1447  1  0.46126500  0.27753900  0.72017100  1
  C  1448  1  0.46588000  0.26338700  0.73784400  1
  C  1450  1  0.43849500  0.28444200  0.71512300  1
  C  1454  1  0.50041900  0.27760200  0.71047500  1
  C  1455  1  0.61311400  0.32325100  0.66942700  1
  C  1456  1  0.61807800  0.34314700  0.68016800  1
  C  1457  1  0.59511700  0.31016100  0.67640800  1
  C  1458  1  0.59191400  0.30533700  0.69884100  1
  C  1459  1  0.57360800  0.29328200  0.70582500  1
  C  1460  1  0.55798400  0.28591000  0.69058300  1
  C  1461  1  0.56118700  0.29028500  0.66813800  1
  C  1462  1  0.57954100  0.30228900  0.66115500  1
  C  1471  1  0.50447000  0.26376000  0.72856900  1
  C  1473  1  0.51816700  0.28592100  0.69597600  1
  C  1476  1  0.62601700  0.31706000  0.65123600  1
  C  1477  1  0.65580900  0.32406000  0.62503600  1
  C  1479  1  0.63501900  0.35694800  0.67267000  1
  C  1480  1  0.64733000  0.35052300  0.65419900  1
  C  1481  1  0.64320800  0.33046400  0.64349400  1
  C  1484  1  0.31177100  0.37459300  0.67574200  1
  C  1485  1  0.30384400  0.39053400  0.66088800  1
  C  1486  1  0.29125500  0.40833500  0.66821900  1
  C  1487  1  0.28643800  0.41073700  0.69067500  1
  C  1488  1  0.29387500  0.39478000  0.70553100  1
  C  1489  1  0.30639700  0.37694000  0.69816500  1
  C  1495  1  0.25603900  0.48087800  0.74292700  1
  C  1496  1  0.26366700  0.46386400  0.72921400  1
  C  1497  1  0.27741100  0.46800400  0.71107200  1
  C  1498  1  0.28409000  0.48977300  0.70717500  1
  C  1501  1  0.28587400  0.45036900  0.69655200  1
  C  1504  1  0.63977400  0.37685100  0.68361000  1
  C  1505  1  0.63945300  0.39696100  0.67217400  1
  C  1506  1  0.64512000  0.41655700  0.68281000  1
  C  1507  1  0.65171200  0.41634900  0.70490300  1
  C  1508  1  0.65185600  0.39634900  0.71647000  1
  C  1509  1  0.64571300  0.37681000  0.70597800  1
  C  1515  1  0.71157200  0.48678200  0.74295700  1
  C  1516  1  0.68352400  0.47788900  0.70720300  1
  C  1517  1  0.69026400  0.46054100  0.72088600  1
  C  1518  1  0.70428900  0.46522200  0.73863900  1
  C  1521  1  0.68333800  0.43778100  0.71585800  1
  C  1524  1  0.33262000  0.61068500  0.67265600  1
  C  1525  1  0.32030300  0.61711000  0.65419000  1
  C  1526  1  0.32786800  0.59078600  0.68360400  1
  C  1527  1  0.32818400  0.57067300  0.67217100  1
  C  1528  1  0.32252900  0.55107900  0.68281700  1
  C  1529  1  0.31593700  0.55129300  0.70490800  1
  C  1530  1  0.31578700  0.57129600  0.71646800  1
  C  1531  1  0.32193200  0.59083200  0.70597100  1
  C  1540  1  0.27735200  0.50711900  0.72086000  1
  C  1541  1  0.26332700  0.50243600  0.73861500  1
  C  1543  1  0.28429000  0.52987700  0.71584200  1
  C  1546  1  0.34957400  0.62447900  0.68013700  1
  C  1547  1  0.62328100  0.61675300  0.67980100  1
  C  1549  1  0.69019500  0.49965800  0.71110700  1
  C  1550  1  0.64781100  0.62233700  0.64902400  1
  C  1551  1  0.64249500  0.61072900  0.66833700  1
  C  1552  1  0.65585500  0.59306000  0.67573400  1
  C  1553  1  0.66380800  0.57712400  0.66088800  1
  C  1554  1  0.67638700  0.55932300  0.66823600  1
  C  1555  1  0.68118100  0.55692400  0.69069600  1
  C  1556  1  0.67373300  0.57288500  0.70554200  1
  C  1557  1  0.66121600  0.59072400  0.69816200  1
  C  1565  1  0.70393900  0.50379600  0.72925000  1
  C  1567  1  0.68174400  0.51729200  0.69657800  1
  C  1570  1  0.31181200  0.64357100  0.62502800  1
  C  1572  1  0.32442300  0.63716700  0.64348000  1
  C  1573  1  0.34161600  0.65057200  0.65121700  1
  C  1574  1  0.35452000  0.64438600  0.66940900  1
  C  1577  1  0.37250900  0.65748600  0.67639700  1
  C  1578  1  0.37570600  0.66230600  0.69882900  1
  C  1579  1  0.39400900  0.67436000  0.70582200  1
  C  1580  1  0.40963800  0.68173400  0.69058700  1
  C  1581  1  0.40643700  0.67736900  0.66813900  1
  C  1582  1  0.38807700  0.66537900  0.66114600  1
  C  1588  1  0.48020000  0.71155700  0.74221300  1
  C  1589  1  0.46314900  0.70387400  0.72858700  1
  C  1590  1  0.46720200  0.69003600  0.71049200  1
  C  1591  1  0.48895100  0.68325400  0.70661200  1
  C  1594  1  0.44945400  0.68171400  0.69599100  1
  C  1598  1  0.60953200  0.63371300  0.67220700  1
  C  1599  1  0.61540300  0.64513200  0.65299400  1
  C  1600  1  0.58989800  0.63895700  0.68340400  1
  C  1601  1  0.56953000  0.63779700  0.67248300  1
  C  1602  1  0.55010400  0.64371800  0.68328100  1
  C  1603  1  0.55071700  0.65141300  0.70500100  1
  C  1604  1  0.57098000  0.65236500  0.71608100  1
  C  1605  1  0.59037200  0.64596600  0.70544900  1
  C  1612  1  0.50636000  0.69011300  0.72017700  1
  C  1613  1  0.50174300  0.70426500  0.73785100  1
  C  1614  1  0.52912900  0.68321800  0.71512700  1
  C  1619  1  0.63451700  0.63957700  0.64132800  1
  C  1621  1  0.10939700  0.82913700  0.66582200  1
  C  1622  1  0.11705600  0.84636700  0.67915800  1
  C  1623  1  0.12110800  0.82363600  0.64671900  1
  C  1624  1  0.09005600  0.81773800  0.67145400  1
  C  1625  1  0.06966900  0.82864400  0.67136900  1
  C  1626  1  0.05047100  0.81748600  0.67737800  1
  C  1627  1  0.05141200  0.79547600  0.68419300  1
  C  1628  1  0.07177100  0.78453900  0.68434200  1
  C  1629  1  0.09091100  0.79550400  0.67775300  1
  C  1638  1  0.00591500  0.77840300  0.72074800  1
  C  1639  1  0.00150500  0.76063300  0.73485800  1
  C  1641  1  0.02869500  0.78491700  0.71521300  1
  C  1645  1  0.13636100  0.85801900  0.67389700  1
  C  1646  1  0.14785400  0.85204300  0.65468100  1
  C  1647  1  0.14031500  0.83509100  0.64088800  1
  C  1650  1  0.82336600  0.81039500  0.62617100  1
  C  1652  1  0.82711600  0.85713900  0.66615600  1
  C  1653  1  0.84556100  0.85067300  0.67848600  1
  C  1654  1  0.85633200  0.83065200  0.67431200  1
  C  1655  1  0.84862200  0.81730400  0.65705300  1
  C  1656  1  0.83042400  0.82349700  0.64414900  1
  C  1657  1  0.81968700  0.84338900  0.64914200  1
  C  1661  1  0.87474900  0.82422500  0.68700700  1
  C  1664  1  0.89289600  0.83839200  0.68948400  1
  C  1665  1  0.91161600  0.83159200  0.70101200  1
  C  1666  1  0.91243400  0.81061900  0.71067600  1
  C  1667  1  0.89413300  0.79671200  0.70887500  1
  C  1668  1  0.87558300  0.80333800  0.69696900  1
  C  1674  1  0.98064400  0.75440000  0.74008900  1
  C  1675  1  0.96330200  0.76598700  0.73003500  1
  C  1676  1  0.96715200  0.78402300  0.71611200  1
  C  1677  1  0.98898700  0.79025500  0.71192500  1
  C  1680  1  0.94858100  0.79528500  0.70515100  1
  C  1684  1  0.14376400  0.87563900  0.68733700  1
  C  1685  1  0.12892100  0.89150900  0.69543300  1
  C  1686  1  0.13627800  0.90924500  0.70810900  1
  C  1687  1  0.15875100  0.91166800  0.71284100  1
  C  1688  1  0.17359600  0.89578000  0.70523600  1
  C  1689  1  0.16620500  0.87799300  0.69265100  1
  C  1694  1  0.21144300  0.98172100  0.74282000  1
  C  1695  1  0.19739600  0.96477900  0.73563700  1
  C  1696  1  0.17922000  0.96892300  0.72193500  1
  C  1697  1  0.17548100  0.99065600  0.71505100  1
  C  1700  1  0.16446800  0.95135100  0.71372300  1
  C  1704  1  0.78839800  0.99954000  0.72192000  1
  C  1705  1  0.81612900  0.87701800  0.67096100  1
  C  1706  1  0.82756900  0.89713100  0.67089900  1
  C  1707  1  0.81687000  0.91670100  0.67655200  1
  C  1708  1  0.79470600  0.91646700  0.68289900  1
  C  1709  1  0.78313800  0.89646700  0.68279700  1
  C  1710  1  0.79369500  0.87695900  0.67666000  1
  C  1716  1  0.75617200  0.98674700  0.74280500  1
  C  1717  1  0.79213700  0.97780400  0.71504000  1
  C  1718  1  0.77821500  0.96051800  0.72144400  1
  C  1719  1  0.76032800  0.96523400  0.73529500  1
  C  1722  1  0.78318700  0.93776300  0.71444600  1
  C  1727  1  0.32457600  0.11197900  0.86276900  1
  C  1728  1  0.34171100  0.11971500  0.84929000  1
  C  1729  1  0.31191400  0.09355500  0.85638500  1
  C  1730  1  0.31007000  0.07514900  0.87030400  1
  C  1731  1  0.29881400  0.05631300  0.86338300  1
  C  1732  1  0.28876800  0.05566800  0.84258100  1
  C  1733  1  0.28989100  0.07424300  0.82897400  1
  C  1734  1  0.30154200  0.09291200  0.83569700  1
  C  1741  1  0.26990100  0.00522600  0.79730200  1
  C  1742  1  0.28397200  0.00136800  0.81522100  1
  C  1744  1  0.29486600  0.01996400  0.82648200  1
  C  1748  1  0.61504900  0.12078200  0.85419100  1
  C  1751  1  0.63411000  0.10902400  0.85973800  1
  C  1752  1  0.63963700  0.08959400  0.84846200  1
  C  1753  1  0.63932900  0.06926500  0.85946900  1
  C  1754  1  0.64530400  0.04998000  0.84845000  1
  C  1755  1  0.65226200  0.05077300  0.82647900  1
  C  1756  1  0.65262000  0.07107500  0.81544200  1
  C  1757  1  0.64609600  0.09031000  0.82627300  1
  C  1762  1  0.68871600  0.00502400  0.80994800  1
  C  1763  1  0.70308400  0.00060400  0.79239000  1
  C  1765  1  0.68325000  0.02780500  0.81649000  1
  C  1770  1  0.35470000  0.13784800  0.85546100  1
  C  1772  1  0.37262700  0.14482700  0.84227400  1
  C  1773  1  0.37584800  0.16726500  0.83749300  1
  C  1774  1  0.39409500  0.17424200  0.82534500  1
  C  1775  1  0.40963400  0.15898400  0.81782700  1
  C  1776  1  0.40640100  0.13653200  0.82215000  1
  C  1777  1  0.38811300  0.12955800  0.83425400  1
  C  1782  1  0.48019500  0.21049500  0.78778500  1
  C  1783  1  0.46314600  0.19686800  0.79546500  1
  C  1784  1  0.46719700  0.17877400  0.80930500  1
  C  1785  1  0.48894900  0.17488700  0.81607300  1
  C  1788  1  0.47437200  0.22847700  0.77226600  1
  C  1791  1  0.44945900  0.16427100  0.81764100  1
  C  1794  1  0.49324200  0.24056300  0.76017700  1
  C  1796  1  0.60931100  0.14006100  0.86556700  1
  C  1797  1  0.58973300  0.15136000  0.86033700  1
  C  1798  1  0.56930800  0.14055100  0.86153300  1
  C  1799  1  0.54993400  0.15144700  0.85561500  1
  C  1800  1  0.55065800  0.17315900  0.84790700  1
  C  1801  1  0.57097800  0.18413100  0.84692700  1
  C  1802  1  0.59031800  0.17339900  0.85331800  1
  C  1807  1  0.50635700  0.18845200  0.80921500  1
  C  1808  1  0.50173800  0.20613200  0.79507400  1
  C  1810  1  0.52912600  0.18339100  0.81610300  1
  C  1815  1  0.99362900  0.23097300  0.75593600  1
  C  1816  1  0.97482700  0.24303000  0.76819600  1
  C  1818  1  0.10920700  0.33383700  0.85994100  1
  C  1819  1  0.12092900  0.35296000  0.85453200  1
  C  1820  1  0.08984900  0.32828100  0.84855200  1
  C  1821  1  0.06947600  0.32838600  0.85948200  1
  C  1822  1  0.05027700  0.32229800  0.84837300  1
  C  1823  1  0.05120600  0.31540500  0.82638700  1
  C  1824  1  0.07154800  0.31526100  0.81542000  1
  C  1825  1  0.09069200  0.32191300  0.82633800  1
  C  1832  1  0.00593200  0.27845400  0.80967300  1
  C  1833  1  0.00149300  0.26431900  0.79192700  1
  C  1835  1  0.02871400  0.28418100  0.81599600  1
  C  1838  1  0.14015300  0.35870300  0.86600400  1
  C  1841  1  0.85645600  0.32403000  0.86256300  1
  C  1842  1  0.84876600  0.34124400  0.84914900  1
  C  1843  1  0.83059100  0.35419100  0.85530400  1
  C  1845  1  0.87486200  0.31130800  0.85617400  1
  C  1848  1  0.82358000  0.37214400  0.84216600  1
  C  1850  1  0.89304200  0.30893000  0.87031500  1
  C  1851  1  0.91179700  0.29747200  0.86349600  1
  C  1852  1  0.91260900  0.28777500  0.84253700  1
  C  1853  1  0.89426200  0.28944200  0.82867600  1
  C  1854  1  0.87567500  0.30127500  0.83532000  1
  C  1859  1  0.98062600  0.25892000  0.78586700  1
  C  1860  1  0.96329800  0.26882500  0.79760300  1
  C  1861  1  0.96718300  0.28276900  0.81561800  1
  C  1862  1  0.98903300  0.28712900  0.82167400  1
  C  1865  1  0.94862000  0.29358300  0.82702900  1
  C  1869  1  0.15143200  0.37832900  0.86089800  1
  C  1870  1  0.14055500  0.39872000  0.86205100  1
  C  1871  1  0.15143700  0.41813600  0.85624800  1
  C  1872  1  0.17321000  0.41749300  0.84870200  1
  C  1873  1  0.18425100  0.39721000  0.84777600  1
  C  1874  1  0.17353100  0.37782600  0.85405600  1
  C  1879  1  0.24060500  0.47501800  0.76097100  1
  C  1881  1  0.21047300  0.48801200  0.78855000  1
  C  1882  1  0.17483000  0.47915100  0.81676400  1
  C  1883  1  0.18853600  0.46180400  0.81003100  1
  C  1884  1  0.20623300  0.46647700  0.79592900  1
  C  1887  1  0.22845100  0.49386600  0.77303700  1
  C  1888  1  0.18357000  0.43902300  0.81694700  1
  C  1892  1  0.72701600  0.49263900  0.76099500  1
  C  1893  1  0.73917700  0.47378900  0.77305200  1
  C  1896  1  0.80113600  0.37529200  0.83735200  1
  C  1897  1  0.79409100  0.39359400  0.82533000  1
  C  1898  1  0.80928000  0.40927500  0.81797600  1
  C  1899  1  0.83174100  0.40612000  0.82232600  1
  C  1900  1  0.83878800  0.38775900  0.83428500  1
  C  1906  1  0.75716200  0.47964200  0.78855700  1
  C  1907  1  0.77093200  0.46264700  0.79611400  1
  C  1908  1  0.78905100  0.46675700  0.80990700  1
  C  1909  1  0.79281000  0.48850300  0.81676700  1
  C  1912  1  0.80371000  0.44907700  0.81810000  1
  C  1917  1  0.17859000  0.50089700  0.80990800  1
  C  1919  1  0.13706000  0.61346400  0.85530200  1
  C  1920  1  0.14407000  0.59550600  0.84217100  1
  C  1921  1  0.16651300  0.59236000  0.83735100  1
  C  1922  1  0.17355500  0.57406000  0.82532200  1
  C  1923  1  0.15836200  0.55837900  0.81797300  1
  C  1924  1  0.13590200  0.56153200  0.82233000  1
  C  1925  1  0.12886000  0.57988600  0.83430100  1
  C  1930  1  0.19670700  0.50500700  0.79611300  1
  C  1934  1  0.16392900  0.51857700  0.81809700  1
  C  1940  1  0.82745600  0.60897600  0.86598300  1
  C  1941  1  0.84667700  0.61472400  0.85450900  1
  C  1942  1  0.81618400  0.58934600  0.86088000  1
  C  1943  1  0.82707000  0.56895800  0.86203300  1
  C  1944  1  0.81619400  0.54953600  0.85623800  1
  C  1945  1  0.79441600  0.55016700  0.84871000  1
  C  1946  1  0.78336900  0.57044700  0.84777400  1
  C  1947  1  0.79408600  0.58983500  0.85403400  1
  C  1954  1  0.77910100  0.50584900  0.81003900  1
  C  1955  1  0.76140100  0.50117600  0.79594100  1
  C  1956  1  0.78406400  0.52863100  0.81695500  1
  C  1960  1  0.11888500  0.62640800  0.84913900  1
  C  1961  1  0.11118700  0.64361800  0.86255300  1
  C  1962  1  0.09277100  0.65632300  0.85616300  1
  C  1963  1  0.07456600  0.65864000  0.87028100  1
  C  1964  1  0.05580800  0.67009100  0.86346300  1
  C  1965  1  0.05501400  0.67983900  0.84252700  1
  C  1966  1  0.07337700  0.67821500  0.82868100  1
  C  1967  1  0.09196700  0.66638200  0.83532200  1
  C  1973  1  0.00434900  0.69876800  0.79754600  1
  C  1974  1  0.00046400  0.68482000  0.81555800  1
  C  1978  1  0.01902900  0.67400500  0.82696100  1
  C  1981  1  0.49324400  0.73917400  0.77227400  1
  C  1982  1  0.47437700  0.72707900  0.76019000  1
  C  1988  1  0.85839800  0.63384600  0.85992100  1
  C  1989  1  0.87775900  0.63940400  0.84853700  1
  C  1990  1  0.89813200  0.63928400  0.85947100  1
  C  1991  1  0.91733300  0.64537600  0.84836700  1
  C  1992  1  0.91641000  0.65226700  0.82638100  1
  C  1993  1  0.89606900  0.65241900  0.81540900  1
  C  1994  1  0.87692200  0.64577500  0.82632500  1
  C  1999  1  0.97486100  0.73670000  0.75595300  1
  C  2001  1  0.98786100  0.70869600  0.78583000  1
  C  2002  1  0.97945300  0.68047700  0.82162900  1
  C  2003  1  0.96171600  0.68917000  0.80964000  1
  C  2004  1  0.96615500  0.70331300  0.79190300  1
  C  2007  1  0.99366100  0.72460600  0.76817800  1
  C  2008  1  0.93893400  0.68346500  0.81598000  1
  C  2011  1  0.33350200  0.85860500  0.85972300  1
  C  2012  1  0.35828900  0.82755800  0.86555400  1
  C  2013  1  0.35256000  0.84684100  0.85418100  1
  C  2018  1  0.37786900  0.81625900  0.86033300  1
  C  2019  1  0.39829400  0.82706700  0.86153600  1
  C  2020  1  0.41767100  0.81616700  0.85563900  1
  C  2021  1  0.41695100  0.79445200  0.84793600  1
  C  2022  1  0.39663000  0.78348400  0.84694200  1
  C  2023  1  0.37728800  0.79421700  0.85332300  1
  C  2029  1  0.48741800  0.75714800  0.78779800  1
  C  2030  1  0.47865600  0.79275200  0.81609100  1
  C  2031  1  0.46125300  0.77918400  0.80923300  1
  C  2032  1  0.46587400  0.76150900  0.79508700  1
  C  2034  1  0.43848400  0.78423800  0.81612400  1
  C  2037  1  0.50040700  0.78887300  0.80931900  1
  C  2038  1  0.61291400  0.82980600  0.85546400  1
  C  2039  1  0.59498300  0.82282900  0.84228200  1
  C  2040  1  0.59175600  0.80039100  0.83750100  1
  C  2041  1  0.57351100  0.79341500  0.82535200  1
  C  2042  1  0.55796900  0.80867300  0.81784300  1
  C  2043  1  0.56119700  0.83112500  0.82217600  1
  C  2044  1  0.57949300  0.83809800  0.83426700  1
  C  2052  1  0.50446500  0.77078100  0.79547800  1
  C  2054  1  0.51814200  0.80337900  0.81765500  1
  C  2057  1  0.62590200  0.84793900  0.84929100  1
  C  2058  1  0.64304500  0.85567000  0.86276300  1
  C  2059  1  0.65570700  0.87409400  0.85637900  1
  C  2061  1  0.66606000  0.87474700  0.83568200  1
  C  2062  1  0.24342200  0.99450300  0.76850200  1
  C  2063  1  0.22950200  0.97581100  0.75822200  1
  C  2065  1  0.32798800  0.87804100  0.84845200  1
  C  2066  1  0.32830500  0.89836800  0.85946100  1
  C  2067  1  0.32235000  0.91766000  0.84844400  1
  C  2068  1  0.31538100  0.91687100  0.82647600  1
  C  2069  1  0.31501100  0.89657200  0.81543500  1
  C  2070  1  0.32153500  0.87733200  0.82626000  1
  C  2075  1  0.25945100  0.98873800  0.78605700  1
  C  2076  1  0.28806300  0.98038400  0.82155300  1
  C  2077  1  0.27893100  0.96262200  0.80993800  1
  C  2078  1  0.26455900  0.96703800  0.79238200  1
  C  2081  1  0.28439800  0.93984400  0.81648400  1
  C  2084  1  0.65756000  0.89249600  0.87030000  1
  C  2085  1  0.66884600  0.91132000  0.86339800  1
  C  2086  1  0.67887400  0.91197300  0.84258800  1
  C  2087  1  0.67773200  0.89340700  0.82896700  1
  C  2092  1  0.70819300  0.97974100  0.78607200  1
  C  2093  1  0.69775000  0.96241800  0.79732700  1
  C  2094  1  0.68367700  0.96627900  0.81524400  1
  C  2095  1  0.67957500  0.98810400  0.82156100  1
  C  2098  1  0.72420900  0.97397200  0.76850500  1
  C  2101  1  0.67278600  0.94768800  0.82651200  1
  C  2104  1  0.73812300  0.99266200  0.75821400  1
  C  2105  1  0.32061700  0.12262100  0.88289500  1
  C  2110  1  0.64748400  0.11669200  0.87693000  1
  C  2114  1  0.33300800  0.14104600  0.88930100  1
  C  2115  1  0.34989300  0.14853300  0.87542300  1
  C  2116  1  0.32839700  0.15195100  0.90926000  1
  C  2117  1  0.32865500  0.14043400  0.92932600  1
  C  2118  1  0.32309900  0.15103800  0.94897100  1
  C  2119  1  0.31668000  0.17318200  0.94886000  1
  C  2120  1  0.31661100  0.18483100  0.92890800  1
  C  2121  1  0.32265900  0.17437300  0.90932200  1
  C  2128  1  0.27811800  0.18918600  0.99303000  1
  C  2129  1  0.26415500  0.20697300  0.99777800  1
  C  2131  1  0.28509200  0.18427300  0.97026000  1
  C  2134  1  0.62314500  0.14763100  0.88246800  1
  C  2136  1  0.68969800  0.17911900  0.99942100  1
  C  2137  1  0.64230700  0.13607400  0.88848300  1
  C  2138  1  0.65572900  0.14344500  0.90611300  1
  C  2139  1  0.66357600  0.12860600  0.92211000  1
  C  2140  1  0.67616500  0.13594600  0.93990700  1
  C  2141  1  0.68106400  0.15839000  0.94224400  1
  C  2142  1  0.67373000  0.17322400  0.92622000  1
  C  2143  1  0.66121200  0.16585000  0.90838100  1
  C  2149  1  0.70337200  0.19729800  0.99520900  1
  C  2153  1  0.68141000  0.16441900  0.98185400  1
  C  2157  1  0.11686500  0.32039500  0.87708400  1
  C  2160  1  0.17905100  0.27779100  0.99957100  1
  C  2162  1  0.13618300  0.32558000  0.88874100  1
  C  2163  1  0.14769600  0.34481100  0.88287100  1
  C  2164  1  0.14354700  0.31208300  0.90631900  1
  C  2165  1  0.12868700  0.30410400  0.92222900  1
  C  2166  1  0.13601900  0.29145600  0.93998900  1
  C  2167  1  0.15847300  0.28661800  0.94236500  1
  C  2168  1  0.17332800  0.29407900  0.92641700  1
  C  2169  1  0.16596300  0.30665800  0.90862000  1
  C  2176  1  0.19728500  0.26419000  0.99536700  1
  C  2178  1  0.16439200  0.28611900  0.98198800  1
  C  2182  1  0.82729200  0.33236300  0.88904500  1
  C  2183  1  0.84571600  0.31997800  0.88262500  1
  C  2184  1  0.81985800  0.34930900  0.87522000  1
  C  2185  1  0.81634300  0.32771500  0.90897500  1
  C  2186  1  0.82781900  0.32794600  0.92906500  1
  C  2187  1  0.81715000  0.32246300  0.94869500  1
  C  2188  1  0.79497400  0.31615100  0.94854900  1
  C  2189  1  0.78336900  0.31609800  0.92857100  1
  C  2190  1  0.79389900  0.32206400  0.90899800  1
  C  2199  1  0.77862700  0.27786700  0.99284400  1
  C  2200  1  0.76077300  0.26399100  0.99758800  1
  C  2201  1  0.78365500  0.28471100  0.97005900  1
  C  2205  1  0.14779900  0.61836300  0.87521200  1
  C  2207  1  0.81989700  0.62287700  0.88283500  1
  C  2209  1  0.12192700  0.64768400  0.88261100  1
  C  2214  1  0.14035200  0.63530400  0.88903700  1
  C  2215  1  0.15129700  0.63996000  0.90896700  1
  C  2216  1  0.13981700  0.63972600  0.92905500  1
  C  2217  1  0.15048400  0.64521200  0.94868700  1
  C  2218  1  0.17265700  0.65152700  0.94854300  1
  C  2219  1  0.18426600  0.65158600  0.92856600  1
  C  2220  1  0.17373700  0.64562800  0.90899100  1
  C  2225  1  0.18900700  0.68979500  0.99284900  1
  C  2226  1  0.20686300  0.70367100  0.99759700  1
  C  2228  1  0.18398100  0.68295600  0.97006400  1
  C  2235  1  0.78857500  0.68984900  0.99957800  1
  C  2236  1  0.85073900  0.64728300  0.87706700  1
  C  2237  1  0.83142100  0.64209800  0.88872100  1
  C  2238  1  0.82406400  0.65558300  0.90631000  1
  C  2239  1  0.83892800  0.66354800  0.92222200  1
  C  2240  1  0.83160400  0.67619400  0.93998700  1
  C  2241  1  0.80915200  0.68103700  0.94237000  1
  C  2242  1  0.79429200  0.67359600  0.92641700  1
  C  2243  1  0.80164800  0.66101400  0.90861800  1
  C  2251  1  0.77033600  0.70344400  0.99537300  1
  C  2253  1  0.80323400  0.68152300  0.98199300  1
  C  2257  1  0.27793600  0.78853900  0.99943100  1
  C  2258  1  0.32011800  0.85093500  0.87690700  1
  C  2259  1  0.32529100  0.83155600  0.88846800  1
  C  2260  1  0.34444300  0.81998600  0.88244500  1
  C  2261  1  0.31187500  0.82419600  0.90610500  1
  C  2262  1  0.30404700  0.83904000  0.92210500  1
  C  2263  1  0.29146800  0.83170900  0.93991400  1
  C  2264  1  0.28655400  0.80926900  0.94225200  1
  C  2265  1  0.29386200  0.79443100  0.92622000  1
  C  2266  1  0.30637900  0.80179400  0.90837600  1
  C  2275  1  0.26426900  0.77035500  0.99521900  1
  C  2277  1  0.28623500  0.80323000  0.98186000  1
  C  2280  1  0.61772800  0.81911700  0.87542300  1
  C  2284  1  0.63462000  0.82660100  0.88929400  1
  C  2285  1  0.64701100  0.84502400  0.88288500  1
  C  2286  1  0.63923900  0.81569400  0.90925000  1
  C  2287  1  0.63898100  0.82720900  0.92931800  1
  C  2288  1  0.64454200  0.81660400  0.94896100  1
  C  2289  1  0.65095900  0.79446000  0.94884700  1
  C  2290  1  0.65102500  0.78281100  0.92889300  1
  C  2291  1  0.64499800  0.79327900  0.90930700  1
  C  2298  1  0.68950800  0.77844800  0.99302400  1
  C  2299  1  0.70347000  0.76066100  0.99777700  1
  C  2300  1  0.68253900  0.78335800  0.97025200  1
  N  14  1  0.27499300  0.16674700  0.07026600  1
  N  33  1  0.65834500  0.18254900  0.06199700  1
  N  56  1  0.18212700  0.30888600  0.06229500  1
  N  76  1  0.80078400  0.27499000  0.07017300  1
  N  95  1  0.16684700  0.69266700  0.07017800  1
  N  124  1  0.78550900  0.65876700  0.06230600  1
  N  144  1  0.30928300  0.78512000  0.06201400  1
  N  162  1  0.69264300  0.80090500  0.07025200  1
  N  188  1  0.30844200  0.03113500  0.21414300  1
  N  212  1  0.68881300  0.03652600  0.19635300  1
  N  236  1  0.43661800  0.18271600  0.19029800  1
  N  260  1  0.53959300  0.16696300  0.22425000  1
  N  285  1  0.03588800  0.27772100  0.19626800  1
  N  322  1  0.93597500  0.30831000  0.21431400  1
  N  341  1  0.16643800  0.42772900  0.22397400  1
  N  363  1  0.78492800  0.43716100  0.18947000  1
  N  388  1  0.18271800  0.53049300  0.18947500  1
  N  412  1  0.80123400  0.53992500  0.22396700  1
  N  432  1  0.03166500  0.65934700  0.21431600  1
  N  460  1  0.93174800  0.68998500  0.19626000  1
  N  494  1  0.42806100  0.80072200  0.22424200  1
  N  521  1  0.53103100  0.78494300  0.19028600  1
  N  542  1  0.27874800  0.93113300  0.19631200  1
  N  562  1  0.65914800  0.93652800  0.21416200  1
  N  587  1  0.16714100  0.03794200  0.30608200  1
  N  610  1  0.78523200  0.03144300  0.34035700  1
  N  629  1  0.03187900  0.18235200  0.33951500  1
  N  654  1  0.93154100  0.16517000  0.30971400  1
  N  685  1  0.42808900  0.27455300  0.33207400  1
  N  708  1  0.53103200  0.30865700  0.31623800  1
  N  730  1  0.30852200  0.43613700  0.31635700  1
  N  749  1  0.69285200  0.42884600  0.33160200  1
  N  779  1  0.27479200  0.53883200  0.33161200  1
  N  798  1  0.65913500  0.53154100  0.31633400  1
  N  819  1  0.43660700  0.65900100  0.31621600  1
  N  845  1  0.53955400  0.69310200  0.33205400  1
  N  871  1  0.03609200  0.80247300  0.30977200  1
  N  897  1  0.93576300  0.78531600  0.33951500  1
  N  918  1  0.18240500  0.93624100  0.34036500  1
  N  946  1  0.80047000  0.92973800  0.30607200  1
  N  974  1  0.18290800  0.15798000  0.46806700  1
  N  998  1  0.80091400  0.19288200  0.45996400  1
  N  1021  1  0.27854500  0.30210300  0.46258900  1
  N  1045  1  0.65997600  0.28467600  0.46699400  1
  N  1077  1  0.30764500  0.68296400  0.46700900  1
  N  1098  1  0.68912400  0.66553400  0.46258300  1
  N  1122  1  0.16671700  0.77475300  0.45993200  1
  N  1145  1  0.78472700  0.80968000  0.46803300  1
  N  1161  1  0.16676500  0.19291200  0.57071700  1
  N  1189  1  0.78472700  0.15796800  0.56261300  1
  N  1208  1  0.30769100  0.28469300  0.56364100  1
  N  1228  1  0.68911200  0.30210400  0.56805000  1
  N  1252  1  0.27846800  0.66551300  0.56805800  1
  N  1270  1  0.65996300  0.68296100  0.56363200  1
  N  1295  1  0.18288300  0.80967200  0.56258000  1
  N  1314  1  0.80090100  0.77475000  0.57068100  1
  N  1340  1  0.18240500  0.03140900  0.69026800  1
  N  1365  1  0.80049200  0.03789900  0.72457200  1
  N  1385  1  0.03610100  0.16518100  0.72085300  1
  N  1411  1  0.93576600  0.18232900  0.69111800  1
  N  1443  1  0.43660400  0.30866700  0.71443600  1
  N  1469  1  0.53953600  0.27454700  0.69855800  1
  N  1493  1  0.27478200  0.42884000  0.69902900  1
  N  1513  1  0.65913400  0.43610900  0.71429200  1
  N  1538  1  0.30849600  0.53153800  0.71429200  1
  N  1563  1  0.69283100  0.53882400  0.69906500  1
  N  1586  1  0.42808700  0.69309000  0.69856900  1
  N  1610  1  0.53102900  0.65899500  0.71443300  1
  N  1636  1  0.03185900  0.78532300  0.69112000  1
  N  1672  1  0.93152300  0.80249200  0.72091900  1
  N  1692  1  0.16714300  0.92971800  0.72457400  1
  N  1714  1  0.78521800  0.93620700  0.69026900  1
  N  1739  1  0.27883600  0.03650500  0.83428500  1
  N  1760  1  0.65917500  0.03114100  0.81647900  1
  N  1780  1  0.42803800  0.16695000  0.80638900  1
  N  1805  1  0.53101700  0.18268600  0.84032500  1
  N  1830  1  0.03167300  0.30830200  0.81632300  1
  N  1857  1  0.93174900  0.27767400  0.83435700  1
  N  1877  1  0.18271100  0.43716600  0.84116800  1
  N  1904  1  0.80122800  0.42772700  0.80666900  1
  N  1928  1  0.16641100  0.53992700  0.80666600  1
  N  1952  1  0.78492600  0.53048800  0.84117600  1
  N  1971  1  0.03587200  0.68992400  0.83433500  1
  N  1997  1  0.93594900  0.65934700  0.81631200  1
  N  2027  1  0.43659200  0.78493500  0.84034700  1
  N  2050  1  0.53956500  0.80070900  0.80640200  1
  N  2073  1  0.30847300  0.93650800  0.81648100  1
  N  2090  1  0.68881300  0.93113500  0.83429800  1
  N  2126  1  0.30928800  0.18253100  0.96865000  1
  N  2147  1  0.69264300  0.16677100  0.96038200  1
  N  2174  1  0.16684300  0.27498700  0.96047500  1
  N  2197  1  0.78553300  0.30888900  0.96834400  1
  N  2223  1  0.18209900  0.65877900  0.96834300  1
  N  2249  1  0.80078800  0.69266500  0.96048500  1
  N  2273  1  0.27498200  0.80089500  0.96039800  1
  N  2296  1  0.65834300  0.78510700  0.96863900  1
