# generated using pymatgen
data_H12C17(NO2)2
_symmetry_space_group_name_H-M   'P 1'
_cell_length_a   35.37830000
_cell_length_b   42.70380000
_cell_length_c   42.70380000
_cell_angle_alpha   90.00000000
_cell_angle_beta   90.00000000
_cell_angle_gamma   90.00000000
_symmetry_Int_Tables_number   1
_chemical_formula_structural   H12C17(NO2)2
_chemical_formula_sum   'H384 C544 N64 O128'
_cell_volume   64516.38208378
_cell_formula_units_Z   32
loop_
 _symmetry_equiv_pos_site_id
 _symmetry_equiv_pos_as_xyz
  1  'x, y, z'
loop_
 _atom_site_type_symbol
 _atom_site_label
 _atom_site_symmetry_multiplicity
 _atom_site_fract_x
 _atom_site_fract_y
 _atom_site_fract_z
 _atom_site_occupancy
  H  5  1  0.24610800  0.18195100  0.62867000  1
  H  6  1  0.20433800  0.20438500  0.62729800  1
  H  9  1  0.14254800  0.18077500  0.60718000  1
  H  10  1  0.14234500  0.14193100  0.59327700  1
  H  11  1  0.15094900  0.19222500  0.66545300  1
  H  12  1  0.15411100  0.16072300  0.69195900  1
  H  15  1  0.14853600  0.09525800  0.63355200  1
  H  16  1  0.15228700  0.10449100  0.67341000  1
  H  18  1  0.20123700  0.10857300  0.59475200  1
  H  19  1  0.24416200  0.12381800  0.60903000  1
  H  21  1  0.21764500  0.12795200  0.69358700  1
  H  22  1  0.25339500  0.13641200  0.66658200  1
  H  27  1  0.24609700  0.81439800  0.36768600  1
  H  28  1  0.20432900  0.79196400  0.36905600  1
  H  31  1  0.14253900  0.81557100  0.38917800  1
  H  32  1  0.14233600  0.85441500  0.40308300  1
  H  33  1  0.15093800  0.80412700  0.33090200  1
  H  34  1  0.15409900  0.83563000  0.30439900  1
  H  37  1  0.14852600  0.90109000  0.36281100  1
  H  38  1  0.15227600  0.89185900  0.32295000  1
  H  40  1  0.20122900  0.88777300  0.40160800  1
  H  41  1  0.24415300  0.87252900  0.38732800  1
  H  43  1  0.21763200  0.86840000  0.30277200  1
  H  44  1  0.25338400  0.85993700  0.32977600  1
  H  49  1  0.24610200  0.36768600  0.18195700  1
  H  50  1  0.20433300  0.36905600  0.20439100  1
  H  53  1  0.14254300  0.38917800  0.18078400  1
  H  54  1  0.14234000  0.40308300  0.14194000  1
  H  55  1  0.15094300  0.33090500  0.19222800  1
  H  56  1  0.15410400  0.30439900  0.16072500  1
  H  59  1  0.14853000  0.36281300  0.09526300  1
  H  60  1  0.15228000  0.32295200  0.10449400  1
  H  62  1  0.20123200  0.40161000  0.10858200  1
  H  63  1  0.24415600  0.38733100  0.12382600  1
  H  65  1  0.21763700  0.30277400  0.12795300  1
  H  66  1  0.25338900  0.32977800  0.13641500  1
  H  71  1  0.24610400  0.62866700  0.81440500  1
  H  72  1  0.20433500  0.62729500  0.79196900  1
  H  75  1  0.14254400  0.60717800  0.81557600  1
  H  76  1  0.14233900  0.59327200  0.85442000  1
  H  77  1  0.15094600  0.66545100  0.80412700  1
  H  78  1  0.15410700  0.69195700  0.83563000  1
  H  81  1  0.14852700  0.63355000  0.90109500  1
  H  82  1  0.15228000  0.67340800  0.89186200  1
  H  84  1  0.20122800  0.59474800  0.88778000  1
  H  85  1  0.24415400  0.60902500  0.87253800  1
  H  87  1  0.21763900  0.69358200  0.86840200  1
  H  88  1  0.25338900  0.66657700  0.85994400  1
  H  93  1  0.24338100  0.82909400  0.63726600  1
  H  94  1  0.27950100  0.80166100  0.62992500  1
  H  97  1  0.34282300  0.82085900  0.60316600  1
  H  98  1  0.34624600  0.86048000  0.59280600  1
  H  99  1  0.34121500  0.80325600  0.66023800  1
  H  100  1  0.34835200  0.83125600  0.68996200  1
  H  103  1  0.35429400  0.90188700  0.63816800  1
  H  104  1  0.35531100  0.88916900  0.67736100  1
  H  106  1  0.29423100  0.89973900  0.60637400  1
  H  107  1  0.25174900  0.88593200  0.62286200  1
  H  109  1  0.29392600  0.87099900  0.70341500  1
  H  110  1  0.25145900  0.86805400  0.68245900  1
  H  115  1  0.24338000  0.16725700  0.35908500  1
  H  116  1  0.27950100  0.19469000  0.36642600  1
  H  119  1  0.34282300  0.17549000  0.39319000  1
  H  120  1  0.34624400  0.13586800  0.40354700  1
  H  121  1  0.34121800  0.19309400  0.33611700  1
  H  122  1  0.34835500  0.16509700  0.30639400  1
  H  125  1  0.35429100  0.09446500  0.35818600  1
  H  126  1  0.35531100  0.10718200  0.31899300  1
  H  128  1  0.29422900  0.09661100  0.38997400  1
  H  129  1  0.25174700  0.11041900  0.37348700  1
  H  131  1  0.29392900  0.12535300  0.29293600  1
  H  132  1  0.25146100  0.12830000  0.31389000  1
  H  137  1  0.24338700  0.63727100  0.16726000  1
  H  138  1  0.27950800  0.62992700  0.19469300  1
  H  141  1  0.34282900  0.60316600  0.17549100  1
  H  142  1  0.34624900  0.59280900  0.13586900  1
  H  143  1  0.34122400  0.66023800  0.19309700  1
  H  144  1  0.34836100  0.68996200  0.16510000  1
  H  147  1  0.35429700  0.63817200  0.09446600  1
  H  148  1  0.35531700  0.67736300  0.10718400  1
  H  150  1  0.29423100  0.60638100  0.09661300  1
  H  151  1  0.25175100  0.62286900  0.11042200  1
  H  153  1  0.29393500  0.70342000  0.12535700  1
  H  154  1  0.25146600  0.68246600  0.12830400  1
  H  159  1  0.24338400  0.35909000  0.82909200  1
  H  160  1  0.27950500  0.36643100  0.80165900  1
  H  163  1  0.34282600  0.39319200  0.82086100  1
  H  164  1  0.34624600  0.40355200  0.86048300  1
  H  165  1  0.34122100  0.33612000  0.80325600  1
  H  166  1  0.34835800  0.30639900  0.83125600  1
  H  169  1  0.35429400  0.35819000  0.90188700  1
  H  170  1  0.35531100  0.31900000  0.88917100  1
  H  172  1  0.29422900  0.38998200  0.89973900  1
  H  173  1  0.25174900  0.37349400  0.88593000  1
  H  175  1  0.29392900  0.29294100  0.87099900  1
  H  176  1  0.25146200  0.31389700  0.86805100  1
  H  181  1  0.75255800  0.81550300  0.36839800  1
  H  182  1  0.79532400  0.79477000  0.37228100  1
  H  185  1  0.85418800  0.82212300  0.39303300  1
  H  186  1  0.85353200  0.86227700  0.40250700  1
  H  187  1  0.84916800  0.80548300  0.33375000  1
  H  188  1  0.84627400  0.83512200  0.30550000  1
  H  191  1  0.84600500  0.90404600  0.36014600  1
  H  192  1  0.84330600  0.89243100  0.32059900  1
  H  194  1  0.79222100  0.89253800  0.39811200  1
  H  195  1  0.75056000  0.87494300  0.38389100  1
  H  197  1  0.78064900  0.86593900  0.30048600  1
  H  198  1  0.74433000  0.85798200  0.32711800  1
  H  203  1  0.75256900  0.18086200  0.62795600  1
  H  204  1  0.79533800  0.20159600  0.62407500  1
  H  207  1  0.85419900  0.17424200  0.60332300  1
  H  208  1  0.85354400  0.13408900  0.59384600  1
  H  209  1  0.84918200  0.19087900  0.66260600  1
  H  210  1  0.84628500  0.16123700  0.69085400  1
  H  213  1  0.84601100  0.09231700  0.63620500  1
  H  214  1  0.84331400  0.10392900  0.67575200  1
  H  216  1  0.79222900  0.10382900  0.59823700  1
  H  217  1  0.75056800  0.12142500  0.61246000  1
  H  219  1  0.78065700  0.13042200  0.69586500  1
  H  220  1  0.74433800  0.13838100  0.66923500  1
  H  225  1  0.75256400  0.62795800  0.81549400  1
  H  226  1  0.79533000  0.62407800  0.79475800  1
  H  229  1  0.85419400  0.60332300  0.82211100  1
  H  230  1  0.85353800  0.59384600  0.86226500  1
  H  231  1  0.84917400  0.66260600  0.80547600  1
  H  232  1  0.84627900  0.69085400  0.83511700  1
  H  235  1  0.84600800  0.63620500  0.90403900  1
  H  236  1  0.84330900  0.67575200  0.89242600  1
  H  238  1  0.79222600  0.59823700  0.89252400  1
  H  239  1  0.75056200  0.61246000  0.87493100  1
  H  241  1  0.78065200  0.69586500  0.86593400  1
  H  242  1  0.74433300  0.66923500  0.85797500  1
  H  247  1  0.75256400  0.36840000  0.18086000  1
  H  248  1  0.79533000  0.37228100  0.20159500  1
  H  251  1  0.85419400  0.39303000  0.17424100  1
  H  252  1  0.85353800  0.40251000  0.13408800  1
  H  253  1  0.84917400  0.33375000  0.19087900  1
  H  254  1  0.84627700  0.30550200  0.16123900  1
  H  257  1  0.84600500  0.36014600  0.09231500  1
  H  258  1  0.84330900  0.32060100  0.10392900  1
  H  260  1  0.79222600  0.39811400  0.10382700  1
  H  261  1  0.75056200  0.38389300  0.12142100  1
  H  263  1  0.78065200  0.30048800  0.13042300  1
  H  264  1  0.74433300  0.32712100  0.13838100  1
  H  269  1  0.74917500  0.16730900  0.35918100  1
  H  270  1  0.71073600  0.19191700  0.36806800  1
  H  273  1  0.64977200  0.16639100  0.39358800  1
  H  274  1  0.64807000  0.12571500  0.39880300  1
  H  275  1  0.64998700  0.18995500  0.33660500  1
  H  276  1  0.64462700  0.16417900  0.30498700  1
  H  279  1  0.64477700  0.08962200  0.35132000  1
  H  280  1  0.64414400  0.10526400  0.31284100  1
  H  282  1  0.70433300  0.09150100  0.38354200  1
  H  283  1  0.74576900  0.10910300  0.36893000  1
  H  285  1  0.70374300  0.12808800  0.28921300  1
  H  286  1  0.74540700  0.13149800  0.31124900  1
  H  291  1  0.74917500  0.82905200  0.63717700  1
  H  292  1  0.71073900  0.80444300  0.62828800  1
  H  295  1  0.64977500  0.82996800  0.60277000  1
  H  296  1  0.64807000  0.87064600  0.59755800  1
  H  297  1  0.64998900  0.80640300  0.65975400  1
  H  298  1  0.64463000  0.83217800  0.69137100  1
  H  301  1  0.64477700  0.90673600  0.64504100  1
  H  302  1  0.64414400  0.89109600  0.68352000  1
  H  304  1  0.70433300  0.90486100  0.61281600  1
  H  305  1  0.74576900  0.88725800  0.62742900  1
  H  307  1  0.70374600  0.86827100  0.70714500  1
  H  308  1  0.74541000  0.86486200  0.68511000  1
  H  313  1  0.74917700  0.35917900  0.82904800  1
  H  314  1  0.71073900  0.36806800  0.80443900  1
  H  317  1  0.64977500  0.39358500  0.82996600  1
  H  318  1  0.64807300  0.39879800  0.87064300  1
  H  319  1  0.64998900  0.33660500  0.80640100  1
  H  320  1  0.64463000  0.30498400  0.83217600  1
  H  323  1  0.64478000  0.35131500  0.90673400  1
  H  324  1  0.64414700  0.31283600  0.89109400  1
  H  326  1  0.70433600  0.38353700  0.90485600  1
  H  327  1  0.74577100  0.36892500  0.88725300  1
  H  329  1  0.70374600  0.28920800  0.86826700  1
  H  330  1  0.74541000  0.31124600  0.86485700  1
  H  335  1  0.74918000  0.63717300  0.16731600  1
  H  336  1  0.71073900  0.62828600  0.19192200  1
  H  339  1  0.64977700  0.60276800  0.16639400  1
  H  340  1  0.64807900  0.59755100  0.12571700  1
  H  341  1  0.64998900  0.65974900  0.18995700  1
  H  342  1  0.64463300  0.69136700  0.16418000  1
  H  345  1  0.64478800  0.64503400  0.08962400  1
  H  346  1  0.64415200  0.68351300  0.10526400  1
  H  348  1  0.70434500  0.61281200  0.09150600  1
  H  349  1  0.74577700  0.62742400  0.10910900  1
  H  351  1  0.70375100  0.70714100  0.12809100  1
  H  352  1  0.74541500  0.68510300  0.13150300  1
  H  359  1  0.28970000  0.17040200  0.52870900  1
  H  360  1  0.26987600  0.16491600  0.58117500  1
  H  367  1  0.29409000  0.20249400  0.41860900  1
  H  368  1  0.24996100  0.11133300  0.42787500  1
  H  369  1  0.15607600  0.17557100  0.55234400  1
  H  370  1  0.17638600  0.18087000  0.50006800  1
  H  383  1  0.28969500  0.82594000  0.46764400  1
  H  384  1  0.26986900  0.83142900  0.41518100  1
  H  391  1  0.29409300  0.79385400  0.57774500  1
  H  392  1  0.24996100  0.88501500  0.56847600  1
  H  393  1  0.15607000  0.82077400  0.44401400  1
  H  394  1  0.17638100  0.81547500  0.49628800  1
  H  407  1  0.28970000  0.46764700  0.17041100  1
  H  408  1  0.26987300  0.41518100  0.16492800  1
  H  415  1  0.29409900  0.57774700  0.20249600  1
  H  416  1  0.24996500  0.56848100  0.11133700  1
  H  417  1  0.15607400  0.44401600  0.17557700  1
  H  418  1  0.17638500  0.49629100  0.18087300  1
  H  431  1  0.28969800  0.52870900  0.82594300  1
  H  432  1  0.26987400  0.58117300  0.83144100  1
  H  439  1  0.29409900  0.41861400  0.79385400  1
  H  440  1  0.24995300  0.42788000  0.88501000  1
  H  441  1  0.15607300  0.55234400  0.82076700  1
  H  442  1  0.17638300  0.50007000  0.81545900  1
  H  455  1  0.70471800  0.83178700  0.46661600  1
  H  456  1  0.72608700  0.83477300  0.41426300  1
  H  463  1  0.69667900  0.80123500  0.57622500  1
  H  464  1  0.74459500  0.89139800  0.57220200  1
  H  465  1  0.83926700  0.83146700  0.44626900  1
  H  466  1  0.81748800  0.82812500  0.49825800  1
  H  479  1  0.70472900  0.16458200  0.52973700  1
  H  480  1  0.72609500  0.16159800  0.58209100  1
  H  487  1  0.69667900  0.19512700  0.42013300  1
  H  488  1  0.74460100  0.10496400  0.42415400  1
  H  489  1  0.83927500  0.16489700  0.55008400  1
  H  490  1  0.81749600  0.16823800  0.49809600  1
  H  503  1  0.70472400  0.52974000  0.83177600  1
  H  504  1  0.72609000  0.58209300  0.83475700  1
  H  511  1  0.69668500  0.42012900  0.80122800  1
  H  512  1  0.74459300  0.42415600  0.89139600  1
  H  513  1  0.83926900  0.55008400  0.83146000  1
  H  514  1  0.81749100  0.49809600  0.82812300  1
  H  527  1  0.70472400  0.46661600  0.16458600  1
  H  528  1  0.72609000  0.41426300  0.16159100  1
  H  535  1  0.69667900  0.57622200  0.19513300  1
  H  536  1  0.74461000  0.57219900  0.10497400  1
  H  537  1  0.83927200  0.44626500  0.16491300  1
  H  538  1  0.81749300  0.49825300  0.16826300  1
  H  551  1  0.79339900  0.67450200  0.03026700  1
  H  552  1  0.77212700  0.66901700  0.08252100  1
  H  559  1  0.79667300  0.70480300  0.91757400  1
  H  560  1  0.74915200  0.61515300  0.92966400  1
  H  561  1  0.65954000  0.68243800  0.05172900  1
  H  562  1  0.68122600  0.68836200  0.00007700  1
  H  575  1  0.79339100  0.32184200  0.96609200  1
  H  576  1  0.77212100  0.32732900  0.91383900  1
  H  583  1  0.79667300  0.29154800  0.07878200  1
  H  584  1  0.74914900  0.38119800  0.06669100  1
  H  585  1  0.65953200  0.31391100  0.94463000  1
  H  586  1  0.68121800  0.30798400  0.99628100  1
  H  599  1  0.79338500  0.96609600  0.67451100  1
  H  600  1  0.77211500  0.91384100  0.66902400  1
  H  607  1  0.79667800  0.07878100  0.70480300  1
  H  608  1  0.74914300  0.06669700  0.61515800  1
  H  609  1  0.65952600  0.94463200  0.68244500  1
  H  610  1  0.68121200  0.99628600  0.68836900  1
  H  623  1  0.79338500  0.03026300  0.32183500  1
  H  624  1  0.77211800  0.08251800  0.32733600  1
  H  631  1  0.79667500  0.91757800  0.29154500  1
  H  632  1  0.74913200  0.92966900  0.38118600  1
  H  633  1  0.65952600  0.05173300  0.31389900  1
  H  634  1  0.68121200  0.00008100  0.30796300  1
  H  647  1  0.20698800  0.32782300  0.96708900  1
  H  648  1  0.22721300  0.33242200  0.91467700  1
  H  655  1  0.19966000  0.29700400  0.07626300  1
  H  656  1  0.24530100  0.38785300  0.06971300  1
  H  657  1  0.34108200  0.32629400  0.94450100  1
  H  658  1  0.32035500  0.32182600  0.99687800  1
  H  671  1  0.20698900  0.66854400  0.02926700  1
  H  672  1  0.22721600  0.66394300  0.08168000  1
  H  679  1  0.19965900  0.69935700  0.92009300  1
  H  680  1  0.24529600  0.60850500  0.92665000  1
  H  681  1  0.34108500  0.67007100  0.05185200  1
  H  682  1  0.32035500  0.67453900  0.99947700  1
  H  695  1  0.20698700  0.02926300  0.32781400  1
  H  696  1  0.22721300  0.08167600  0.33241500  1
  H  703  1  0.19965500  0.92009100  0.29700200  1
  H  704  1  0.24529700  0.92664100  0.38785100  1
  H  705  1  0.34108200  0.05184900  0.32628500  1
  H  706  1  0.32035200  0.99947300  0.32181700  1
  H  719  1  0.20699000  0.96709100  0.66854200  1
  H  720  1  0.22721200  0.91467700  0.66393100  1
  H  727  1  0.19966400  0.07626200  0.69936100  1
  H  728  1  0.24530800  0.06970600  0.60851200  1
  H  729  1  0.34108500  0.94449600  0.67008300  1
  H  730  1  0.32035800  0.99687300  0.67456000  1
  H  743  1  0.97216200  0.09546600  0.66231500  1
  H  744  1  0.90567700  0.09472600  0.66052600  1
  H  751  1  0.09188200  0.17615600  0.68477700  1
  H  752  1  0.09224400  0.11191900  0.60995000  1
  H  753  1  0.90537200  0.19004500  0.63317300  1
  H  754  1  0.97228000  0.19017300  0.63430600  1
  H  767  1  0.97215600  0.90089100  0.33404500  1
  H  768  1  0.90567200  0.90163400  0.33582900  1
  H  775  1  0.09187100  0.82019800  0.31157900  1
  H  776  1  0.09223500  0.88442900  0.38641000  1
  H  777  1  0.90535800  0.80631700  0.36318300  1
  H  778  1  0.97226900  0.80618600  0.36205200  1
  H  791  1  0.97215900  0.33404700  0.09546600  1
  H  792  1  0.90567500  0.33583200  0.09472600  1
  H  799  1  0.09187500  0.31158100  0.17615700  1
  H  800  1  0.09223800  0.38641300  0.11192700  1
  H  801  1  0.90536400  0.36318300  0.19004500  1
  H  802  1  0.97227500  0.36205400  0.19017400  1
  H  815  1  0.97215900  0.66231300  0.90088400  1
  H  816  1  0.90567500  0.66052600  0.90162700  1
  H  823  1  0.09187800  0.68477500  0.82019600  1
  H  824  1  0.09223700  0.60994800  0.88443100  1
  H  825  1  0.90536400  0.63317300  0.80630700  1
  H  826  1  0.97227500  0.63430400  0.80617800  1
  H  839  1  0.51779200  0.89350100  0.65950100  1
  H  840  1  0.58360100  0.89825900  0.66361700  1
  H  847  1  0.40536500  0.81091800  0.67356000  1
  H  848  1  0.40319400  0.88342000  0.60674000  1
  H  849  1  0.59670800  0.80731900  0.62559000  1
  H  850  1  0.52998400  0.80320200  0.62080900  1
  H  863  1  0.51779500  0.10285200  0.33686200  1
  H  864  1  0.58360100  0.09809700  0.33274300  1
  H  871  1  0.40536500  0.18543400  0.32279800  1
  H  872  1  0.40319100  0.11292900  0.38961400  1
  H  873  1  0.59670500  0.18904000  0.37076800  1
  H  874  1  0.52998100  0.19315300  0.37555400  1
  H  887  1  0.51780400  0.65949100  0.10284900  1
  H  888  1  0.58361000  0.66361000  0.09809600  1
  H  895  1  0.40537300  0.67355800  0.18543300  1
  H  896  1  0.40319700  0.60674200  0.11292900  1
  H  897  1  0.59671100  0.62558800  0.18904000  1
  H  898  1  0.52998400  0.62080400  0.19315100  1
  H  911  1  0.51779500  0.33686000  0.89350300  1
  H  912  1  0.58360400  0.33273800  0.89825900  1
  H  919  1  0.40536700  0.32279800  0.81092000  1
  H  920  1  0.40319400  0.38961900  0.88342200  1
  H  921  1  0.59670800  0.37076500  0.80731700  1
  H  922  1  0.52998400  0.37555200  0.80320500  1
  H  935  1  0.21805600  0.29085500  0.74666900  1
  H  936  1  0.23598400  0.32904100  0.78350100  1
  H  943  1  0.19944600  0.16556100  0.72929500  1
  H  944  1  0.25046000  0.22445700  0.66233700  1
  H  945  1  0.31026700  0.26378000  0.82591900  1
  H  946  1  0.29286300  0.22595500  0.78805600  1
  H  959  1  0.21805800  0.70550400  0.24968700  1
  H  960  1  0.23598800  0.66731700  0.21285200  1
  H  967  1  0.19943300  0.83079200  0.26706300  1
  H  968  1  0.25046000  0.77190100  0.33401900  1
  H  969  1  0.31027200  0.73258100  0.17043700  1
  H  970  1  0.29286600  0.77040700  0.20830000  1
  H  983  1  0.21805300  0.24968300  0.29085000  1
  H  984  1  0.23598100  0.21284900  0.32903600  1
  H  991  1  0.19943800  0.26706300  0.16556100  1
  H  992  1  0.25046000  0.33401700  0.22445700  1
  H  993  1  0.31026700  0.17043300  0.26377500  1
  H  994  1  0.29286100  0.20829700  0.22595000  1
  H  1007  1  0.21805300  0.74666600  0.70549900  1
  H  1008  1  0.23598000  0.78350100  0.66731300  1
  H  1015  1  0.19944300  0.72929100  0.83079500  1
  H  1016  1  0.25045400  0.66233200  0.77189600  1
  H  1017  1  0.31026100  0.82591900  0.73257900  1
  H  1018  1  0.29285800  0.78805400  0.77040200  1
  H  1031  1  0.77463400  0.69990000  0.25290700  1
  H  1032  1  0.75439200  0.66359200  0.21493800  1
  H  1039  1  0.80144400  0.82624900  0.26777200  1
  H  1040  1  0.75072100  0.77081200  0.33765600  1
  H  1041  1  0.68403600  0.73294600  0.17464900  1
  H  1042  1  0.70375700  0.76890100  0.21358200  1
  H  1055  1  0.77463700  0.29645600  0.74345300  1
  H  1056  1  0.75439200  0.33276400  0.78142400  1
  H  1063  1  0.80145200  0.17011000  0.72858100  1
  H  1064  1  0.75073200  0.22555100  0.65870000  1
  H  1065  1  0.68403600  0.26340700  0.82170600  1
  H  1066  1  0.70375700  0.22745300  0.78277300  1
  H  1079  1  0.77463400  0.74345600  0.69989800  1
  H  1080  1  0.75439200  0.78142900  0.66359200  1
  H  1087  1  0.80144700  0.72858400  0.82624700  1
  H  1088  1  0.75072600  0.65870200  0.77080500  1
  H  1089  1  0.68403600  0.82171100  0.73294800  1
  H  1090  1  0.70375700  0.78277500  0.76890100  1
  H  1103  1  0.77463400  0.25290200  0.29645800  1
  H  1104  1  0.75439200  0.21493000  0.33276400  1
  H  1111  1  0.80144700  0.26777200  0.17011100  1
  H  1112  1  0.75072600  0.33765400  0.22555100  1
  H  1113  1  0.68403300  0.17464800  0.26341000  1
  H  1114  1  0.70375400  0.21358200  0.22745500  1
  C  1  1  0.20634200  0.16990700  0.66572300  1
  C  2  1  0.16210900  0.16848300  0.66850500  1
  C  3  1  0.21541600  0.18076400  0.63128100  1
  C  4  1  0.19855100  0.15842100  0.60577500  1
  C  7  1  0.15453900  0.15742400  0.61095500  1
  C  8  1  0.14285300  0.14566300  0.64438300  1
  C  13  1  0.16043100  0.11226300  0.64996500  1
  C  14  1  0.20467600  0.11181600  0.64616000  1
  C  17  1  0.21352400  0.12436800  0.61222200  1
  C  20  1  0.22266400  0.13591100  0.66969200  1
  C  23  1  0.20633100  0.82644400  0.33063600  1
  C  24  1  0.16209800  0.82786700  0.32785400  1
  C  25  1  0.21540600  0.81558500  0.36507500  1
  C  26  1  0.19854100  0.83792500  0.39058300  1
  C  29  1  0.15453000  0.83892300  0.38540300  1
  C  30  1  0.14284200  0.85068700  0.35197800  1
  C  35  1  0.16042100  0.88408700  0.34639500  1
  C  36  1  0.20466600  0.88453400  0.35020100  1
  C  39  1  0.21351500  0.87197800  0.38413700  1
  C  42  1  0.22265300  0.86043800  0.32666600  1
  C  45  1  0.20633500  0.33063600  0.16991000  1
  C  46  1  0.16210200  0.32785400  0.16848600  1
  C  47  1  0.21541000  0.36507500  0.18077000  1
  C  48  1  0.19854600  0.39058600  0.15842900  1
  C  51  1  0.15453400  0.38540300  0.15743200  1
  C  52  1  0.14284700  0.35197800  0.14566800  1
  C  57  1  0.16042500  0.34639800  0.11226700  1
  C  58  1  0.20467000  0.35020300  0.11182000  1
  C  61  1  0.21351900  0.38413900  0.12437600  1
  C  64  1  0.22265700  0.32666600  0.13591400  1
  C  67  1  0.20633800  0.66571800  0.82644800  1
  C  68  1  0.16210500  0.66850200  0.82787000  1
  C  69  1  0.21541200  0.63127800  0.81559000  1
  C  70  1  0.19854600  0.60577000  0.83793200  1
  C  73  1  0.15453400  0.61095200  0.83892700  1
  C  74  1  0.14284700  0.64437800  0.85069000  1
  C  79  1  0.16042400  0.64996100  0.88409000  1
  C  80  1  0.20466900  0.64615500  0.88453900  1
  C  83  1  0.21351600  0.61221900  0.87198500  1
  C  86  1  0.22265800  0.66969000  0.86044300  1
  C  89  1  0.29106600  0.83122300  0.67041500  1
  C  90  1  0.33504500  0.82741800  0.66720300  1
  C  91  1  0.27410100  0.82593800  0.63667800  1
  C  92  1  0.29091000  0.84847900  0.61122900  1
  C  95  1  0.33501100  0.84451900  0.61052900  1
  C  96  1  0.35364400  0.85084700  0.64328700  1
  C  101  1  0.34246700  0.88474300  0.65444500  1
  C  102  1  0.29841800  0.89023900  0.65643800  1
  C  105  1  0.28240200  0.88275900  0.62292800  1
  C  108  1  0.28212700  0.86579400  0.68032100  1
  C  111  1  0.29106900  0.16512900  0.32593600  1
  C  112  1  0.33504700  0.16893400  0.32915100  1
  C  113  1  0.27410100  0.17041200  0.35967500  1
  C  114  1  0.29090700  0.14787000  0.38512200  1
  C  117  1  0.33500800  0.15183100  0.38582500  1
  C  118  1  0.35364400  0.14550300  0.35306700  1
  C  123  1  0.34246700  0.11160900  0.34190900  1
  C  124  1  0.29841800  0.10611200  0.33991300  1
  C  127  1  0.28239900  0.11359100  0.37342100  1
  C  130  1  0.28212900  0.13055900  0.31602800  1
  C  133  1  0.29107400  0.67042000  0.16513300  1
  C  134  1  0.33505300  0.66720500  0.16893600  1
  C  135  1  0.27410700  0.63668100  0.17041500  1
  C  136  1  0.29091300  0.61123300  0.14787200  1
  C  139  1  0.33501400  0.61053100  0.15183200  1
  C  140  1  0.35364900  0.64328900  0.14550500  1
  C  145  1  0.34247300  0.65444700  0.11161100  1
  C  146  1  0.29842300  0.65644500  0.10611500  1
  C  149  1  0.28240400  0.62293500  0.11359400  1
  C  152  1  0.28213400  0.68032800  0.13056300  1
  C  155  1  0.29107100  0.32594000  0.83122100  1
  C  156  1  0.33505000  0.32915600  0.82741800  1
  C  157  1  0.27410400  0.35968000  0.82593800  1
  C  158  1  0.29091000  0.38512900  0.84847900  1
  C  161  1  0.33501100  0.38583000  0.84451900  1
  C  162  1  0.35364600  0.35307100  0.85084900  1
  C  167  1  0.34246700  0.34191300  0.88474300  1
  C  168  1  0.29841800  0.33991800  0.89023900  1
  C  171  1  0.28240100  0.37342800  0.88275900  1
  C  174  1  0.28213000  0.31603500  0.86579400  1
  C  177  1  0.79300100  0.82619800  0.33130100  1
  C  178  1  0.83734500  0.82869400  0.32914400  1
  C  179  1  0.78323800  0.81762500  0.36635100  1
  C  180  1  0.79786300  0.84237200  0.39069100  1
  C  183  1  0.84197200  0.84469500  0.38646700  1
  C  184  1  0.85431800  0.85355100  0.35232200  1
  C  189  1  0.83512800  0.88589700  0.34440500  1
  C  190  1  0.79090900  0.88551800  0.34702300  1
  C  193  1  0.78131900  0.87519100  0.38150200  1
  C  196  1  0.77511100  0.85932400  0.32471100  1
  C  199  1  0.79300900  0.17016500  0.66505300  1
  C  200  1  0.83735600  0.16766800  0.66721200  1
  C  201  1  0.78324900  0.17874100  0.63000500  1
  C  202  1  0.79787400  0.15399400  0.60566200  1
  C  205  1  0.84198300  0.15167100  0.60988700  1
  C  206  1  0.85432700  0.14281000  0.64403100  1
  C  211  1  0.83513700  0.11046500  0.65194600  1
  C  212  1  0.79091800  0.11084700  0.64932800  1
  C  215  1  0.78132700  0.12117600  0.61484900  1
  C  218  1  0.77512000  0.13704000  0.67164000  1
  C  221  1  0.79300400  0.66505500  0.82619100  1
  C  222  1  0.83735000  0.66721200  0.82868700  1
  C  223  1  0.78324300  0.63000500  0.81761300  1
  C  224  1  0.79786800  0.60566200  0.84236000  1
  C  227  1  0.84197400  0.60988700  0.84468300  1
  C  228  1  0.85432100  0.64403100  0.85354400  1
  C  233  1  0.83513100  0.65194600  0.88588800  1
  C  234  1  0.79091200  0.64932800  0.88550900  1
  C  237  1  0.78132400  0.61484900  0.87517900  1
  C  240  1  0.77511400  0.67164000  0.85931700  1
  C  243  1  0.79300400  0.33130300  0.17016500  1
  C  244  1  0.83735000  0.32914400  0.16766800  1
  C  245  1  0.78324300  0.36635100  0.17874000  1
  C  246  1  0.79786500  0.39069300  0.15399200  1
  C  249  1  0.84197400  0.38646900  0.15166900  1
  C  250  1  0.85432100  0.35232200  0.14281000  1
  C  255  1  0.83513100  0.34440500  0.11046500  1
  C  256  1  0.79091200  0.34702500  0.11084600  1
  C  259  1  0.78132100  0.38150500  0.12117300  1
  C  262  1  0.77511400  0.32471300  0.13704000  1
  C  265  1  0.70229600  0.16530400  0.32518200  1
  C  266  1  0.65787800  0.16674100  0.32796600  1
  C  267  1  0.71825700  0.16861100  0.35955600  1
  C  268  1  0.70324500  0.14305500  0.38300800  1
  C  271  1  0.65891600  0.14419900  0.38344600  1
  C  272  1  0.64132600  0.14055400  0.34986800  1
  C  277  1  0.65576100  0.10841400  0.33641000  1
  C  278  1  0.69992700  0.10505400  0.33447400  1
  C  281  1  0.71492200  0.11048500  0.36867700  1
  C  284  1  0.71455400  0.13212400  0.31286700  1
  C  287  1  0.70229600  0.83105400  0.67117700  1
  C  288  1  0.65787800  0.82961700  0.66839200  1
  C  289  1  0.71825700  0.82775000  0.63680000  1
  C  290  1  0.70324500  0.85330500  0.61335000  1
  C  293  1  0.65891600  0.85216000  0.61291200  1
  C  294  1  0.64132600  0.85580400  0.64649300  1
  C  299  1  0.65576100  0.88794400  0.65994800  1
  C  300  1  0.69992700  0.89130700  0.66188500  1
  C  303  1  0.71492200  0.88587400  0.62768200  1
  C  306  1  0.71455400  0.86423700  0.68349200  1
  C  309  1  0.70229800  0.32517900  0.83105000  1
  C  310  1  0.65788100  0.32796400  0.82961400  1
  C  311  1  0.71825700  0.35955300  0.82774600  1
  C  312  1  0.70324800  0.38300600  0.85330300  1
  C  315  1  0.65891900  0.38344300  0.85215800  1
  C  316  1  0.64132900  0.34986300  0.85580200  1
  C  321  1  0.65576400  0.33640600  0.88794200  1
  C  322  1  0.69993000  0.33447100  0.89130200  1
  C  325  1  0.71492500  0.36867400  0.88587200  1
  C  328  1  0.71455700  0.31286400  0.86422900  1
  C  331  1  0.70230100  0.67117200  0.16530800  1
  C  332  1  0.65788400  0.66838800  0.16674300  1
  C  333  1  0.71826000  0.63679800  0.16861600  1
  C  334  1  0.70325100  0.61334600  0.14306000  1
  C  337  1  0.65892100  0.61290800  0.14420200  1
  C  338  1  0.64133200  0.64648800  0.14055600  1
  C  343  1  0.65577000  0.65994300  0.10841700  1
  C  344  1  0.69993500  0.66187800  0.10505800  1
  C  347  1  0.71493000  0.62767700  0.11049100  1
  C  350  1  0.71456300  0.68348700  0.13212800  1
  C  353  1  0.21053300  0.16877300  0.57306400  1
  C  354  1  0.18450800  0.17541300  0.54855000  1
  C  355  1  0.19634200  0.17908600  0.51735200  1
  C  356  1  0.23495000  0.17695000  0.50959800  1
  C  357  1  0.26160100  0.17317400  0.53379100  1
  C  358  1  0.24950700  0.16958500  0.56490300  1
  C  361  1  0.24612300  0.17100600  0.47833000  1
  C  362  1  0.26605600  0.19372200  0.46076900  1
  C  363  1  0.27958300  0.18569700  0.43065000  1
  C  364  1  0.27450300  0.15556000  0.41724100  1
  C  365  1  0.25435200  0.13356600  0.43569200  1
  C  366  1  0.24033700  0.14064400  0.46581100  1
  C  377  1  0.21052700  0.82757000  0.42329200  1
  C  378  1  0.18450300  0.82093400  0.44780500  1
  C  379  1  0.19633700  0.81725700  0.47900600  1
  C  380  1  0.23494500  0.81939300  0.48675700  1
  C  381  1  0.26159500  0.82317000  0.46256500  1
  C  382  1  0.24950000  0.82676000  0.43145300  1
  C  385  1  0.24612000  0.82533800  0.51802400  1
  C  386  1  0.26605500  0.80262400  0.53558700  1
  C  387  1  0.27958500  0.81065100  0.56570400  1
  C  388  1  0.27450700  0.84078900  0.57911000  1
  C  389  1  0.25435200  0.86278200  0.56066200  1
  C  390  1  0.24033400  0.85570100  0.53054300  1
  C  401  1  0.21053100  0.42329500  0.16878400  1
  C  402  1  0.18450700  0.44780800  0.17541900  1
  C  403  1  0.19634100  0.47900900  0.17909100  1
  C  404  1  0.23494900  0.48676000  0.17695600  1
  C  405  1  0.26160000  0.46256500  0.17318300  1
  C  406  1  0.24950400  0.43145600  0.16959500  1
  C  409  1  0.24612500  0.51802600  0.17101100  1
  C  410  1  0.26606000  0.53558700  0.19372600  1
  C  411  1  0.27958800  0.56570600  0.18569900  1
  C  412  1  0.27450800  0.57911400  0.15556200  1
  C  413  1  0.25435600  0.56066400  0.13356900  1
  C  414  1  0.24033900  0.53054700  0.14064800  1
  C  425  1  0.21053100  0.57305900  0.82758600  1
  C  426  1  0.18450500  0.54855300  0.82092900  1
  C  427  1  0.19633900  0.51735200  0.81725000  1
  C  428  1  0.23494600  0.50959800  0.81939000  1
  C  429  1  0.26159800  0.53379100  0.82317000  1
  C  430  1  0.24950500  0.56490000  0.82676700  1
  C  433  1  0.24611800  0.47833200  0.82533400  1
  C  434  1  0.26605700  0.46077100  0.80262100  1
  C  435  1  0.27958700  0.43065500  0.81065100  1
  C  436  1  0.27450800  0.41724800  0.84078900  1
  C  437  1  0.25434700  0.43569400  0.86277800  1
  C  438  1  0.24032900  0.46581100  0.85569600  1
  C  449  1  0.78525900  0.83412700  0.42387300  1
  C  450  1  0.81073800  0.83059300  0.44940000  1
  C  451  1  0.79802900  0.82833100  0.48050000  1
  C  452  1  0.75908200  0.82921200  0.48734300  1
  C  453  1  0.73314500  0.83027900  0.46234300  1
  C  454  1  0.74611100  0.83228900  0.43129400  1
  C  457  1  0.74645500  0.83448000  0.51845000  1
  C  458  1  0.72545900  0.81145700  0.53476200  1
  C  459  1  0.71193400  0.81826200  0.56519100  1
  C  460  1  0.71855700  0.84729000  0.58046100  1
  C  461  1  0.73933000  0.86978400  0.56311800  1
  C  462  1  0.75304400  0.86402600  0.53258900  1
  C  473  1  0.78526700  0.16224300  0.57248300  1
  C  474  1  0.81074600  0.16577100  0.54695300  1
  C  475  1  0.79803800  0.16803500  0.51585300  1
  C  476  1  0.75909300  0.16715600  0.50901100  1
  C  477  1  0.73315600  0.16609000  0.53401100  1
  C  478  1  0.74612200  0.16408200  0.56506000  1
  C  481  1  0.74646400  0.16188600  0.47790300  1
  C  482  1  0.72546500  0.18490800  0.46159100  1
  C  483  1  0.71193700  0.17810000  0.43116500  1
  C  484  1  0.71855700  0.14907100  0.41589500  1
  C  485  1  0.73933200  0.12657900  0.43323800  1
  C  486  1  0.75305300  0.13233900  0.46376600  1
  C  497  1  0.78526200  0.57248300  0.83411300  1
  C  498  1  0.81074100  0.54695300  0.83058600  1
  C  499  1  0.79803200  0.51585300  0.82832400  1
  C  500  1  0.75908500  0.50901100  0.82920200  1
  C  501  1  0.73314800  0.53401100  0.83026800  1
  C  502  1  0.74611600  0.56506000  0.83227500  1
  C  505  1  0.74645500  0.47790300  0.83447300  1
  C  506  1  0.72546500  0.46158900  0.81145000  1
  C  507  1  0.71193700  0.43116300  0.81825700  1
  C  508  1  0.71855700  0.41589300  0.84728700  1
  C  509  1  0.73932700  0.43324000  0.86978200  1
  C  510  1  0.75304100  0.46376900  0.86402300  1
  C  521  1  0.78525900  0.42387500  0.16223200  1
  C  522  1  0.81074300  0.44939800  0.16578300  1
  C  523  1  0.79803500  0.48049800  0.16805200  1
  C  524  1  0.75909000  0.48734300  0.16716700  1
  C  525  1  0.73315100  0.46234300  0.16609500  1
  C  526  1  0.74611300  0.43129400  0.16408000  1
  C  529  1  0.74646400  0.51845000  0.16189600  1
  C  530  1  0.72546500  0.53476200  0.18491700  1
  C  531  1  0.71193700  0.56518800  0.17810700  1
  C  532  1  0.71856000  0.58045900  0.14907800  1
  C  533  1  0.73934100  0.56311400  0.12658800  1
  C  534  1  0.75305500  0.53258700  0.13235000  1
  C  545  1  0.71320900  0.67379200  0.07323000  1
  C  546  1  0.68806400  0.68184500  0.04850400  1
  C  547  1  0.70075800  0.68598300  0.01762700  1
  C  548  1  0.73938000  0.68268100  0.01039100  1
  C  549  1  0.76534300  0.67806300  0.03498300  1
  C  550  1  0.75241100  0.67438900  0.06590300  1
  C  553  1  0.75030200  0.67560200  0.97927500  1
  C  554  1  0.77014200  0.69751400  0.96067100  1
  C  555  1  0.78204200  0.68860400  0.93031000  1
  C  556  1  0.77530600  0.65837200  0.91759200  1
  C  557  1  0.75496300  0.63732700  0.93698400  1
  C  558  1  0.74267600  0.64524900  0.96740800  1
  C  569  1  0.71320300  0.32255400  0.92312800  1
  C  570  1  0.68805500  0.31450100  0.94785400  1
  C  571  1  0.70074900  0.31036300  0.97873000  1
  C  572  1  0.73937500  0.31366500  0.98596800  1
  C  573  1  0.76533400  0.31828300  0.96137500  1
  C  574  1  0.75240500  0.32195700  0.93045500  1
  C  577  1  0.75029400  0.32074400  0.01708200  1
  C  578  1  0.77013900  0.29883500  0.03568800  1
  C  579  1  0.78204200  0.30774500  0.06604600  1
  C  580  1  0.77530600  0.33797900  0.07876300  1
  C  581  1  0.75495800  0.35902200  0.05937000  1
  C  582  1  0.74267100  0.35110000  0.02894900  1
  C  593  1  0.71319800  0.92313500  0.67379700  1
  C  594  1  0.68804900  0.94785900  0.68185200  1
  C  595  1  0.70074400  0.97873400  0.68599000  1
  C  596  1  0.73936600  0.98597300  0.68268800  1
  C  597  1  0.76532900  0.96138000  0.67807300  1
  C  598  1  0.75240000  0.93046000  0.67439600  1
  C  601  1  0.75028800  0.01708600  0.67560900  1
  C  602  1  0.77013700  0.03568900  0.69751800  1
  C  603  1  0.78204500  0.06604600  0.68860600  1
  C  604  1  0.77531200  0.07876200  0.65837400  1
  C  605  1  0.75495500  0.05937500  0.63733200  1
  C  606  1  0.74266200  0.02895500  0.64525600  1
  C  617  1  0.71320100  0.07322200  0.32256800  1
  C  618  1  0.68804900  0.04850700  0.31449400  1
  C  619  1  0.70074400  0.01763000  0.31034900  1
  C  620  1  0.73936600  0.01039100  0.31365300  1
  C  621  1  0.76532900  0.03498200  0.31827600  1
  C  622  1  0.75240300  0.06590200  0.32195700  1
  C  625  1  0.75028500  0.97927500  0.32073500  1
  C  626  1  0.77013400  0.96067100  0.29882600  1
  C  627  1  0.78203900  0.93031500  0.30774100  1
  C  628  1  0.77530900  0.91760200  0.33797400  1
  C  629  1  0.75494600  0.93698900  0.35901500  1
  C  630  1  0.74265400  0.96740800  0.35108800  1
  C  641  1  0.28660200  0.33060300  0.92328700  1
  C  642  1  0.31263000  0.32571600  0.94818000  1
  C  643  1  0.30054600  0.32263600  0.97940900  1
  C  644  1  0.26174900  0.32369700  0.98685300  1
  C  645  1  0.23527800  0.32593600  0.96234000  1
  C  646  1  0.24759500  0.32895900  0.93123800  1
  C  649  1  0.24963600  0.32923800  0.01801300  1
  C  650  1  0.22874200  0.30643900  0.03472100  1
  C  651  1  0.21456700  0.31395300  0.06477800  1
  C  652  1  0.22011400  0.34360200  0.07910600  1
  C  653  1  0.24070000  0.36586700  0.06130800  1
  C  654  1  0.25528700  0.35932100  0.03123700  1
  C  665  1  0.28660800  0.66576200  0.07306600  1
  C  666  1  0.31263000  0.67065000  0.04817500  1
  C  667  1  0.30054900  0.67372900  0.01694500  1
  C  668  1  0.26175000  0.67267100  0.00950300  1
  C  669  1  0.23528000  0.67043200  0.03401600  1
  C  670  1  0.24759800  0.66740600  0.06511800  1
  C  673  1  0.24963700  0.66712800  0.97834300  1
  C  674  1  0.22874200  0.68992700  0.96163500  1
  C  675  1  0.21456600  0.68241000  0.93157900  1
  C  676  1  0.22011200  0.65275900  0.91725300  1
  C  677  1  0.24069600  0.63049400  0.93505200  1
  C  678  1  0.25528500  0.63704100  0.96512200  1
  C  689  1  0.28660500  0.07306100  0.33059600  1
  C  690  1  0.31263000  0.04817100  0.32570600  1
  C  691  1  0.30054600  0.01694200  0.32262900  1
  C  692  1  0.26174800  0.00950000  0.32369000  1
  C  693  1  0.23527700  0.03401200  0.32592600  1
  C  694  1  0.24759500  0.06511500  0.32895200  1
  C  697  1  0.24963500  0.97833900  0.32923100  1
  C  698  1  0.22873800  0.96163100  0.30643400  1
  C  699  1  0.21456300  0.93157500  0.31394900  1
  C  700  1  0.22011100  0.91724800  0.34359900  1
  C  701  1  0.24069700  0.93504800  0.36586200  1
  C  702  1  0.25528500  0.96511700  0.35931700  1
  C  713  1  0.28660200  0.92329200  0.66574800  1
  C  714  1  0.31263000  0.94817500  0.67065700  1
  C  715  1  0.30054900  0.97940400  0.67374100  1
  C  716  1  0.26175200  0.98684900  0.67267500  1
  C  717  1  0.23527900  0.96234000  0.67043200  1
  C  718  1  0.24759500  0.93123500  0.66739900  1
  C  721  1  0.24964300  0.01801000  0.66713500  1
  C  722  1  0.22874700  0.03472000  0.68993100  1
  C  723  1  0.21457300  0.06477600  0.68241400  1
  C  724  1  0.22012100  0.07910200  0.65276400  1
  C  725  1  0.24070700  0.06130200  0.63050100  1
  C  726  1  0.25529400  0.03123200  0.63704800  1
  C  737  1  0.89732500  0.14233600  0.64638700  1
  C  738  1  0.91857200  0.16972200  0.63941600  1
  C  739  1  0.95826900  0.17003200  0.64018200  1
  C  740  1  0.97850500  0.14282200  0.64840300  1
  C  741  1  0.95819000  0.11552300  0.65608200  1
  C  742  1  0.91851000  0.11535500  0.65500900  1
  C  745  1  0.01862000  0.14278300  0.64840800  1
  C  746  1  0.03875000  0.16158400  0.67006000  1
  C  747  1  0.07866400  0.16210800  0.66892100  1
  C  748  1  0.09987200  0.14441300  0.64694400  1
  C  749  1  0.07864600  0.12529800  0.62625300  1
  C  750  1  0.03872100  0.12435200  0.62638900  1
  C  761  1  0.89731600  0.85402400  0.34996600  1
  C  762  1  0.91856100  0.82663800  0.35694000  1
  C  763  1  0.95825800  0.82632700  0.35617700  1
  C  764  1  0.97849600  0.85353500  0.34795500  1
  C  765  1  0.95818100  0.88083700  0.34027600  1
  C  766  1  0.91850200  0.88100600  0.34134700  1
  C  769  1  0.01861000  0.85357200  0.34795000  1
  C  770  1  0.03873900  0.83477300  0.32629600  1
  C  771  1  0.07865300  0.83424600  0.32743700  1
  C  772  1  0.09986100  0.85193600  0.34941800  1
  C  773  1  0.07863600  0.87105300  0.37010700  1
  C  774  1  0.03871200  0.87200200  0.36997200  1
  C  785  1  0.89731900  0.34996900  0.14233600  1
  C  786  1  0.91856700  0.35694000  0.16972200  1
  C  787  1  0.95826300  0.35617700  0.17003300  1
  C  788  1  0.97849900  0.34795700  0.14282300  1
  C  789  1  0.95818400  0.34027900  0.11552300  1
  C  790  1  0.91850400  0.34134900  0.11535500  1
  C  793  1  0.01861400  0.34795200  0.14278400  1
  C  794  1  0.03874400  0.32629900  0.16158400  1
  C  795  1  0.07865700  0.32743900  0.16211000  1
  C  796  1  0.09986600  0.34941800  0.14441800  1
  C  797  1  0.07864000  0.37011000  0.12530400  1
  C  798  1  0.03871500  0.36997400  0.12435600  1
  C  809  1  0.89731900  0.64638700  0.85401700  1
  C  810  1  0.91856700  0.63941600  0.82663100  1
  C  811  1  0.95826300  0.64018200  0.82632000  1
  C  812  1  0.97849900  0.64840300  0.85352800  1
  C  813  1  0.95818400  0.65608200  0.88082800  1
  C  814  1  0.91850400  0.65500900  0.88099600  1
  C  817  1  0.01861500  0.64840600  0.85356800  1
  C  818  1  0.03874500  0.67006000  0.83476600  1
  C  819  1  0.07865900  0.66891700  0.83424200  1
  C  820  1  0.09986600  0.64694000  0.85193800  1
  C  821  1  0.07864000  0.62625100  0.87105100  1
  C  822  1  0.03871500  0.62638700  0.87199900  1
  C  833  1  0.59837300  0.85342500  0.64469600  1
  C  834  1  0.58081700  0.82597800  0.63267900  1
  C  835  1  0.54132400  0.82333400  0.62981000  1
  C  836  1  0.51765700  0.84818400  0.63915800  1
  C  837  1  0.53428300  0.87532200  0.65185500  1
  C  838  1  0.57368300  0.87786500  0.65437900  1
  C  841  1  0.47767200  0.84601800  0.63752600  1
  C  842  1  0.45808600  0.82510700  0.65752000  1
  C  843  1  0.41817800  0.82613900  0.65858000  1
  C  844  1  0.39650900  0.84780200  0.64087200  1
  C  845  1  0.41715200  0.86755700  0.62038700  1
  C  846  1  0.45701500  0.86711000  0.61843200  1
  C  857  1  0.59837300  0.14293300  0.35166400  1
  C  858  1  0.58081400  0.17037800  0.36368200  1
  C  859  1  0.54132100  0.17302100  0.36655300  1
  C  860  1  0.51765700  0.14817000  0.35720500  1
  C  861  1  0.53428300  0.12103100  0.34450800  1
  C  862  1  0.57368300  0.11849000  0.34198300  1
  C  865  1  0.47766900  0.15033600  0.35883400  1
  C  866  1  0.45808300  0.17124700  0.33884300  1
  C  867  1  0.41817800  0.17021400  0.33777800  1
  C  868  1  0.39650900  0.14854700  0.35548100  1
  C  869  1  0.41715200  0.12879300  0.37596900  1
  C  870  1  0.45701200  0.12924300  0.37792600  1
  C  881  1  0.59837900  0.64469200  0.14293300  1
  C  882  1  0.58082000  0.63267400  0.17037800  1
  C  883  1  0.54132700  0.62980500  0.17302000  1
  C  884  1  0.51766200  0.63915100  0.14816800  1
  C  885  1  0.53429100  0.65184800  0.12102900  1
  C  886  1  0.57369100  0.65437200  0.11848800  1
  C  889  1  0.47767500  0.63752100  0.15033300  1
  C  890  1  0.45809200  0.65751500  0.17124500  1
  C  891  1  0.41818300  0.65857800  0.17021300  1
  C  892  1  0.39651500  0.64087200  0.14854800  1
  C  893  1  0.41715700  0.62038700  0.12879300  1
  C  894  1  0.45701800  0.61842900  0.12924200  1
  C  905  1  0.59837600  0.35166200  0.85342300  1
  C  906  1  0.58081700  0.36367700  0.82597800  1
  C  907  1  0.54132400  0.36654800  0.82333600  1
  C  908  1  0.51766000  0.35720200  0.84818600  1
  C  909  1  0.53428600  0.34450300  0.87532500  1
  C  910  1  0.57368500  0.34197900  0.87786800  1
  C  913  1  0.47767200  0.35883200  0.84602000  1
  C  914  1  0.45808600  0.33884100  0.82510900  1
  C  915  1  0.41818000  0.33777800  0.82614200  1
  C  916  1  0.39651200  0.35548600  0.84780500  1
  C  917  1  0.41715400  0.37597100  0.86755900  1
  C  918  1  0.45701800  0.37792600  0.86711200  1
  C  929  1  0.27621200  0.30128500  0.80865600  1
  C  930  1  0.29078300  0.27024700  0.80951800  1
  C  931  1  0.28043700  0.24759800  0.78730200  1
  C  932  1  0.25420700  0.25505200  0.76366900  1
  C  933  1  0.23758300  0.28501900  0.76338800  1
  C  934  1  0.24846700  0.30763100  0.78543600  1
  C  937  1  0.24515600  0.23316400  0.73996900  1
  C  938  1  0.22510400  0.20549800  0.74751900  1
  C  939  1  0.21434800  0.18507500  0.72312300  1
  C  940  1  0.22195400  0.19135400  0.69110000  1
  C  941  1  0.24332300  0.21870200  0.68471400  1
  C  942  1  0.25506300  0.23955500  0.70845200  1
  C  953  1  0.27621600  0.69507600  0.18770000  1
  C  954  1  0.29078600  0.72611100  0.18683800  1
  C  955  1  0.28044000  0.74876200  0.20905200  1
  C  956  1  0.25420900  0.74130800  0.23268500  1
  C  957  1  0.23758600  0.71134200  0.23296700  1
  C  958  1  0.24847100  0.68873000  0.21091800  1
  C  961  1  0.24515600  0.76319600  0.25638500  1
  C  962  1  0.22509900  0.79085900  0.24883500  1
  C  963  1  0.21433800  0.81127900  0.27323300  1
  C  964  1  0.22194000  0.80499600  0.30525600  1
  C  965  1  0.24332100  0.77765400  0.31164000  1
  C  966  1  0.25506600  0.75680600  0.28790200  1
  C  977  1  0.27621000  0.18769700  0.30127800  1
  C  978  1  0.29078000  0.18683400  0.27024300  1
  C  979  1  0.28043500  0.20904900  0.24759100  1
  C  980  1  0.25420400  0.23268200  0.25504500  1
  C  981  1  0.23758100  0.23296400  0.28501400  1
  C  982  1  0.24846500  0.21091500  0.30762600  1
  C  985  1  0.24515400  0.25638200  0.23315900  1
  C  986  1  0.22510000  0.24883500  0.20549500  1
  C  987  1  0.21434200  0.27323300  0.18507300  1
  C  988  1  0.22194500  0.30525600  0.19135700  1
  C  989  1  0.24332200  0.31163700  0.21870100  1
  C  990  1  0.25506400  0.28789900  0.23955000  1
  C  1001  1  0.27620400  0.80865800  0.69507400  1
  C  1002  1  0.29077700  0.80951800  0.72610800  1
  C  1003  1  0.28043100  0.78730200  0.74876000  1
  C  1004  1  0.25420200  0.76366700  0.74130400  1
  C  1005  1  0.23758000  0.76338600  0.71133700  1
  C  1006  1  0.24846300  0.78543600  0.68872500  1
  C  1009  1  0.24515100  0.73996700  0.76319200  1
  C  1010  1  0.22510000  0.74751600  0.79085700  1
  C  1011  1  0.21434500  0.72311800  0.81128100  1
  C  1012  1  0.22195300  0.69109500  0.80500100  1
  C  1013  1  0.24331800  0.68471200  0.77765200  1
  C  1014  1  0.25505700  0.70845000  0.75679900  1
  C  1025  1  0.71626500  0.69376200  0.19037200  1
  C  1026  1  0.70287800  0.72515100  0.19099800  1
  C  1027  1  0.71461100  0.74667800  0.21389400  1
  C  1028  1  0.74088400  0.73773500  0.23702300  1
  C  1029  1  0.75515300  0.70693400  0.23662300  1
  C  1030  1  0.74296200  0.68546100  0.21384300  1
  C  1033  1  0.75305000  0.75935400  0.26018000  1
  C  1034  1  0.77417300  0.78615200  0.25144400  1
  C  1035  1  0.78629100  0.80719500  0.27490000  1
  C  1036  1  0.77864700  0.80267500  0.30720400  1
  C  1037  1  0.75745100  0.77557000  0.31495800  1
  C  1038  1  0.74449700  0.75406800  0.29218200  1
  C  1049  1  0.71626200  0.30259100  0.80598600  1
  C  1050  1  0.70287800  0.27120300  0.80535900  1
  C  1051  1  0.71461400  0.24967800  0.78246200  1
  C  1052  1  0.74088700  0.25862100  0.75933500  1
  C  1053  1  0.75515800  0.28942100  0.75973800  1
  C  1054  1  0.74296200  0.31089500  0.78251800  1
  C  1057  1  0.75305500  0.23700500  0.73617800  1
  C  1058  1  0.77418100  0.21020500  0.74491500  1
  C  1059  1  0.78629900  0.18916500  0.72145300  1
  C  1060  1  0.77865900  0.19368700  0.68915100  1
  C  1061  1  0.75746200  0.22079100  0.68140000  1
  C  1062  1  0.74450500  0.24229000  0.70417600  1
  C  1073  1  0.71626200  0.80599100  0.69376500  1
  C  1074  1  0.70287800  0.80536400  0.72515300  1
  C  1075  1  0.71461400  0.78246600  0.74667800  1
  C  1076  1  0.74088700  0.75933700  0.73773300  1
  C  1077  1  0.75515600  0.75974200  0.70693200  1
  C  1078  1  0.74296200  0.78252000  0.68546100  1
  C  1081  1  0.75305300  0.73618000  0.75935100  1
  C  1082  1  0.77417600  0.74491500  0.78615000  1
  C  1083  1  0.78629300  0.72145500  0.80719000  1
  C  1084  1  0.77865300  0.68915400  0.80266800  1
  C  1085  1  0.75745600  0.68140300  0.77556300  1
  C  1086  1  0.74449900  0.70417800  0.75406400  1
  C  1097  1  0.71625900  0.19036800  0.30259400  1
  C  1098  1  0.70287500  0.19099600  0.27120300  1
  C  1099  1  0.71461100  0.21389200  0.24967800  1
  C  1100  1  0.74088400  0.23702100  0.25862300  1
  C  1101  1  0.75515600  0.23661600  0.28942400  1
  C  1102  1  0.74295900  0.21383800  0.31089500  1
  C  1105  1  0.75305300  0.26017800  0.23700700  1
  C  1106  1  0.77417600  0.25144100  0.21020600  1
  C  1107  1  0.78629300  0.27490000  0.18916600  1
  C  1108  1  0.77865300  0.30720400  0.19368700  1
  C  1109  1  0.75745600  0.31495500  0.22079200  1
  C  1110  1  0.74449900  0.29218000  0.24229200  1
  N  371  1  0.22164400  0.11744500  0.48390100  1
  N  372  1  0.27213700  0.22387700  0.47365600  1
  N  395  1  0.22163700  0.87889800  0.51245300  1
  N  396  1  0.27213500  0.77246700  0.52270300  1
  N  419  1  0.22164400  0.51245800  0.11745000  1
  N  420  1  0.27214100  0.52270300  0.22388100  1
  N  443  1  0.22162800  0.48390100  0.87889300  1
  N  444  1  0.27214100  0.47365600  0.77246700  1
  N  467  1  0.77234400  0.88778000  0.51571500  1
  N  468  1  0.71873200  0.78199100  0.52054600  1
  N  491  1  0.77235500  0.10858700  0.48063900  1
  N  492  1  0.71873800  0.21437300  0.47580800  1
  N  515  1  0.77233900  0.48064300  0.88777500  1
  N  516  1  0.71874100  0.47580500  0.78198400  1
  N  539  1  0.77236100  0.51571300  0.10860000  1
  N  540  1  0.71873500  0.52054800  0.21438200  1
  N  563  1  0.72378600  0.62288100  0.98639400  1
  N  564  1  0.77777100  0.72773400  0.97279800  1
  N  587  1  0.72378000  0.37346500  0.00996200  1
  N  588  1  0.77776600  0.26861300  0.02356200  1
  N  611  1  0.72376300  0.00997100  0.62289300  1
  N  612  1  0.77776600  0.02356200  0.72773800  1
  N  635  1  0.72375200  0.98639400  0.37344900  1
  N  636  1  0.77776600  0.97279600  0.26860600  1
  N  659  1  0.27456100  0.38277800  0.01392400  1
  N  660  1  0.22265900  0.27655800  0.02119700  1
  N  683  1  0.27455900  0.61358400  0.98243700  1
  N  684  1  0.22266100  0.71980700  0.97515600  1
  N  707  1  0.27456100  0.98243000  0.38277400  1
  N  708  1  0.22265600  0.97515400  0.27655400  1
  N  731  1  0.27457100  0.01391700  0.61359400  1
  N  732  1  0.22266200  0.02119800  0.71981100  1
  N  755  1  0.01872400  0.10600200  0.60421300  1
  N  756  1  0.01876300  0.17927300  0.69278600  1
  N  779  1  0.01871500  0.89035100  0.39214800  1
  N  780  1  0.01875100  0.81708900  0.30356800  1
  N  803  1  0.01871900  0.39215000  0.10600700  1
  N  804  1  0.01875600  0.30357000  0.17927100  1
  N  827  1  0.01871700  0.60421100  0.89034700  1
  N  828  1  0.01875800  0.69278600  0.81707900  1
  N  851  1  0.47647000  0.88745200  0.59771000  1
  N  852  1  0.47861300  0.80438000  0.67713100  1
  N  875  1  0.47646800  0.10890000  0.39865100  1
  N  876  1  0.47861300  0.19197700  0.31923100  1
  N  899  1  0.47647300  0.59770800  0.10889800  1
  N  900  1  0.47862100  0.67712700  0.19197300  1
  N  923  1  0.47647300  0.39864800  0.88745500  1
  N  924  1  0.47861600  0.31922700  0.80438200  1
  N  947  1  0.27664800  0.26657800  0.70109900  1
  N  948  1  0.21485000  0.19921500  0.77900500  1
  N  971  1  0.27665800  0.72978500  0.29525500  1
  N  972  1  0.21484600  0.79714200  0.21734900  1
  N  995  1  0.27665300  0.29525200  0.26657300  1
  N  996  1  0.21484600  0.21734900  0.19921000  1
  N  1019  1  0.27664000  0.70109700  0.72977300  1
  N  1020  1  0.21484500  0.77900300  0.79713900  1
  N  1043  1  0.72247500  0.72772200  0.30091900  1
  N  1044  1  0.78368400  0.79120100  0.21957400  1
  N  1067  1  0.72248000  0.26863600  0.69543900  1
  N  1068  1  0.78369000  0.20515400  0.77678300  1
  N  1091  1  0.72247700  0.69544100  0.72771700  1
  N  1092  1  0.78368700  0.77678300  0.79120100  1
  N  1115  1  0.72247700  0.30091700  0.26863900  1
  N  1116  1  0.78368700  0.21957300  0.20515600  1
  O  373  1  0.25724100  0.24481400  0.45706200  1
  O  374  1  0.19223700  0.10771300  0.47057600  1
  O  375  1  0.24286300  0.09455500  0.48964500  1
  O  376  1  0.30679600  0.22971100  0.47637400  1
  O  397  1  0.25724100  0.75153000  0.53929600  1
  O  398  1  0.19223200  0.88863000  0.52578200  1
  O  399  1  0.24285500  0.90178800  0.50670900  1
  O  400  1  0.30679600  0.76663400  0.51998200  1
  O  421  1  0.25724700  0.53929600  0.24481900  1
  O  422  1  0.19223800  0.52578400  0.10771800  1
  O  423  1  0.24286200  0.50671100  0.09455900  1
  O  424  1  0.30680100  0.51998200  0.22971400  1
  O  445  1  0.25725100  0.45706000  0.75152800  1
  O  446  1  0.19222100  0.47057100  0.88862100  1
  O  447  1  0.24284100  0.48964700  0.90178600  1
  O  448  1  0.30680100  0.47637700  0.76663600  1
  O  469  1  0.73300900  0.76008900  0.53624700  1
  O  470  1  0.80198700  0.89630400  0.52950300  1
  O  471  1  0.75170400  0.91129800  0.51120000  1
  O  472  1  0.68396500  0.77684600  0.51739900  1
  O  493  1  0.73301500  0.23627400  0.46010400  1
  O  494  1  0.80199800  0.10006300  0.46685100  1
  O  495  1  0.75171600  0.08506800  0.48515600  1
  O  496  1  0.68397400  0.21951800  0.47895700  1
  O  517  1  0.73302300  0.46010200  0.76008400  1
  O  518  1  0.80198100  0.46685800  0.89630600  1
  O  519  1  0.75169000  0.48516000  0.91129100  1
  O  520  1  0.68397600  0.47895000  0.77683500  1
  O  541  1  0.73300900  0.53625200  0.23628300  1
  O  542  1  0.80200600  0.52950100  0.10007800  1
  O  543  1  0.75172400  0.51119500  0.08508000  1
  O  544  1  0.68396800  0.51739900  0.21952500  1
  O  565  1  0.76282100  0.74869700  0.95627300  1
  O  566  1  0.69337500  0.61388700  0.97414200  1
  O  567  1  0.74421700  0.59943400  0.99184100  1
  O  568  1  0.81270800  0.73282000  0.97433200  1
  O  589  1  0.76281900  0.24765200  0.04008900  1
  O  590  1  0.69336900  0.38246000  0.02221400  1
  O  591  1  0.74421100  0.39691300  0.00451200  1
  O  592  1  0.81270200  0.26352700  0.02202500  1
  O  613  1  0.76282100  0.04009100  0.74870100  1
  O  614  1  0.69335500  0.02222800  0.61390100  1
  O  615  1  0.74418800  0.00451900  0.59944100  1
  O  616  1  0.81270200  0.02202100  0.73282200  1
  O  637  1  0.76282100  0.95626800  0.24764300  1
  O  638  1  0.69334400  0.97413800  0.38243900  1
  O  639  1  0.74417700  0.99184600  0.39690100  1
  O  640  1  0.81270200  0.97433700  0.26352400  1
  O  661  1  0.23688200  0.25520200  0.03766200  1
  O  662  1  0.30373700  0.39208000  0.02789300  1
  O  663  1  0.25364300  0.40589300  0.00832600  1
  O  664  1  0.18801700  0.27104800  0.01774900  1
  O  685  1  0.23688400  0.74116300  0.95868900  1
  O  686  1  0.30373400  0.60428300  0.96846800  1
  O  687  1  0.25363900  0.59047400  0.98803800  1
  O  688  1  0.18801900  0.72531900  0.97860300  1
  O  709  1  0.23687800  0.95868900  0.25519500  1
  O  710  1  0.30373400  0.96846100  0.39207300  1
  O  711  1  0.25364200  0.98802900  0.40588600  1
  O  712  1  0.18801400  0.97860300  0.27104400  1
  O  733  1  0.23688300  0.03766400  0.74116800  1
  O  734  1  0.30374600  0.02788500  0.60429500  1
  O  735  1  0.25365300  0.00831700  0.59048100  1
  O  736  1  0.18801900  0.01775000  0.72532200  1
  O  757  1  0.02513600  0.20809600  0.69005300  1
  O  758  1  0.02552000  0.11463100  0.57664600  1
  O  759  1  0.02665600  0.07743100  0.60675400  1
  O  760  1  0.02712300  0.17091700  0.72014200  1
  O  781  1  0.02512200  0.78826400  0.30629800  1
  O  782  1  0.02551000  0.88172200  0.41971200  1
  O  783  1  0.02665100  0.91892200  0.38960900  1
  O  784  1  0.02711300  0.82544600  0.27621400  1
  O  805  1  0.02512800  0.30630300  0.20809500  1
  O  806  1  0.02551400  0.41971400  0.11463800  1
  O  807  1  0.02665300  0.38961200  0.07743500  1
  O  808  1  0.02711700  0.27621700  0.17091300  1
  O  829  1  0.02513200  0.69005300  0.78825500  1
  O  830  1  0.02551300  0.57664400  0.88172000  1
  O  831  1  0.02665000  0.60675100  0.91892000  1
  O  832  1  0.02711900  0.72013900  0.82543400  1
  O  853  1  0.47060200  0.77627000  0.67148800  1
  O  854  1  0.46743400  0.88240800  0.56970300  1
  O  855  1  0.47010800  0.91572400  0.60396700  1
  O  856  1  0.47258700  0.80979900  0.70562300  1
  O  877  1  0.47060000  0.22008400  0.32487700  1
  O  878  1  0.46742800  0.11394200  0.42665700  1
  O  879  1  0.47010800  0.08062800  0.39239300  1
  O  880  1  0.47259000  0.18655700  0.29074000  1
  O  901  1  0.47060800  0.67148300  0.22008100  1
  O  902  1  0.46743400  0.56970100  0.11394000  1
  O  903  1  0.47011100  0.60396200  0.08062500  1
  O  904  1  0.47259500  0.70561800  0.18655200  1
  O  925  1  0.47060500  0.32487300  0.77627200  1
  O  926  1  0.46743700  0.42665700  0.88241300  1
  O  927  1  0.47010800  0.39239300  0.91572800  1
  O  928  1  0.47259000  0.29073500  0.80980300  1
  O  949  1  0.22878000  0.17383500  0.78842400  1
  O  950  1  0.30777400  0.25946600  0.68883300  1
  O  951  1  0.25913800  0.28462800  0.68293200  1
  O  952  1  0.17957700  0.19815600  0.78233800  1
  O  973  1  0.22877200  0.82252600  0.20793500  1
  O  974  1  0.30778200  0.73690100  0.30751800  1
  O  975  1  0.25915300  0.71173300  0.31341900  1
  O  976  1  0.17957300  0.79819800  0.21401600  1
  O  997  1  0.22877400  0.20793400  0.17382800  1
  O  998  1  0.30777600  0.30751600  0.25945900  1
  O  999  1  0.25914600  0.31341700  0.28462600  1
  O  1000  1  0.17957300  0.21401700  0.19815200  1
  O  1021  1  0.22877600  0.78841900  0.82251900  1
  O  1022  1  0.30776500  0.68883100  0.73688300  1
  O  1023  1  0.25912900  0.68293000  0.71172600  1
  O  1024  1  0.17957200  0.78233300  0.79820000  1
  O  1045  1  0.77043100  0.81662500  0.20961200  1
  O  1046  1  0.69202600  0.73578700  0.31374900  1
  O  1047  1  0.74020600  0.70993700  0.31919400  1
  O  1048  1  0.81886400  0.79121700  0.21549700  1
  O  1069  1  0.77043300  0.17973000  0.78674200  1
  O  1070  1  0.69203200  0.26057200  0.68260900  1
  O  1071  1  0.74021100  0.28642400  0.67716700  1
  O  1072  1  0.81887000  0.20514000  0.78086200  1
  O  1093  1  0.77043300  0.78674500  0.81662500  1
  O  1094  1  0.69202900  0.68261300  0.73578200  1
  O  1095  1  0.74020900  0.67716900  0.70992900  1
  O  1096  1  0.81886700  0.78086200  0.79121700  1
  O  1117  1  0.77043100  0.20961300  0.17973200  1
  O  1118  1  0.69202900  0.31374700  0.26057400  1
  O  1119  1  0.74020900  0.31918900  0.28642600  1
  O  1120  1  0.81886700  0.21549500  0.20514100  1
