# generated using pymatgen
data_H20C34N3O2
_symmetry_space_group_name_H-M   'P 1'
_cell_length_a   51.27210000
_cell_length_b   51.27210000
_cell_length_c   51.27210000
_cell_angle_alpha   90.00000000
_cell_angle_beta   90.00000000
_cell_angle_gamma   90.00000000
_symmetry_Int_Tables_number   1
_chemical_formula_structural   H20C34N3O2
_chemical_formula_sum   'H480 C816 N72 O48'
_cell_volume   134785.54432258
_cell_formula_units_Z   24
loop_
 _symmetry_equiv_pos_site_id
 _symmetry_equiv_pos_as_xyz
  1  'x, y, z'
loop_
 _atom_site_type_symbol
 _atom_site_label
 _atom_site_symmetry_multiplicity
 _atom_site_fract_x
 _atom_site_fract_y
 _atom_site_fract_z
 _atom_site_occupancy
  H  49  1  0.04370400  0.65123900  0.49143100  1
  H  50  1  0.04345000  0.60454900  0.49159300  1
  H  51  1  0.96498400  0.65168000  0.51574200  1
  H  52  1  0.96467800  0.60499000  0.51547900  1
  H  53  1  0.00446700  0.59089800  0.55595100  1
  H  54  1  0.00376100  0.55609400  0.59077100  1
  H  55  1  0.00363900  0.51993400  0.51981500  1
  H  56  1  0.00302800  0.48765900  0.48753800  1
  H  57  1  0.00329600  0.59170200  0.45071100  1
  H  58  1  0.00341300  0.55676300  0.41577200  1
  H  59  1  0.04207000  0.49198300  0.40252500  1
  H  60  1  0.04178700  0.49163600  0.35583500  1
  H  61  1  0.96329300  0.51585700  0.40288600  1
  H  62  1  0.96306300  0.51593500  0.35619500  1
  H  63  1  0.00227600  0.45152400  0.41657100  1
  H  64  1  0.00297200  0.41670400  0.45137200  1
  H  65  1  0.00386100  0.45082600  0.59157100  1
  H  66  1  0.00282400  0.41589700  0.55663600  1
  H  67  1  0.96335200  0.40304900  0.49201800  1
  H  68  1  0.96315700  0.35635300  0.49157500  1
  H  69  1  0.04225800  0.40255800  0.51545200  1
  H  70  1  0.04200500  0.35587200  0.51545700  1
  H  71  1  0.04341700  0.51539500  0.60433800  1
  H  72  1  0.04374100  0.51574600  0.65103000  1
  H  73  1  0.96487700  0.49192400  0.65168500  1
  H  74  1  0.96449500  0.49201800  0.60499900  1
  H  123  1  0.49170800  0.04184400  0.65174600  1
  H  124  1  0.49179000  0.04217000  0.60506200  1
  H  125  1  0.51598600  0.96311400  0.65117600  1
  H  126  1  0.51564500  0.96339100  0.60448400  1
  H  127  1  0.55609200  0.00344100  0.59090000  1
  H  128  1  0.59090400  0.00319400  0.55608400  1
  H  129  1  0.51993700  0.00336800  0.51993900  1
  H  130  1  0.48765500  0.00334000  0.48766300  1
  H  131  1  0.45085100  0.00229300  0.59170700  1
  H  132  1  0.41590200  0.00287800  0.55678200  1
  H  133  1  0.40266900  0.04217600  0.49221500  1
  H  134  1  0.35598100  0.04194500  0.49185000  1
  H  135  1  0.40293600  0.96326400  0.51563300  1
  H  136  1  0.35624200  0.96309200  0.51572100  1
  H  137  1  0.41669600  0.00278500  0.45151600  1
  H  138  1  0.45149700  0.00393400  0.41671000  1
  H  139  1  0.59169400  0.00446500  0.45084300  1
  H  140  1  0.55676300  0.00389200  0.41590000  1
  H  141  1  0.49222500  0.96464100  0.40253300  1
  H  142  1  0.49185600  0.96504100  0.35584200  1
  H  143  1  0.51557400  0.04357100  0.40308300  1
  H  144  1  0.51565600  0.04391300  0.35639400  1
  H  145  1  0.60448400  0.04329400  0.51567800  1
  H  146  1  0.65117800  0.04356500  0.51601900  1
  H  147  1  0.65173800  0.96486000  0.49166700  1
  H  148  1  0.60505200  0.96453800  0.49174700  1
  H  197  1  0.65174600  0.49169400  0.04183600  1
  H  198  1  0.60506000  0.49177400  0.04216600  1
  H  199  1  0.65117100  0.51599800  0.96311400  1
  H  200  1  0.60447900  0.51565800  0.96339500  1
  H  201  1  0.59089400  0.55608800  0.00347500  1
  H  202  1  0.55607600  0.59090000  0.00322500  1
  H  203  1  0.51993400  0.51993200  0.00334600  1
  H  204  1  0.48765900  0.48765100  0.00334600  1
  H  205  1  0.59170400  0.45084700  0.00227600  1
  H  206  1  0.55677800  0.41589800  0.00285900  1
  H  207  1  0.49223000  0.40261400  0.04215100  1
  H  208  1  0.49186800  0.35592400  0.04186000  1
  H  209  1  0.51560800  0.40298100  0.96322700  1
  H  210  1  0.51569700  0.35629100  0.96299500  1
  H  211  1  0.45151200  0.41669000  0.00280200  1
  H  212  1  0.41670600  0.45149100  0.00395000  1
  H  213  1  0.45083600  0.59168800  0.00446400  1
  H  214  1  0.41589300  0.55675500  0.00389000  1
  H  215  1  0.40253500  0.49221700  0.96464300  1
  H  216  1  0.35584400  0.49185400  0.96503500  1
  H  217  1  0.40307500  0.51557800  0.04357000  1
  H  218  1  0.35638700  0.51566400  0.04390500  1
  H  219  1  0.51565300  0.60443600  0.04333300  1
  H  220  1  0.51599400  0.65112600  0.04365700  1
  H  221  1  0.49167300  0.65177700  0.96494100  1
  H  222  1  0.49175100  0.60509100  0.96456700  1
  H  271  1  0.54482600  0.15114400  0.99948300  1
  H  272  1  0.54490400  0.10452500  0.00024300  1
  H  273  1  0.46259400  0.15095200  0.00527100  1
  H  274  1  0.46277000  0.10434300  0.00529600  1
  H  275  1  0.50383300  0.09135800  0.05519500  1
  H  276  1  0.50374700  0.05672900  0.09044100  1
  H  277  1  0.50394600  0.02003300  0.01975500  1
  H  278  1  0.50396600  0.98751100  0.98780000  1
  H  279  1  0.50383700  0.09124200  0.95012100  1
  H  280  1  0.50391700  0.05586900  0.91537100  1
  H  281  1  0.54493500  0.00034900  0.90308700  1
  H  282  1  0.54490200  0.99929700  0.85647100  1
  H  283  1  0.46281100  0.00559100  0.90315000  1
  H  284  1  0.46268400  0.00527400  0.85654300  1
  H  285  1  0.50380000  0.95081300  0.91711400  1
  H  286  1  0.50388400  0.91618600  0.95235800  1
  H  287  1  0.50388800  0.95166900  0.09218200  1
  H  288  1  0.50384100  0.91629900  0.05742800  1
  H  289  1  0.46281300  0.90319300  0.00215300  1
  H  290  1  0.46266100  0.85658200  0.00206900  1
  H  291  1  0.54493900  0.90303800  0.00734900  1
  H  292  1  0.54488300  0.85641700  0.00800000  1
  H  293  1  0.54487500  0.00710300  0.10451400  1
  H  294  1  0.54480700  0.00802700  0.15113100  1
  H  295  1  0.46258300  0.00215700  0.15097800  1
  H  296  1  0.46274700  0.00196900  0.10437100  1
  H  345  1  0.99948500  0.54482400  0.15106700  1
  H  346  1  0.00024900  0.54490400  0.10444800  1
  H  347  1  0.00526400  0.46259200  0.15087400  1
  H  348  1  0.00529400  0.46276800  0.10426400  1
  H  349  1  0.05519500  0.50384100  0.09128600  1
  H  350  1  0.09044200  0.50375500  0.05665700  1
  H  351  1  0.01975500  0.50394000  0.01996100  1
  H  352  1  0.98780000  0.50397200  0.98743900  1
  H  353  1  0.95012200  0.50383700  0.09117200  1
  H  354  1  0.91537100  0.50392100  0.05580100  1
  H  355  1  0.90308100  0.54493700  0.00028800  1
  H  356  1  0.85646700  0.54490200  0.99926400  1
  H  357  1  0.90315300  0.46281300  0.00553100  1
  H  358  1  0.85654500  0.46268200  0.00524000  1
  H  359  1  0.91711200  0.50380200  0.95074500  1
  H  360  1  0.95235400  0.50388600  0.91611600  1
  H  361  1  0.09218000  0.50388000  0.95159700  1
  H  362  1  0.05742700  0.50383500  0.91622700  1
  H  363  1  0.00214700  0.46281500  0.90311400  1
  H  364  1  0.00206300  0.46266300  0.85650600  1
  H  365  1  0.00735100  0.54493900  0.90296000  1
  H  366  1  0.00800400  0.54488300  0.85633900  1
  H  367  1  0.10450800  0.54487900  0.00703800  1
  H  368  1  0.15112500  0.54481500  0.00798600  1
  H  369  1  0.15098100  0.46258900  0.00212200  1
  H  370  1  0.10437400  0.46274900  0.00190900  1
  H  419  1  0.15104500  0.00025500  0.54463100  1
  H  420  1  0.10442700  0.00105900  0.54458800  1
  H  421  1  0.15107200  0.00598900  0.46239700  1
  H  422  1  0.10446300  0.00606200  0.46245000  1
  H  423  1  0.09091200  0.05598200  0.50344700  1
  H  424  1  0.05596100  0.09092500  0.50321300  1
  H  425  1  0.01990600  0.01991100  0.50333200  1
  H  426  1  0.98765000  0.98764800  0.50334600  1
  H  427  1  0.09171200  0.95091000  0.50341400  1
  H  428  1  0.05665900  0.91585200  0.50334000  1
  H  429  1  0.00140400  0.90318900  0.54431900  1
  H  430  1  0.00136700  0.85657800  0.54446500  1
  H  431  1  0.00656000  0.90304600  0.46218900  1
  H  432  1  0.00725100  0.85642400  0.46224100  1
  H  433  1  0.95159100  0.91663500  0.50327200  1
  H  434  1  0.91664200  0.95157600  0.50350800  1
  H  435  1  0.95089100  0.09170300  0.50330500  1
  H  436  1  0.91584100  0.05664200  0.50341000  1
  H  437  1  0.90308100  0.00138000  0.46249700  1
  H  438  1  0.85647100  0.00134500  0.46247000  1
  H  439  1  0.90315200  0.00655100  0.54462500  1
  H  440  1  0.85653000  0.00724600  0.54469400  1
  H  441  1  0.00605000  0.10441600  0.54426100  1
  H  442  1  0.00595400  0.15102400  0.54437000  1
  H  443  1  0.00019300  0.15109800  0.46213800  1
  H  444  1  0.00101800  0.10447800  0.46212400  1
  H  451  1  0.97568200  0.47193100  0.18790500  1
  H  458  1  0.98625100  0.54149700  0.27207600  1
  H  459  1  0.98680100  0.54184600  0.31872300  1
  H  460  1  0.01767200  0.46547300  0.31888900  1
  H  461  1  0.02785500  0.53542900  0.18931200  1
  H  462  1  0.01735700  0.46526800  0.27226700  1
  H  463  1  0.02703600  0.53518600  0.23573200  1
  H  473  1  0.03152700  0.47194300  0.81938100  1
  H  480  1  0.02091300  0.54154600  0.73524200  1
  H  481  1  0.02020800  0.54188900  0.68859200  1
  H  482  1  0.98903800  0.46563900  0.68855200  1
  H  483  1  0.97953800  0.53559100  0.81816800  1
  H  484  1  0.98952000  0.46543800  0.73516900  1
  H  485  1  0.98020500  0.53536300  0.77174500  1
  H  495  1  0.18793400  0.97625600  0.47183900  1
  H  502  1  0.27212800  0.98643700  0.54146000  1
  H  503  1  0.31878100  0.98686400  0.54180900  1
  H  504  1  0.31902700  0.01789700  0.46550400  1
  H  505  1  0.18946600  0.02843200  0.53532800  1
  H  506  1  0.27240300  0.01768600  0.46529400  1
  H  507  1  0.23588600  0.02740500  0.53516000  1
  H  517  1  0.81954300  0.03102400  0.47190200  1
  H  524  1  0.73538200  0.02052700  0.54159100  1
  H  525  1  0.68873100  0.01991700  0.54194200  1
  H  526  1  0.68861200  0.98902500  0.46557700  1
  H  527  1  0.81819700  0.97889600  0.53543500  1
  H  528  1  0.73522600  0.98939500  0.46537400  1
  H  529  1  0.77177200  0.97977000  0.53527900  1
  H  539  1  0.47190600  0.18799400  0.97571500  1
  H  546  1  0.54145800  0.27216900  0.98615200  1
  H  547  1  0.54180300  0.31881800  0.98669600  1
  H  548  1  0.46552200  0.31898000  0.01778200  1
  H  549  1  0.53545900  0.18939600  0.02781900  1
  H  550  1  0.46531300  0.27235700  0.01745700  1
  H  551  1  0.53521700  0.23581800  0.02700000  1
  H  561  1  0.47196800  0.81946700  0.03156300  1
  H  568  1  0.54158700  0.73533100  0.02080100  1
  H  569  1  0.54193000  0.68868600  0.02008400  1
  H  570  1  0.46558600  0.68864500  0.98914400  1
  H  571  1  0.53555800  0.81825700  0.97949900  1
  H  572  1  0.46539100  0.73526100  0.98961800  1
  H  573  1  0.53533000  0.77183300  0.98016200  1
  H  583  1  0.47199100  0.97559800  0.81956600  1
  H  590  1  0.54160600  0.98609300  0.73536300  1
  H  591  1  0.54194200  0.98672500  0.68871300  1
  H  592  1  0.46560400  0.01768800  0.68863700  1
  H  593  1  0.53560900  0.02762500  0.81817900  1
  H  594  1  0.46541900  0.01729700  0.73525300  1
  H  595  1  0.53537500  0.02681200  0.77175900  1
  H  605  1  0.47186100  0.03165000  0.18807900  1
  H  612  1  0.54142300  0.02101300  0.27222400  1
  H  613  1  0.54177200  0.02033200  0.31886900  1
  H  614  1  0.46551600  0.98918100  0.31894700  1
  H  615  1  0.53548200  0.97962800  0.18932900  1
  H  616  1  0.46530700  0.98964100  0.27232300  1
  H  617  1  0.53522800  0.98029300  0.23575200  1
  H  627  1  0.97618900  0.18787000  0.53498500  1
  H  634  1  0.98638400  0.27226300  0.46555900  1
  H  635  1  0.98687200  0.31892200  0.46535000  1
  H  636  1  0.01791600  0.31888900  0.54165100  1
  H  637  1  0.02836500  0.18953100  0.47149800  1
  H  638  1  0.01764600  0.27226900  0.54172100  1
  H  639  1  0.02733400  0.23595300  0.47175700  1
  H  649  1  0.03104900  0.81962500  0.53511900  1
  H  656  1  0.02053700  0.73530800  0.46567000  1
  H  657  1  0.01998400  0.68866100  0.46543600  1
  H  658  1  0.98910300  0.68868400  0.54180300  1
  H  659  1  0.97889300  0.81811500  0.47161100  1
  H  660  1  0.98941900  0.73530400  0.54189300  1
  H  661  1  0.97975700  0.77169000  0.47190000  1
  H  671  1  0.18807100  0.47187200  0.03163200  1
  H  678  1  0.27222600  0.54143100  0.02100000  1
  H  679  1  0.31887300  0.54177000  0.02032600  1
  H  680  1  0.31893700  0.46551000  0.98918500  1
  H  681  1  0.18933400  0.53548800  0.97960000  1
  H  682  1  0.27231400  0.46530900  0.98963700  1
  H  683  1  0.23575600  0.53523400  0.98027700  1
  H  693  1  0.81955800  0.47198700  0.97557900  1
  H  700  1  0.73536100  0.54160400  0.98608900  1
  H  701  1  0.68871100  0.54194200  0.98672900  1
  H  702  1  0.68863100  0.46560400  0.01768700  1
  H  703  1  0.81818300  0.53560500  0.02760300  1
  H  704  1  0.73524700  0.46541500  0.01728900  1
  H  705  1  0.77176200  0.53537100  0.02680200  1
  H  757  1  0.19973400  0.80726900  0.64746100  1
  H  758  1  0.19948000  0.76057900  0.64762300  1
  H  759  1  0.12101400  0.80771000  0.67177200  1
  H  760  1  0.12070800  0.76102000  0.67150900  1
  H  761  1  0.16049700  0.74692800  0.71198100  1
  H  762  1  0.15979100  0.71212400  0.74680100  1
  H  763  1  0.15966900  0.67596400  0.67584500  1
  H  764  1  0.15905800  0.64368900  0.64356800  1
  H  765  1  0.15932600  0.74773200  0.60674100  1
  H  766  1  0.15944300  0.71279300  0.57180200  1
  H  767  1  0.19810000  0.64801300  0.55855500  1
  H  768  1  0.19781700  0.64766600  0.51186500  1
  H  769  1  0.11932300  0.67188700  0.55891600  1
  H  770  1  0.11909300  0.67196500  0.51222500  1
  H  771  1  0.15830600  0.60755400  0.57260100  1
  H  772  1  0.15900200  0.57273400  0.60740200  1
  H  773  1  0.15989100  0.60685600  0.74760100  1
  H  774  1  0.15885400  0.57192700  0.71266600  1
  H  775  1  0.11938200  0.55907900  0.64804800  1
  H  776  1  0.11918700  0.51238300  0.64760500  1
  H  777  1  0.19828800  0.55858800  0.67148200  1
  H  778  1  0.19803500  0.51190200  0.67148700  1
  H  779  1  0.19944700  0.67142500  0.76036800  1
  H  780  1  0.19977100  0.67177600  0.80706000  1
  H  781  1  0.12090700  0.64795400  0.80771500  1
  H  782  1  0.12052500  0.64804800  0.76102900  1
  H  831  1  0.64773800  0.19787400  0.80777600  1
  H  832  1  0.64782000  0.19820000  0.76109200  1
  H  833  1  0.67201600  0.11914400  0.80720600  1
  H  834  1  0.67167500  0.11942100  0.76051400  1
  H  835  1  0.71212200  0.15947100  0.74693000  1
  H  836  1  0.74693400  0.15922400  0.71211400  1
  H  837  1  0.67596700  0.15939800  0.67596900  1
  H  838  1  0.64368500  0.15937000  0.64369300  1
  H  839  1  0.60688100  0.15832300  0.74773700  1
  H  840  1  0.57193200  0.15890800  0.71281200  1
  H  841  1  0.55869900  0.19820600  0.64824500  1
  H  842  1  0.51201100  0.19797500  0.64788000  1
  H  843  1  0.55896600  0.11929400  0.67166300  1
  H  844  1  0.51227200  0.11912200  0.67175100  1
  H  845  1  0.57272600  0.15881500  0.60754600  1
  H  846  1  0.60752700  0.15996400  0.57274000  1
  H  847  1  0.74772400  0.16049500  0.60687300  1
  H  848  1  0.71279300  0.15992200  0.57193000  1
  H  849  1  0.64825500  0.12067100  0.55856300  1
  H  850  1  0.64788600  0.12107100  0.51187200  1
  H  851  1  0.67160400  0.19960100  0.55911300  1
  H  852  1  0.67168600  0.19994300  0.51242400  1
  H  853  1  0.76051400  0.19932400  0.67170800  1
  H  854  1  0.80720800  0.19959500  0.67204900  1
  H  855  1  0.80776800  0.12089000  0.64769700  1
  H  856  1  0.76108200  0.12056800  0.64777700  1
  H  905  1  0.80777600  0.64772400  0.19786600  1
  H  906  1  0.76109000  0.64780400  0.19819600  1
  H  907  1  0.80720100  0.67202800  0.11914400  1
  H  908  1  0.76050900  0.67168800  0.11942500  1
  H  909  1  0.74692400  0.71211800  0.15950500  1
  H  910  1  0.71210600  0.74693000  0.15925500  1
  H  911  1  0.67596400  0.67596200  0.15937600  1
  H  912  1  0.64368900  0.64368100  0.15937600  1
  H  913  1  0.74773400  0.60687700  0.15830600  1
  H  914  1  0.71280800  0.57192800  0.15888900  1
  H  915  1  0.64826000  0.55864400  0.19818100  1
  H  916  1  0.64789800  0.51195400  0.19789000  1
  H  917  1  0.67163800  0.55901100  0.11925700  1
  H  918  1  0.67172700  0.51232100  0.11902500  1
  H  919  1  0.60754200  0.57272000  0.15883200  1
  H  920  1  0.57273600  0.60752100  0.15998000  1
  H  921  1  0.60686600  0.74771800  0.16049400  1
  H  922  1  0.57192300  0.71278500  0.15992000  1
  H  923  1  0.55856500  0.64824700  0.12067300  1
  H  924  1  0.51187400  0.64788400  0.12106500  1
  H  925  1  0.55910500  0.67160800  0.19960000  1
  H  926  1  0.51241700  0.67169400  0.19993500  1
  H  927  1  0.67168300  0.76046600  0.19936300  1
  H  928  1  0.67202400  0.80715600  0.19968700  1
  H  929  1  0.64770300  0.80780700  0.12097100  1
  H  930  1  0.64778100  0.76112100  0.12059700  1
  H  979  1  0.70085600  0.30717400  0.15551300  1
  H  980  1  0.70093400  0.26055500  0.15627300  1
  H  981  1  0.61862400  0.30698200  0.16130100  1
  H  982  1  0.61880000  0.26037300  0.16132600  1
  H  983  1  0.65986300  0.24738800  0.21122500  1
  H  984  1  0.65977700  0.21275900  0.24647100  1
  H  985  1  0.65997600  0.17606300  0.17578500  1
  H  986  1  0.65999600  0.14354100  0.14383000  1
  H  987  1  0.65986700  0.24727200  0.10615100  1
  H  988  1  0.65994700  0.21189900  0.07140130  1
  H  989  1  0.70096500  0.15637900  0.05911730  1
  H  990  1  0.70093200  0.15532700  0.01250130  1
  H  991  1  0.61884100  0.16162100  0.05918030  1
  H  992  1  0.61871400  0.16130400  0.01257330  1
  H  993  1  0.65983000  0.10684300  0.07314430  1
  H  994  1  0.65991400  0.07221630  0.10838800  1
  H  995  1  0.65991800  0.10769900  0.24821200  1
  H  996  1  0.65987100  0.07232930  0.21345800  1
  H  997  1  0.61884300  0.05922330  0.15818300  1
  H  998  1  0.61869100  0.01261230  0.15809900  1
  H  999  1  0.70096900  0.05906830  0.16337900  1
  H  1000  1  0.70091300  0.01244730  0.16403000  1
  H  1001  1  0.70090500  0.16313300  0.26054400  1
  H  1002  1  0.70083700  0.16405700  0.30716100  1
  H  1003  1  0.61861300  0.15818700  0.30700800  1
  H  1004  1  0.61877700  0.15799900  0.26040100  1
  H  1053  1  0.15551500  0.70085400  0.30709700  1
  H  1054  1  0.15627900  0.70093400  0.26047800  1
  H  1055  1  0.16129400  0.61862200  0.30690400  1
  H  1056  1  0.16132400  0.61879800  0.26029400  1
  H  1057  1  0.21122500  0.65987100  0.24731600  1
  H  1058  1  0.24647200  0.65978500  0.21268700  1
  H  1059  1  0.17578500  0.65997000  0.17599100  1
  H  1060  1  0.14383000  0.66000200  0.14346900  1
  H  1061  1  0.10615200  0.65986700  0.24720200  1
  H  1062  1  0.07140130  0.65995100  0.21183100  1
  H  1063  1  0.05911130  0.70096700  0.15631800  1
  H  1064  1  0.01249730  0.70093200  0.15529400  1
  H  1065  1  0.05918330  0.61884300  0.16156100  1
  H  1066  1  0.01257530  0.61871200  0.16127000  1
  H  1067  1  0.07314230  0.65983200  0.10677500  1
  H  1068  1  0.10838400  0.65991600  0.07214630  1
  H  1069  1  0.24821000  0.65991000  0.10762700  1
  H  1070  1  0.21345700  0.65986500  0.07225730  1
  H  1071  1  0.15817700  0.61884500  0.05914430  1
  H  1072  1  0.15809300  0.61869300  0.01253630  1
  H  1073  1  0.16338100  0.70096900  0.05899030  1
  H  1074  1  0.16403400  0.70091300  0.01236930  1
  H  1075  1  0.26053800  0.70090900  0.16306800  1
  H  1076  1  0.30715500  0.70084500  0.16401600  1
  H  1077  1  0.30701100  0.61861900  0.15815200  1
  H  1078  1  0.26040400  0.61877900  0.15793900  1
  H  1127  1  0.30707500  0.15628500  0.70066100  1
  H  1128  1  0.26045700  0.15708900  0.70061800  1
  H  1129  1  0.30710200  0.16201900  0.61842700  1
  H  1130  1  0.26049300  0.16209200  0.61848000  1
  H  1131  1  0.24694200  0.21201200  0.65947700  1
  H  1132  1  0.21199100  0.24695500  0.65924300  1
  H  1133  1  0.17593600  0.17594100  0.65936200  1
  H  1134  1  0.14368000  0.14367800  0.65937600  1
  H  1135  1  0.24774200  0.10694000  0.65944400  1
  H  1136  1  0.21268900  0.07188230  0.65937000  1
  H  1137  1  0.15743400  0.05921930  0.70034900  1
  H  1138  1  0.15739700  0.01260830  0.70049500  1
  H  1139  1  0.16259000  0.05907630  0.61821900  1
  H  1140  1  0.16328100  0.01245430  0.61827100  1
  H  1141  1  0.10762100  0.07266530  0.65930200  1
  H  1142  1  0.07267230  0.10760600  0.65953800  1
  H  1143  1  0.10692100  0.24773300  0.65933500  1
  H  1144  1  0.07187130  0.21267200  0.65944000  1
  H  1145  1  0.05911130  0.15741000  0.61852700  1
  H  1146  1  0.01250130  0.15737500  0.61850000  1
  H  1147  1  0.05918230  0.16258100  0.70065500  1
  H  1148  1  0.01256030  0.16327600  0.70072400  1
  H  1149  1  0.16208000  0.26044600  0.70029100  1
  H  1150  1  0.16198400  0.30705400  0.70040000  1
  H  1151  1  0.15622300  0.30712800  0.61816800  1
  H  1152  1  0.15704800  0.26050800  0.61815400  1
  H  1159  1  0.13171200  0.62796100  0.34393500  1
  H  1166  1  0.14228100  0.69752700  0.42810600  1
  H  1167  1  0.14283100  0.69787600  0.47475300  1
  H  1168  1  0.17370200  0.62150300  0.47491900  1
  H  1169  1  0.18388500  0.69145900  0.34534200  1
  H  1170  1  0.17338700  0.62129800  0.42829700  1
  H  1171  1  0.18306600  0.69121600  0.39176200  1
  H  1181  1  0.18755700  0.62797300  0.97541100  1
  H  1188  1  0.17694300  0.69757600  0.89127200  1
  H  1189  1  0.17623800  0.69791900  0.84462200  1
  H  1190  1  0.14506800  0.62166900  0.84458200  1
  H  1191  1  0.13556800  0.69162100  0.97419800  1
  H  1192  1  0.14555000  0.62146800  0.89119900  1
  H  1193  1  0.13623500  0.69139300  0.92777500  1
  H  1203  1  0.34396400  0.13228600  0.62786900  1
  H  1210  1  0.42815800  0.14246700  0.69749000  1
  H  1211  1  0.47481100  0.14289400  0.69783900  1
  H  1212  1  0.47505700  0.17392700  0.62153400  1
  H  1213  1  0.34549600  0.18446200  0.69135800  1
  H  1214  1  0.42843300  0.17371600  0.62132400  1
  H  1215  1  0.39191600  0.18343500  0.69119000  1
  H  1225  1  0.97557300  0.18705400  0.62793200  1
  H  1232  1  0.89141200  0.17655700  0.69762100  1
  H  1233  1  0.84476100  0.17594700  0.69797200  1
  H  1234  1  0.84464200  0.14505500  0.62160700  1
  H  1235  1  0.97422700  0.13492600  0.69146500  1
  H  1236  1  0.89125600  0.14542500  0.62140400  1
  H  1237  1  0.92780200  0.13580000  0.69130900  1
  H  1247  1  0.62793600  0.34402400  0.13174500  1
  H  1254  1  0.69748800  0.42819900  0.14218200  1
  H  1255  1  0.69783300  0.47484800  0.14272600  1
  H  1256  1  0.62155200  0.47501000  0.17381200  1
  H  1257  1  0.69148900  0.34542600  0.18384900  1
  H  1258  1  0.62134300  0.42838700  0.17348700  1
  H  1259  1  0.69124700  0.39184800  0.18303000  1
  H  1269  1  0.62799800  0.97549700  0.18759300  1
  H  1276  1  0.69761700  0.89136100  0.17683100  1
  H  1277  1  0.69796000  0.84471600  0.17611400  1
  H  1278  1  0.62161600  0.84467500  0.14517400  1
  H  1279  1  0.69158800  0.97428700  0.13552900  1
  H  1280  1  0.62142100  0.89129100  0.14564800  1
  H  1281  1  0.69136000  0.92786300  0.13619200  1
  H  1291  1  0.62802100  0.13162800  0.97559600  1
  H  1298  1  0.69763600  0.14212300  0.89139300  1
  H  1299  1  0.69797200  0.14275500  0.84474300  1
  H  1300  1  0.62163400  0.17371800  0.84466700  1
  H  1301  1  0.69163900  0.18365500  0.97420900  1
  H  1302  1  0.62144900  0.17332700  0.89128300  1
  H  1303  1  0.69140500  0.18284200  0.92778900  1
  H  1313  1  0.62789100  0.18768000  0.34410900  1
  H  1320  1  0.69745300  0.17704300  0.42825400  1
  H  1321  1  0.69780200  0.17636200  0.47489900  1
  H  1322  1  0.62154600  0.14521100  0.47497700  1
  H  1323  1  0.69151200  0.13565800  0.34535900  1
  H  1324  1  0.62133700  0.14567100  0.42835300  1
  H  1325  1  0.69125800  0.13632300  0.39178200  1
  H  1335  1  0.13221900  0.34390000  0.69101500  1
  H  1342  1  0.14241400  0.42829300  0.62158900  1
  H  1343  1  0.14290200  0.47495200  0.62138000  1
  H  1344  1  0.17394600  0.47491900  0.69768100  1
  H  1345  1  0.18439500  0.34556100  0.62752800  1
  H  1346  1  0.17367600  0.42829900  0.69775100  1
  H  1347  1  0.18336400  0.39198300  0.62778700  1
  H  1357  1  0.18707900  0.97565500  0.69114900  1
  H  1364  1  0.17656700  0.89133800  0.62170000  1
  H  1365  1  0.17601400  0.84469100  0.62146600  1
  H  1366  1  0.14513300  0.84471400  0.69783300  1
  H  1367  1  0.13492300  0.97414500  0.62764100  1
  H  1368  1  0.14544900  0.89133400  0.69792300  1
  H  1369  1  0.13578700  0.92772000  0.62793000  1
  H  1379  1  0.34410100  0.62790200  0.18766200  1
  H  1386  1  0.42825600  0.69746100  0.17703000  1
  H  1387  1  0.47490300  0.69780000  0.17635600  1
  H  1388  1  0.47496700  0.62154000  0.14521500  1
  H  1389  1  0.34536400  0.69151800  0.13563000  1
  H  1390  1  0.42834400  0.62133900  0.14566700  1
  H  1391  1  0.39178600  0.69126400  0.13630700  1
  H  1401  1  0.97558800  0.62801700  0.13160900  1
  H  1408  1  0.89139100  0.69763400  0.14211900  1
  H  1409  1  0.84474100  0.69797200  0.14275900  1
  H  1410  1  0.84466100  0.62163400  0.17371700  1
  H  1411  1  0.97421300  0.69163500  0.18363300  1
  H  1412  1  0.89127700  0.62144500  0.17331900  1
  H  1413  1  0.92779200  0.69140100  0.18283200  1
  C  1  1  0.00416500  0.57133200  0.55217300  1
  C  2  1  0.00385900  0.55230600  0.57120500  1
  C  3  1  0.00384300  0.52792400  0.55901100  1
  C  5  1  0.00384300  0.55913200  0.52779900  1
  C  6  1  0.00383400  0.57241000  0.50336900  1
  C  7  1  0.00359300  0.55977200  0.47867300  1
  C  9  1  0.00311200  0.52880000  0.44769900  1
  C  10  1  0.00335000  0.55309000  0.43535700  1
  C  11  1  0.00334600  0.57211600  0.45438500  1
  C  12  1  0.00288400  0.50410600  0.43506300  1
  C  13  1  0.00287800  0.47967600  0.44833900  1
  C  15  1  0.00286800  0.44846200  0.47954300  1
  C  16  1  0.00288200  0.43626800  0.45516200  1
  C  17  1  0.00257200  0.45530200  0.43613800  1
  C  18  1  0.00294800  0.43517600  0.50397200  1
  C  19  1  0.00317700  0.44781800  0.52866900  1
  C  21  1  0.00350000  0.47879800  0.55965300  1
  C  22  1  0.00359900  0.45450400  0.57198700  1
  C  23  1  0.00307500  0.43548000  0.55296100  1
  C  24  1  0.00374400  0.50349600  0.57229500  1
  C  25  1  0.00391700  0.50371200  0.60022900  1
  C  26  1  0.98131900  0.49700700  0.61452700  1
  C  27  1  0.98163100  0.49680400  0.64199200  1
  C  28  1  0.00433700  0.50387000  0.65602900  1
  C  29  1  0.02682000  0.51089600  0.64161400  1
  C  30  1  0.02671800  0.51053500  0.61414900  1
  C  31  1  0.00282800  0.40724300  0.50374700  1
  C  32  1  0.98006900  0.39327600  0.49688800  1
  C  33  1  0.98003700  0.36580900  0.49648800  1
  C  34  1  0.00256200  0.35144400  0.50348000  1
  C  35  1  0.02522800  0.36553000  0.51058000  1
  C  36  1  0.02546100  0.39299500  0.51044500  1
  C  37  1  0.00269900  0.50390500  0.40713500  1
  C  38  1  0.02528400  0.49697000  0.39293100  1
  C  39  1  0.02503000  0.49662900  0.36546800  1
  C  40  1  0.00240000  0.50377700  0.35134500  1
  C  41  1  0.97991600  0.51097400  0.36567200  1
  C  42  1  0.97996300  0.51078000  0.39313800  1
  C  43  1  0.00404700  0.60033800  0.50356400  1
  C  44  1  0.02678800  0.61431200  0.49666400  1
  C  45  1  0.98147100  0.61456600  0.51048400  1
  C  46  1  0.98174000  0.64203100  0.51077500  1
  C  47  1  0.00436900  0.65613000  0.50358400  1
  C  48  1  0.02684300  0.64177800  0.49640400  1
  C  75  1  0.55230800  0.00336600  0.57133400  1
  C  76  1  0.57133600  0.00328600  0.55230400  1
  C  77  1  0.55913400  0.00354200  0.52792800  1
  C  79  1  0.52793200  0.00314000  0.55913600  1
  C  80  1  0.50350400  0.00296000  0.57241400  1
  C  81  1  0.47880600  0.00290900  0.55977800  1
  C  83  1  0.44782000  0.00283300  0.52880600  1
  C  84  1  0.43548800  0.00282200  0.55310000  1
  C  85  1  0.45452000  0.00256400  0.57212200  1
  C  86  1  0.43517600  0.00289000  0.50411000  1
  C  87  1  0.44845600  0.00314500  0.47968000  1
  C  89  1  0.47966600  0.00354400  0.44846400  1
  C  90  1  0.45528400  0.00362900  0.43627200  1
  C  91  1  0.43626000  0.00306000  0.45530000  1
  C  92  1  0.50409500  0.00383100  0.43518200  1
  C  93  1  0.52879200  0.00388900  0.44782200  1
  C  95  1  0.55977000  0.00380400  0.47880200  1
  C  96  1  0.57210800  0.00417500  0.45451600  1
  C  97  1  0.55308400  0.00392900  0.43548600  1
  C  98  1  0.57240800  0.00373700  0.50350000  1
  C  99  1  0.60033600  0.00388300  0.50371400  1
  C  100  1  0.61460100  0.98131300  0.49685100  1
  C  101  1  0.64206400  0.98159400  0.49665600  1
  C  102  1  0.65612800  0.00423700  0.50387200  1
  C  103  1  0.64174200  0.02669200  0.51104000  1
  C  104  1  0.61427500  0.02662300  0.51069500  1
  C  105  1  0.50389000  0.00407600  0.40724900  1
  C  106  1  0.49710100  0.98148300  0.39298200  1
  C  107  1  0.49676300  0.98179900  0.36551800  1
  C  108  1  0.50376100  0.00450700  0.35144800  1
  C  109  1  0.51082300  0.02699800  0.36583000  1
  C  110  1  0.51061300  0.02688800  0.39329800  1
  C  111  1  0.40724300  0.00273200  0.50391100  1
  C  112  1  0.39306000  0.02537200  0.49710600  1
  C  113  1  0.36559400  0.02515500  0.49677100  1
  C  114  1  0.35144200  0.00250400  0.50378600  1
  C  115  1  0.36574300  0.97996700  0.51087000  1
  C  116  1  0.39321000  0.97997700  0.51065600  1
  C  117  1  0.50372400  0.00281400  0.60034200  1
  C  118  1  0.49687800  0.02538900  0.61460900  1
  C  119  1  0.51068300  0.98006700  0.61427700  1
  C  120  1  0.51102600  0.97999400  0.64174400  1
  C  121  1  0.50387800  0.00245500  0.65613400  1
  C  122  1  0.49668700  0.02510700  0.64207200  1
  C  149  1  0.57132800  0.55230600  0.00337000  1
  C  150  1  0.55229600  0.57133200  0.00330100  1
  C  151  1  0.52792200  0.55913000  0.00354100  1
  C  153  1  0.55913000  0.52792800  0.00314000  1
  C  154  1  0.57240800  0.50350200  0.00296200  1
  C  155  1  0.55977400  0.47880200  0.00290900  1
  C  157  1  0.52880200  0.44781600  0.00282600  1
  C  158  1  0.55309800  0.43548400  0.00280800  1
  C  159  1  0.57211800  0.45451600  0.00255300  1
  C  160  1  0.50410600  0.43517200  0.00289400  1
  C  161  1  0.47967600  0.44845000  0.00316900  1
  C  163  1  0.44846000  0.47966000  0.00356100  1
  C  164  1  0.43626800  0.45527900  0.00365200  1
  C  165  1  0.45529600  0.43625500  0.00308900  1
  C  166  1  0.43517600  0.50408900  0.00383600  1
  C  167  1  0.44781800  0.52878600  0.00388600  1
  C  169  1  0.47879600  0.55976400  0.00380200  1
  C  170  1  0.45450800  0.57210400  0.00416700  1
  C  171  1  0.43548000  0.55307800  0.00392400  1
  C  172  1  0.50349200  0.57240500  0.00373900  1
  C  173  1  0.50370800  0.60033200  0.00391200  1
  C  174  1  0.49684900  0.61462200  0.98135600  1
  C  175  1  0.49665800  0.64208400  0.98166600  1
  C  176  1  0.50386200  0.65612500  0.00432900  1
  C  177  1  0.51101500  0.64171100  0.02677300  1
  C  178  1  0.51067700  0.61424400  0.02667000  1
  C  179  1  0.40724500  0.50388200  0.00407900  1
  C  180  1  0.39298200  0.49708700  0.98148500  1
  C  181  1  0.36551600  0.49673800  0.98180200  1
  C  182  1  0.35144400  0.50375100  0.00450400  1
  C  183  1  0.36582500  0.51081000  0.02699800  1
  C  184  1  0.39329200  0.51060300  0.02689000  1
  C  185  1  0.50390500  0.40723900  0.00270700  1
  C  186  1  0.49710800  0.39302400  0.02533100  1
  C  187  1  0.49675900  0.36555900  0.02507500  1
  C  188  1  0.50377900  0.35143900  0.00240600  1
  C  189  1  0.51085300  0.36576800  0.97988500  1
  C  190  1  0.51064000  0.39323500  0.97993000  1
  C  191  1  0.60033800  0.50372000  0.00281400  1
  C  192  1  0.61460700  0.49686800  0.02538600  1
  C  193  1  0.61427100  0.51068500  0.98006900  1
  C  194  1  0.64173900  0.51102200  0.97999100  1
  C  195  1  0.65613000  0.50387800  0.00245100  1
  C  196  1  0.64207000  0.49668900  0.02510500  1
  C  223  1  0.50384100  0.07173600  0.05167300  1
  C  224  1  0.50380600  0.05286100  0.07088500  1
  C  225  1  0.50388000  0.02839400  0.05886600  1
  C  227  1  0.50386400  0.05928600  0.02742300  1
  C  228  1  0.50389800  0.07226300  0.00286500  1
  C  229  1  0.50391300  0.05950300  0.97826300  1
  C  231  1  0.50389600  0.02829700  0.94760500  1
  C  232  1  0.50390500  0.05245600  0.93501100  1
  C  233  1  0.50387400  0.07166500  0.95388300  1
  C  234  1  0.50391300  0.00347400  0.93528200  1
  C  235  1  0.50391700  0.97914800  0.94869100  1
  C  237  1  0.50389600  0.94825800  0.98013100  1
  C  238  1  0.50388600  0.93580700  0.95588000  1
  C  239  1  0.50385100  0.95468200  0.93667100  1
  C  240  1  0.50392300  0.93528200  0.00468800  1
  C  241  1  0.50392500  0.94803900  0.02929100  1
  C  243  1  0.50387800  0.97924600  0.05995100  1
  C  244  1  0.50388600  0.95508400  0.07254200  1
  C  245  1  0.50387200  0.93587500  0.05366900  1
  C  246  1  0.50387800  0.00406800  0.07227500  1
  C  247  1  0.50382000  0.00452400  0.10011500  1
  C  248  1  0.48013600  0.00326100  0.11409800  1
  C  249  1  0.48011900  0.00357600  0.14155900  1
  C  250  1  0.50368300  0.00517400  0.15594700  1
  C  251  1  0.52732200  0.00641300  0.14165100  1
  C  252  1  0.52743500  0.00609700  0.11418500  1
  C  253  1  0.50388600  0.90744000  0.00471500  1
  C  254  1  0.48020800  0.89346200  0.00334800  1
  C  255  1  0.48019500  0.86600100  0.00352400  1
  C  256  1  0.50376100  0.85161300  0.00508200  1
  C  257  1  0.52740000  0.86590100  0.00638800  1
  C  258  1  0.52750700  0.89336800  0.00621900  1
  C  259  1  0.50388000  0.00300900  0.90744400  1
  C  260  1  0.52750500  0.00136900  0.89340000  1
  C  261  1  0.52741500  0.00098200  0.86593400  1
  C  262  1  0.50378600  0.00219600  0.85162100  1
  C  263  1  0.48021000  0.00386400  0.86598100  1
  C  264  1  0.48020800  0.00426400  0.89344100  1
  C  265  1  0.50385100  0.10010700  0.00282900  1
  C  266  1  0.52746400  0.11418900  0.00133600  1
  C  267  1  0.48016300  0.11407900  0.00412200  1
  C  268  1  0.48013600  0.14154000  0.00387300  1
  C  269  1  0.50369900  0.15594000  0.00231800  1
  C  270  1  0.52734500  0.14165500  0.00109200  1
  C  297  1  0.05167300  0.50384500  0.07166400  1
  C  298  1  0.07088500  0.50381200  0.05278900  1
  C  299  1  0.05886600  0.50388400  0.02832200  1
  C  301  1  0.02742400  0.50386800  0.05921300  1
  C  302  1  0.00286500  0.50389600  0.07218900  1
  C  303  1  0.97826300  0.50391100  0.05943200  1
  C  305  1  0.94760300  0.50389800  0.02822700  1
  C  306  1  0.93501100  0.50390500  0.05238700  1
  C  307  1  0.95388300  0.50387000  0.07159500  1
  C  308  1  0.93528200  0.50391700  0.00340500  1
  C  309  1  0.94868900  0.50392100  0.97907800  1
  C  311  1  0.98012900  0.50390000  0.94818600  1
  C  312  1  0.95587800  0.50388800  0.93573700  1
  C  313  1  0.93666900  0.50385500  0.95461200  1
  C  314  1  0.00468600  0.50392500  0.93520800  1
  C  315  1  0.02928900  0.50392500  0.94796700  1
  C  317  1  0.05994900  0.50387600  0.97917300  1
  C  318  1  0.07254100  0.50388400  0.95501200  1
  C  319  1  0.05366700  0.50387000  0.93580300  1
  C  320  1  0.07227400  0.50387800  0.00399500  1
  C  321  1  0.10011400  0.50382200  0.00445400  1
  C  322  1  0.11409900  0.48014000  0.00320200  1
  C  323  1  0.14156000  0.48012200  0.00354600  1
  C  324  1  0.15594500  0.50368900  0.00513700  1
  C  325  1  0.14164700  0.52732900  0.00635400  1
  C  326  1  0.11418100  0.52743900  0.00603500  1
  C  327  1  0.00471200  0.50388800  0.90736400  1
  C  328  1  0.00334000  0.48021000  0.89338400  1
  C  329  1  0.00351000  0.48019700  0.86592300  1
  C  330  1  0.00507800  0.50376300  0.85153100  1
  C  331  1  0.00638800  0.52740000  0.86582300  1
  C  332  1  0.00621800  0.52750700  0.89329000  1
  C  333  1  0.90744200  0.50388000  0.00294500  1
  C  334  1  0.89339600  0.52750700  0.00131200  1
  C  335  1  0.86593100  0.52741300  0.00093800  1
  C  336  1  0.85161900  0.50378400  0.00216200  1
  C  337  1  0.86598300  0.48021000  0.00382800  1
  C  338  1  0.89344100  0.48021000  0.00421200  1
  C  339  1  0.00283100  0.50384900  0.10003100  1
  C  340  1  0.00133700  0.52746400  0.11411200  1
  C  341  1  0.00412300  0.48016100  0.11400100  1
  C  342  1  0.00387200  0.48013400  0.14146200  1
  C  343  1  0.00232200  0.50369700  0.15585900  1
  C  344  1  0.00111100  0.52734500  0.14157800  1
  C  371  1  0.07132100  0.05229000  0.50339000  1
  C  372  1  0.05227400  0.07133400  0.50326400  1
  C  373  1  0.02791700  0.05909500  0.50327200  1
  C  375  1  0.05908800  0.02793000  0.50339000  1
  C  376  1  0.07227500  0.00348500  0.50347800  1
  C  377  1  0.05972600  0.97877400  0.50343100  1
  C  379  1  0.02879400  0.94783700  0.50327700  1
  C  380  1  0.05306600  0.93546000  0.50333800  1
  C  381  1  0.07210400  0.95450100  0.50339600  1
  C  382  1  0.00408400  0.93528400  0.50323200  1
  C  383  1  0.97963800  0.94846500  0.50330500  1
  C  385  1  0.94846900  0.97962800  0.50342200  1
  C  386  1  0.93623400  0.95526800  0.50343900  1
  C  387  1  0.95527900  0.93622600  0.50331200  1
  C  388  1  0.93528200  0.00407200  0.50350600  1
  C  389  1  0.94782900  0.02878400  0.50343900  1
  C  391  1  0.97876000  0.05972300  0.50325800  1
  C  392  1  0.95448500  0.07209600  0.50331400  1
  C  393  1  0.93544800  0.05305300  0.50339200  1
  C  394  1  0.00346800  0.07227700  0.50319700  1
  C  395  1  0.00364700  0.10012000  0.50318200  1
  C  396  1  0.00214500  0.11416800  0.47954700  1
  C  397  1  0.00186800  0.14163500  0.47962700  1
  C  398  1  0.00302100  0.15595100  0.50325800  1
  C  399  1  0.00462500  0.14158700  0.52683800  1
  C  400  1  0.00492200  0.11412700  0.52684800  1
  C  401  1  0.90744000  0.00387800  0.50356200  1
  C  402  1  0.89339800  0.00252300  0.47992200  1
  C  403  1  0.86593800  0.00273400  0.47998200  1
  C  404  1  0.85161500  0.00433400  0.50358600  1
  C  405  1  0.86596600  0.00557300  0.52718900  1
  C  406  1  0.89343300  0.00538400  0.52722000  1
  C  407  1  0.00389600  0.90744200  0.50324000  1
  C  408  1  0.00254300  0.89346000  0.52691800  1
  C  409  1  0.00275300  0.86600100  0.52692800  1
  C  410  1  0.00434700  0.85161500  0.50336100  1
  C  411  1  0.00558300  0.86590700  0.47972100  1
  C  412  1  0.00539300  0.89337400  0.47961700  1
  C  413  1  0.10011800  0.00367000  0.50352300  1
  C  414  1  0.11413700  0.00218000  0.52717700  1
  C  415  1  0.11415300  0.00494100  0.47987300  1
  C  416  1  0.14161400  0.00465600  0.47991800  1
  C  417  1  0.15594900  0.00306900  0.50351500  1
  C  418  1  0.14160400  0.00191300  0.52712900  1
  C  445  1  0.00190100  0.50357600  0.18383400  1
  C  446  1  0.01635200  0.52195200  0.19849800  1
  C  447  1  0.01596700  0.52175500  0.22593200  1
  C  448  1  0.00120300  0.50305700  0.23981600  1
  C  449  1  0.98639000  0.48453000  0.22550700  1
  C  450  1  0.98693000  0.48508000  0.19785800  1
  C  452  1  0.00161800  0.50329700  0.26764100  1
  C  453  1  0.99303900  0.52539300  0.28173400  1
  C  454  1  0.99310700  0.52546900  0.30920500  1
  C  455  1  0.00223300  0.50366900  0.32348600  1
  C  456  1  0.01117200  0.48173300  0.30930500  1
  C  457  1  0.01073400  0.48148800  0.28184300  1
  C  467  1  0.00540900  0.50365600  0.82355300  1
  C  468  1  0.99095600  0.52207300  0.80894100  1
  C  469  1  0.99126800  0.52189800  0.78150500  1
  C  470  1  0.00592900  0.50316200  0.76756100  1
  C  471  1  0.02072900  0.48458300  0.78182100  1
  C  472  1  0.02027600  0.48511900  0.80947100  1
  C  474  1  0.00541700  0.50340800  0.73973900  1
  C  475  1  0.01402900  0.52546900  0.72560900  1
  C  476  1  0.01386700  0.52554100  0.69813600  1
  C  477  1  0.00459800  0.50377900  0.68389000  1
  C  478  1  0.99562300  0.48188200  0.69811000  1
  C  479  1  0.99617100  0.48163000  0.72556800  1
  C  489  1  0.18392400  0.00251200  0.50345900  1
  C  490  1  0.19862400  0.01689900  0.52185900  1
  C  491  1  0.22605700  0.01637300  0.52172000  1
  C  492  1  0.23990800  0.00155200  0.50304100  1
  C  493  1  0.22555900  0.98679500  0.48449700  1
  C  494  1  0.19791500  0.98745900  0.48500400  1
  C  496  1  0.26773200  0.00188200  0.50328900  1
  C  497  1  0.28180400  0.99321600  0.52536500  1
  C  498  1  0.30927900  0.99323600  0.52545100  1
  C  499  1  0.32358300  0.00237300  0.50366900  1
  C  500  1  0.30942300  0.01139100  0.48175300  1
  C  501  1  0.28196200  0.01100300  0.48149700  1
  C  511  1  0.82364100  0.00480900  0.50354300  1
  C  512  1  0.80899500  0.99039400  0.52196400  1
  C  513  1  0.78156300  0.99082700  0.52183100  1
  C  514  1  0.76765900  0.00559000  0.50314500  1
  C  515  1  0.78195300  0.02037700  0.48458300  1
  C  516  1  0.80960000  0.01979900  0.48507600  1
  C  518  1  0.73983700  0.00516100  0.50339400  1
  C  519  1  0.72573200  0.01373600  0.52548400  1
  C  520  1  0.69825700  0.01362000  0.52556600  1
  C  521  1  0.68399000  0.00446300  0.50377300  1
  C  522  1  0.69818400  0.99555100  0.48183500  1
  C  523  1  0.72564400  0.99602500  0.48158700  1
  C  533  1  0.50357800  0.18391800  0.00189900  1
  C  534  1  0.52197200  0.19858200  0.01633100  1
  C  535  1  0.52177500  0.22601800  0.01594600  1
  C  536  1  0.50306100  0.23990400  0.00120500  1
  C  537  1  0.48451700  0.22559400  0.98641300  1
  C  538  1  0.48506700  0.19794600  0.98695000  1
  C  540  1  0.50330100  0.26773000  0.00162000  1
  C  541  1  0.52537300  0.28182600  0.99298200  1
  C  542  1  0.52544500  0.30930100  0.99304600  1
  C  543  1  0.50367100  0.32357900  0.00223700  1
  C  544  1  0.48176300  0.30939400  0.01123500  1
  C  545  1  0.48151500  0.28193300  0.01079300  1
  C  555  1  0.50365600  0.82363700  0.00541300  1
  C  556  1  0.52206500  0.80902800  0.99094800  1
  C  557  1  0.52188000  0.78159200  0.99124600  1
  C  558  1  0.50316000  0.76765100  0.00592800  1
  C  559  1  0.48459900  0.78190600  0.02075200  1
  C  560  1  0.48513500  0.80955500  0.02029900  1
  C  562  1  0.50340400  0.73982900  0.00541100  1
  C  563  1  0.52549000  0.72570000  0.01396000  1
  C  564  1  0.52556200  0.69822700  0.01379300  1
  C  565  1  0.50377300  0.68398400  0.00458900  1
  C  566  1  0.48185100  0.69820400  0.99567700  1
  C  567  1  0.48160300  0.72566100  0.99622400  1
  C  577  1  0.50369900  0.00173700  0.82364600  1
  C  578  1  0.52210400  0.01615900  0.80898900  1
  C  579  1  0.52192500  0.01576300  0.78155500  1
  C  580  1  0.50319500  0.00104700  0.76766300  1
  C  581  1  0.48462800  0.98627500  0.78196900  1
  C  582  1  0.48517600  0.98680700  0.80961700  1
  C  584  1  0.50342600  0.00149300  0.73984100  1
  C  585  1  0.52550200  0.99290400  0.72572200  1
  C  586  1  0.52558000  0.99304600  0.69824900  1
  C  587  1  0.50378600  0.00222500  0.68399300  1
  C  588  1  0.48186600  0.01116200  0.69820200  1
  C  589  1  0.48162400  0.01066300  0.72565900  1
  C  599  1  0.50357200  0.00553000  0.18392600  1
  C  600  1  0.52197400  0.99106300  0.19854800  1
  C  601  1  0.52177700  0.99136700  0.22598400  1
  C  602  1  0.50303700  0.00603300  0.23991600  1
  C  603  1  0.48447800  0.02084700  0.22564700  1
  C  604  1  0.48503700  0.02040500  0.19799800  1
  C  606  1  0.50327700  0.00553100  0.26774000  1
  C  607  1  0.52534000  0.01415000  0.28186100  1
  C  608  1  0.52542000  0.01399200  0.30933400  1
  C  609  1  0.50365400  0.00474800  0.32358900  1
  C  610  1  0.48174900  0.99577500  0.30937900  1
  C  611  1  0.48149900  0.99630000  0.28191900  1
  C  621  1  0.00244300  0.18392600  0.50335300  1
  C  622  1  0.01681300  0.19866200  0.48496900  1
  C  623  1  0.01630000  0.22609600  0.48517400  1
  C  624  1  0.00147800  0.23990800  0.50388000  1
  C  625  1  0.98672100  0.22552200  0.52239500  1
  C  626  1  0.98738800  0.19787700  0.52183700  1
  C  628  1  0.00183500  0.26773400  0.50371200  1
  C  629  1  0.99318900  0.28188400  0.48167700  1
  C  630  1  0.99322200  0.30935900  0.48168500  1
  C  631  1  0.00239300  0.32358300  0.50350200  1
  C  632  1  0.01138600  0.30934500  0.52537700  1
  C  633  1  0.01097600  0.28188400  0.52554500  1
  C  643  1  0.00481800  0.82364200  0.50348000  1
  C  644  1  0.99039400  0.80895000  0.48510400  1
  C  645  1  0.99081900  0.78151600  0.48531600  1
  C  646  1  0.00558400  0.76766100  0.50403800  1
  C  647  1  0.02038400  0.78200400  0.52255100  1
  C  648  1  0.01980700  0.80965000  0.52198300  1
  C  650  1  0.00516500  0.73983900  0.50385700  1
  C  651  1  0.01374600  0.72569100  0.48179600  1
  C  652  1  0.01367600  0.69821800  0.48178800  1
  C  653  1  0.00454400  0.68399000  0.50362100  1
  C  654  1  0.99559600  0.69822700  0.52551600  1
  C  655  1  0.99604600  0.72568900  0.52569900  1
  C  665  1  0.18392400  0.50358200  0.00550600  1
  C  666  1  0.19855000  0.52197800  0.99103800  1
  C  667  1  0.22598400  0.52178400  0.99135200  1
  C  668  1  0.23991400  0.50304700  0.00602400  1
  C  669  1  0.22564300  0.48448900  0.02083700  1
  C  670  1  0.19799300  0.48505100  0.02039100  1
  C  672  1  0.26773800  0.50328300  0.00552100  1
  C  673  1  0.28186100  0.52534400  0.01414100  1
  C  674  1  0.30933400  0.52542400  0.01397400  1
  C  675  1  0.32358500  0.50365200  0.00473800  1
  C  676  1  0.30937300  0.48175300  0.99575500  1
  C  677  1  0.28191300  0.48150300  0.99628800  1
  C  687  1  0.82364400  0.50369500  0.00171600  1
  C  688  1  0.80898900  0.52210400  0.01613700  1
  C  689  1  0.78155700  0.52192100  0.01575000  1
  C  690  1  0.76766100  0.50319000  0.00103700  1
  C  691  1  0.78196300  0.48462400  0.98626300  1
  C  692  1  0.80961100  0.48516800  0.98679200  1
  C  694  1  0.73983700  0.50342200  0.00148600  1
  C  695  1  0.72572000  0.52550200  0.99290000  1
  C  696  1  0.69824500  0.52557600  0.99303500  1
  C  697  1  0.68399000  0.50378400  0.00221700  1
  C  698  1  0.69819800  0.48185800  0.01114200  1
  C  699  1  0.72565700  0.48161800  0.01065100  1
  C  709  1  0.16019500  0.72736200  0.70820300  1
  C  710  1  0.15988900  0.70833600  0.72723500  1
  C  711  1  0.15987300  0.68395400  0.71504100  1
  C  713  1  0.15987300  0.71516200  0.68382900  1
  C  714  1  0.15986400  0.72844000  0.65939900  1
  C  715  1  0.15962300  0.71580200  0.63470300  1
  C  717  1  0.15914200  0.68483000  0.60372900  1
  C  718  1  0.15938000  0.70912000  0.59138700  1
  C  719  1  0.15937600  0.72814600  0.61041500  1
  C  720  1  0.15891400  0.66013600  0.59109300  1
  C  721  1  0.15890800  0.63570600  0.60436900  1
  C  723  1  0.15889800  0.60449200  0.63557300  1
  C  724  1  0.15891200  0.59229800  0.61119200  1
  C  725  1  0.15860200  0.61133200  0.59216800  1
  C  726  1  0.15897800  0.59120600  0.66000200  1
  C  727  1  0.15920700  0.60384800  0.68469900  1
  C  729  1  0.15953000  0.63482800  0.71568300  1
  C  730  1  0.15962900  0.61053400  0.72801700  1
  C  731  1  0.15910500  0.59151000  0.70899100  1
  C  732  1  0.15977400  0.65952600  0.72832500  1
  C  733  1  0.15994700  0.65974200  0.75625900  1
  C  734  1  0.13734900  0.65303700  0.77055700  1
  C  735  1  0.13766100  0.65283400  0.79802200  1
  C  736  1  0.16036700  0.65990000  0.81205900  1
  C  737  1  0.18285000  0.66692600  0.79764400  1
  C  738  1  0.18274800  0.66656500  0.77017900  1
  C  739  1  0.15885800  0.56327300  0.65977700  1
  C  740  1  0.13609900  0.54930600  0.65291800  1
  C  741  1  0.13606700  0.52183900  0.65251800  1
  C  742  1  0.15859200  0.50747400  0.65951000  1
  C  743  1  0.18125800  0.52156000  0.66666667  1
  C  744  1  0.18149100  0.54902500  0.66647500  1
  C  745  1  0.15872900  0.65993500  0.56316500  1
  C  746  1  0.18131400  0.65300000  0.54896100  1
  C  747  1  0.18106000  0.65265900  0.52149800  1
  C  748  1  0.15843000  0.65980700  0.50737500  1
  C  749  1  0.13594600  0.66700400  0.52170200  1
  C  750  1  0.13599300  0.66681000  0.54916800  1
  C  751  1  0.16007700  0.75636800  0.65959400  1
  C  752  1  0.18281800  0.77034200  0.65269400  1
  C  753  1  0.13750100  0.77059600  0.66651400  1
  C  754  1  0.13777000  0.79806100  0.66680500  1
  C  755  1  0.16039900  0.81216000  0.65961400  1
  C  756  1  0.18287300  0.79780800  0.65243400  1
  C  783  1  0.70833800  0.15939600  0.72736400  1
  C  784  1  0.72736600  0.15931600  0.70833400  1
  C  785  1  0.71516400  0.15957200  0.68395800  1
  C  787  1  0.68396200  0.15917000  0.71516600  1
  C  788  1  0.65953400  0.15899000  0.72844400  1
  C  789  1  0.63483600  0.15893900  0.71580800  1
  C  791  1  0.60385000  0.15886300  0.68483600  1
  C  792  1  0.59151800  0.15885200  0.70913000  1
  C  793  1  0.61055000  0.15859400  0.72815200  1
  C  794  1  0.59120600  0.15892000  0.66014000  1
  C  795  1  0.60448600  0.15917500  0.63571000  1
  C  797  1  0.63569600  0.15957400  0.60449400  1
  C  798  1  0.61131400  0.15965900  0.59230200  1
  C  799  1  0.59229000  0.15909000  0.61133000  1
  C  800  1  0.66012500  0.15986100  0.59121200  1
  C  801  1  0.68482200  0.15991900  0.60385200  1
  C  803  1  0.71580000  0.15983400  0.63483200  1
  C  804  1  0.72813800  0.16020500  0.61054600  1
  C  805  1  0.70911400  0.15995900  0.59151600  1
  C  806  1  0.72843800  0.15976700  0.65953000  1
  C  807  1  0.75636600  0.15991300  0.65974400  1
  C  808  1  0.77063100  0.13734300  0.65288100  1
  C  809  1  0.79809400  0.13762400  0.65268600  1
  C  810  1  0.81215800  0.16026700  0.65990200  1
  C  811  1  0.79777200  0.18272200  0.66707000  1
  C  812  1  0.77030500  0.18265300  0.66666667  1
  C  813  1  0.65992000  0.16010600  0.56327900  1
  C  814  1  0.65313100  0.13751300  0.54901200  1
  C  815  1  0.65279300  0.13782900  0.52154800  1
  C  816  1  0.65979100  0.16053700  0.50747800  1
  C  817  1  0.66685300  0.18302800  0.52186000  1
  C  818  1  0.66666667  0.18291800  0.54932800  1
  C  819  1  0.56327300  0.15876200  0.65994100  1
  C  820  1  0.54909000  0.18140200  0.65313600  1
  C  821  1  0.52162400  0.18118500  0.65280100  1
  C  822  1  0.50747200  0.15853400  0.65981600  1
  C  823  1  0.52177300  0.13599700  0.66690000  1
  C  824  1  0.54924000  0.13600700  0.66666667  1
  C  825  1  0.65975400  0.15884400  0.75637200  1
  C  826  1  0.65290800  0.18141900  0.77063900  1
  C  827  1  0.66666667  0.13609700  0.77030700  1
  C  828  1  0.66705600  0.13602400  0.79777400  1
  C  829  1  0.65990800  0.15848500  0.81216400  1
  C  830  1  0.65271700  0.18113700  0.79810200  1
  C  857  1  0.72735800  0.70833600  0.15940000  1
  C  858  1  0.70832600  0.72736200  0.15933100  1
  C  859  1  0.68395200  0.71516000  0.15957100  1
  C  861  1  0.71516000  0.68395800  0.15917000  1
  C  862  1  0.72843800  0.65953200  0.15899200  1
  C  863  1  0.71580400  0.63483200  0.15893900  1
  C  865  1  0.68483200  0.60384600  0.15885600  1
  C  866  1  0.70912800  0.59151400  0.15883800  1
  C  867  1  0.72814800  0.61054600  0.15858300  1
  C  868  1  0.66013600  0.59120200  0.15892400  1
  C  869  1  0.63570600  0.60448000  0.15919900  1
  C  871  1  0.60449000  0.63569000  0.15959100  1
  C  872  1  0.59229800  0.61130900  0.15968200  1
  C  873  1  0.61132600  0.59228500  0.15911900  1
  C  874  1  0.59120600  0.66011900  0.15986600  1
  C  875  1  0.60384800  0.68481600  0.15991600  1
  C  877  1  0.63482600  0.71579400  0.15983200  1
  C  878  1  0.61053800  0.72813400  0.16019700  1
  C  879  1  0.59151000  0.70910800  0.15995400  1
  C  880  1  0.65952200  0.72843500  0.15976900  1
  C  881  1  0.65973800  0.75636200  0.15994200  1
  C  882  1  0.65287900  0.77065200  0.13738600  1
  C  883  1  0.65268800  0.79811400  0.13769600  1
  C  884  1  0.65989200  0.81215500  0.16035900  1
  C  885  1  0.66704500  0.79774100  0.18280300  1
  C  886  1  0.66666667  0.77027400  0.18270000  1
  C  887  1  0.56327500  0.65991200  0.16010900  1
  C  888  1  0.54901200  0.65311700  0.13751500  1
  C  889  1  0.52154600  0.65276800  0.13783200  1
  C  890  1  0.50747400  0.65978100  0.16053400  1
  C  891  1  0.52185500  0.66684000  0.18302800  1
  C  892  1  0.54932200  0.66666667  0.18292000  1
  C  893  1  0.65993500  0.56326900  0.15873700  1
  C  894  1  0.65313800  0.54905400  0.18136100  1
  C  895  1  0.65278900  0.52158900  0.18110500  1
  C  896  1  0.65980900  0.50746900  0.15843600  1
  C  897  1  0.66688300  0.52179800  0.13591500  1
  C  898  1  0.66666667  0.54926500  0.13596000  1
  C  899  1  0.75636800  0.65975000  0.15884400  1
  C  900  1  0.77063700  0.65289800  0.18141600  1
  C  901  1  0.77030100  0.66666667  0.13609900  1
  C  902  1  0.79776900  0.66705200  0.13602100  1
  C  903  1  0.81216000  0.65990800  0.15848100  1
  C  904  1  0.79810000  0.65271900  0.18113500  1
  C  931  1  0.65987100  0.22776600  0.20770300  1
  C  932  1  0.65983600  0.20889100  0.22691500  1
  C  933  1  0.65991000  0.18442400  0.21489600  1
  C  935  1  0.65989400  0.21531600  0.18345300  1
  C  936  1  0.65992800  0.22829300  0.15889500  1
  C  937  1  0.65994300  0.21553300  0.13429300  1
  C  939  1  0.65992600  0.18432700  0.10363500  1
  C  940  1  0.65993500  0.20848600  0.09104130  1
  C  941  1  0.65990400  0.22769500  0.10991300  1
  C  942  1  0.65994300  0.15950400  0.09131230  1
  C  943  1  0.65994700  0.13517800  0.10472100  1
  C  945  1  0.65992600  0.10428800  0.13616100  1
  C  946  1  0.65991600  0.09183730  0.11191000  1
  C  947  1  0.65988100  0.11071200  0.09270130  1
  C  948  1  0.65995300  0.09131230  0.16071800  1
  C  949  1  0.65995500  0.10406900  0.18532100  1
  C  951  1  0.65990800  0.13527600  0.21598100  1
  C  952  1  0.65991600  0.11111400  0.22857200  1
  C  953  1  0.65990200  0.09190530  0.20969900  1
  C  954  1  0.65990800  0.16009800  0.22830500  1
  C  955  1  0.65985000  0.16055400  0.25614500  1
  C  956  1  0.63616600  0.15929100  0.27012800  1
  C  957  1  0.63614900  0.15960600  0.29758900  1
  C  958  1  0.65971300  0.16120400  0.31197700  1
  C  959  1  0.68335200  0.16244300  0.29768100  1
  C  960  1  0.68346500  0.16212700  0.27021500  1
  C  961  1  0.65991600  0.06347030  0.16074500  1
  C  962  1  0.63623800  0.04949230  0.15937800  1
  C  963  1  0.63622500  0.02203130  0.15955400  1
  C  964  1  0.65979100  0.00764328  0.16111200  1
  C  965  1  0.68343000  0.02193130  0.16241800  1
  C  966  1  0.68353700  0.04939830  0.16224900  1
  C  967  1  0.65991000  0.15903900  0.06347430  1
  C  968  1  0.68353500  0.15739900  0.04943030  1
  C  969  1  0.68344500  0.15701200  0.02196430  1
  C  970  1  0.65981600  0.15822600  0.00765128  1
  C  971  1  0.63624000  0.15989400  0.02201130  1
  C  972  1  0.63623800  0.16029400  0.04947130  1
  C  973  1  0.65988100  0.25613700  0.15885900  1
  C  974  1  0.68349400  0.27021900  0.15736600  1
  C  975  1  0.63619300  0.27010900  0.16015200  1
  C  976  1  0.63616600  0.29757000  0.15990300  1
  C  977  1  0.65972900  0.31197000  0.15834800  1
  C  978  1  0.68337500  0.29768500  0.15712200  1
  C  1005  1  0.20770300  0.65987500  0.22769400  1
  C  1006  1  0.22691500  0.65984200  0.20881900  1
  C  1007  1  0.21489600  0.65991400  0.18435200  1
  C  1009  1  0.18345400  0.65989800  0.21524300  1
  C  1010  1  0.15889500  0.65992600  0.22821900  1
  C  1011  1  0.13429300  0.65994100  0.21546200  1
  C  1013  1  0.10363300  0.65992800  0.18425700  1
  C  1014  1  0.09104130  0.65993500  0.20841700  1
  C  1015  1  0.10991300  0.65990000  0.22762500  1
  C  1016  1  0.09131230  0.65994700  0.15943500  1
  C  1017  1  0.10471900  0.65995100  0.13510800  1
  C  1019  1  0.13615900  0.65993000  0.10421600  1
  C  1020  1  0.11190800  0.65991800  0.09176730  1
  C  1021  1  0.09269930  0.65988500  0.11064200  1
  C  1022  1  0.16071600  0.65995500  0.09123830  1
  C  1023  1  0.18531900  0.65995500  0.10399700  1
  C  1025  1  0.21597900  0.65990600  0.13520300  1
  C  1026  1  0.22857100  0.65991400  0.11104200  1
  C  1027  1  0.20969700  0.65990000  0.09183330  1
  C  1028  1  0.22830400  0.65990800  0.16002500  1
  C  1029  1  0.25614400  0.65985200  0.16048400  1
  C  1030  1  0.27012900  0.63617000  0.15923200  1
  C  1031  1  0.29759000  0.63615200  0.15957600  1
  C  1032  1  0.31197500  0.65971900  0.16116700  1
  C  1033  1  0.29767700  0.68335900  0.16238400  1
  C  1034  1  0.27021100  0.68346900  0.16206500  1
  C  1035  1  0.16074200  0.65991800  0.06339430  1
  C  1036  1  0.15937000  0.63624000  0.04941430  1
  C  1037  1  0.15954000  0.63622700  0.02195330  1
  C  1038  1  0.16110800  0.65979300  0.00756128  1
  C  1039  1  0.16241800  0.68343000  0.02185330  1
  C  1040  1  0.16224800  0.68353700  0.04932030  1
  C  1041  1  0.06347230  0.65991000  0.15897500  1
  C  1042  1  0.04942630  0.68353700  0.15734200  1
  C  1043  1  0.02196130  0.68344300  0.15696800  1
  C  1044  1  0.00764928  0.65981400  0.15819200  1
  C  1045  1  0.02201330  0.63624000  0.15985800  1
  C  1046  1  0.04947130  0.63624000  0.16024200  1
  C  1047  1  0.15886100  0.65987900  0.25606100  1
  C  1048  1  0.15736700  0.68349400  0.27014200  1
  C  1049  1  0.16015300  0.63619100  0.27003100  1
  C  1050  1  0.15990200  0.63616400  0.29749200  1
  C  1051  1  0.15835200  0.65972700  0.31188900  1
  C  1052  1  0.15714100  0.68337500  0.29760800  1
  C  1079  1  0.22735100  0.20832000  0.65942000  1
  C  1080  1  0.20830400  0.22736400  0.65929400  1
  C  1081  1  0.18394700  0.21512500  0.65930200  1
  C  1083  1  0.21511800  0.18396000  0.65942000  1
  C  1084  1  0.22830500  0.15951500  0.65950800  1
  C  1085  1  0.21575600  0.13480400  0.65946100  1
  C  1087  1  0.18482400  0.10386700  0.65930700  1
  C  1088  1  0.20909600  0.09149030  0.65936800  1
  C  1089  1  0.22813400  0.11053100  0.65942600  1
  C  1090  1  0.16011400  0.09131430  0.65926200  1
  C  1091  1  0.13566800  0.10449500  0.65933500  1
  C  1093  1  0.10449900  0.13565800  0.65945200  1
  C  1094  1  0.09226430  0.11129800  0.65946900  1
  C  1095  1  0.11130900  0.09225630  0.65934200  1
  C  1096  1  0.09131230  0.16010200  0.65953600  1
  C  1097  1  0.10385900  0.18481400  0.65946900  1
  C  1099  1  0.13479000  0.21575300  0.65928800  1
  C  1100  1  0.11051500  0.22812600  0.65934400  1
  C  1101  1  0.09147830  0.20908300  0.65942200  1
  C  1102  1  0.15949800  0.22830700  0.65922700  1
  C  1103  1  0.15967700  0.25615000  0.65921200  1
  C  1104  1  0.15817500  0.27019800  0.63557700  1
  C  1105  1  0.15789800  0.29766500  0.63565700  1
  C  1106  1  0.15905100  0.31198100  0.65928800  1
  C  1107  1  0.16065500  0.29761700  0.68286800  1
  C  1108  1  0.16095200  0.27015700  0.68287800  1
  C  1109  1  0.06347030  0.15990800  0.65959200  1
  C  1110  1  0.04942830  0.15855300  0.63595200  1
  C  1111  1  0.02196830  0.15876400  0.63601200  1
  C  1112  1  0.00764528  0.16036400  0.65961600  1
  C  1113  1  0.02199630  0.16160300  0.68321900  1
  C  1114  1  0.04946330  0.16141400  0.68325000  1
  C  1115  1  0.15992600  0.06347230  0.65927000  1
  C  1116  1  0.15857300  0.04949030  0.68294800  1
  C  1117  1  0.15878300  0.02203130  0.68295800  1
  C  1118  1  0.16037700  0.00764528  0.65939100  1
  C  1119  1  0.16161300  0.02193730  0.63575100  1
  C  1120  1  0.16142300  0.04940430  0.63564700  1
  C  1121  1  0.25614800  0.15970000  0.65955300  1
  C  1122  1  0.27016700  0.15821000  0.68320700  1
  C  1123  1  0.27018300  0.16097100  0.63590300  1
  C  1124  1  0.29764400  0.16068600  0.63594800  1
  C  1125  1  0.31197900  0.15909900  0.65954500  1
  C  1126  1  0.29763400  0.15794300  0.68315900  1
  C  1153  1  0.15793100  0.65960600  0.33986400  1
  C  1154  1  0.17238200  0.67798200  0.35452800  1
  C  1155  1  0.17199700  0.67778500  0.38196200  1
  C  1156  1  0.15723300  0.65908700  0.39584600  1
  C  1157  1  0.14242000  0.64056000  0.38153700  1
  C  1158  1  0.14296000  0.64111000  0.35388800  1
  C  1160  1  0.15764800  0.65932700  0.42367100  1
  C  1161  1  0.14906900  0.68142300  0.43776400  1
  C  1162  1  0.14913700  0.68149900  0.46523500  1
  C  1163  1  0.15826300  0.65969900  0.47951600  1
  C  1164  1  0.16720200  0.63776300  0.46533500  1
  C  1165  1  0.16676400  0.63751800  0.43787300  1
  C  1175  1  0.16143900  0.65968600  0.97958300  1
  C  1176  1  0.14698600  0.67810300  0.96497100  1
  C  1177  1  0.14729800  0.67792800  0.93753500  1
  C  1178  1  0.16195900  0.65919200  0.92359100  1
  C  1179  1  0.17675900  0.64061300  0.93785100  1
  C  1180  1  0.17630600  0.64114900  0.96550100  1
  C  1182  1  0.16144700  0.65943800  0.89576900  1
  C  1183  1  0.17005900  0.68149900  0.88163900  1
  C  1184  1  0.16989700  0.68157100  0.85416600  1
  C  1185  1  0.16062800  0.65980900  0.83992000  1
  C  1186  1  0.15165300  0.63791200  0.85414000  1
  C  1187  1  0.15220100  0.63766000  0.88159800  1
  C  1197  1  0.33995400  0.15854200  0.65948900  1
  C  1198  1  0.35465400  0.17292900  0.67788900  1
  C  1199  1  0.38208700  0.17240300  0.67775000  1
  C  1200  1  0.39593800  0.15758200  0.65907100  1
  C  1201  1  0.38158900  0.14282500  0.64052700  1
  C  1202  1  0.35394500  0.14348900  0.64103400  1
  C  1204  1  0.42376200  0.15791200  0.65931900  1
  C  1205  1  0.43783400  0.14924600  0.68139500  1
  C  1206  1  0.46530900  0.14926600  0.68148100  1
  C  1207  1  0.47961300  0.15840300  0.65969900  1
  C  1208  1  0.46545300  0.16742100  0.63778300  1
  C  1209  1  0.43799200  0.16703300  0.63752700  1
  C  1219  1  0.97967100  0.16083900  0.65957300  1
  C  1220  1  0.96502500  0.14642400  0.67799400  1
  C  1221  1  0.93759300  0.14685700  0.67786100  1
  C  1222  1  0.92368900  0.16162000  0.65917500  1
  C  1223  1  0.93798300  0.17640700  0.64061300  1
  C  1224  1  0.96563000  0.17582900  0.64110600  1
  C  1226  1  0.89586700  0.16119100  0.65942400  1
  C  1227  1  0.88176200  0.16976600  0.68151400  1
  C  1228  1  0.85428700  0.16965000  0.68159600  1
  C  1229  1  0.84002000  0.16049300  0.65980300  1
  C  1230  1  0.85421400  0.15158100  0.63786500  1
  C  1231  1  0.88167400  0.15205500  0.63761700  1
  C  1241  1  0.65960800  0.33994800  0.15792900  1
  C  1242  1  0.67800200  0.35461200  0.17236100  1
  C  1243  1  0.67780500  0.38204800  0.17197600  1
  C  1244  1  0.65909100  0.39593400  0.15723500  1
  C  1245  1  0.64054700  0.38162400  0.14244300  1
  C  1246  1  0.64109700  0.35397600  0.14298000  1
  C  1248  1  0.65933100  0.42376000  0.15765000  1
  C  1249  1  0.68140300  0.43785600  0.14901200  1
  C  1250  1  0.68147500  0.46533100  0.14907600  1
  C  1251  1  0.65970100  0.47960900  0.15826700  1
  C  1252  1  0.63779300  0.46542400  0.16726500  1
  C  1253  1  0.63754500  0.43796300  0.16682300  1
  C  1263  1  0.65968600  0.97966700  0.16144300  1
  C  1264  1  0.67809500  0.96505800  0.14697800  1
  C  1265  1  0.67791000  0.93762200  0.14727600  1
  C  1266  1  0.65919000  0.92368100  0.16195800  1
  C  1267  1  0.64062900  0.93793600  0.17678200  1
  C  1268  1  0.64116500  0.96558500  0.17632900  1
  C  1270  1  0.65943400  0.89585900  0.16144100  1
  C  1271  1  0.68152000  0.88173000  0.16999000  1
  C  1272  1  0.68159200  0.85425700  0.16982300  1
  C  1273  1  0.65980300  0.84001400  0.16061900  1
  C  1274  1  0.63788100  0.85423400  0.15170700  1
  C  1275  1  0.63763300  0.88169100  0.15225400  1
  C  1285  1  0.65972900  0.15776700  0.97967600  1
  C  1286  1  0.67813400  0.17218900  0.96501900  1
  C  1287  1  0.67795500  0.17179300  0.93758500  1
  C  1288  1  0.65922500  0.15707700  0.92369300  1
  C  1289  1  0.64065800  0.14230500  0.93799900  1
  C  1290  1  0.64120600  0.14283700  0.96564700  1
  C  1292  1  0.65945600  0.15752300  0.89587100  1
  C  1293  1  0.68153200  0.14893400  0.88175200  1
  C  1294  1  0.68161000  0.14907600  0.85427900  1
  C  1295  1  0.65981600  0.15825500  0.84002300  1
  C  1296  1  0.63789600  0.16719200  0.85423200  1
  C  1297  1  0.63765400  0.16669300  0.88168900  1
  C  1307  1  0.65960200  0.16156000  0.33995600  1
  C  1308  1  0.67800400  0.14709300  0.35457800  1
  C  1309  1  0.67780700  0.14739700  0.38201400  1
  C  1310  1  0.65906700  0.16206300  0.39594600  1
  C  1311  1  0.64050800  0.17687700  0.38167700  1
  C  1312  1  0.64106700  0.17643500  0.35402800  1
  C  1314  1  0.65930700  0.16156100  0.42377000  1
  C  1315  1  0.68137000  0.17018000  0.43789100  1
  C  1316  1  0.68145000  0.17002200  0.46536400  1
  C  1317  1  0.65968400  0.16077800  0.47961900  1
  C  1318  1  0.63777900  0.15180500  0.46540900  1
  C  1319  1  0.63752900  0.15233000  0.43794900  1
  C  1329  1  0.15847300  0.33995600  0.65938300  1
  C  1330  1  0.17284300  0.35469200  0.64099900  1
  C  1331  1  0.17233000  0.38212600  0.64120400  1
  C  1332  1  0.15750800  0.39593800  0.65991000  1
  C  1333  1  0.14275100  0.38155200  0.67842500  1
  C  1334  1  0.14341800  0.35390700  0.67786700  1
  C  1336  1  0.15786500  0.42376400  0.65974200  1
  C  1337  1  0.14921900  0.43791400  0.63770700  1
  C  1338  1  0.14925200  0.46538900  0.63771500  1
  C  1339  1  0.15842300  0.47961300  0.65953200  1
  C  1340  1  0.16741600  0.46537500  0.68140700  1
  C  1341  1  0.16700600  0.43791400  0.68157500  1
  C  1351  1  0.16084800  0.97967200  0.65951000  1
  C  1352  1  0.14642400  0.96498000  0.64113400  1
  C  1353  1  0.14684900  0.93754600  0.64134600  1
  C  1354  1  0.16161400  0.92369100  0.66006800  1
  C  1355  1  0.17641400  0.93803400  0.67858100  1
  C  1356  1  0.17583700  0.96568000  0.67801300  1
  C  1358  1  0.16119500  0.89586900  0.65988700  1
  C  1359  1  0.16977600  0.88172100  0.63782600  1
  C  1360  1  0.16970600  0.85424800  0.63781800  1
  C  1361  1  0.16057400  0.84002000  0.65965100  1
  C  1362  1  0.15162600  0.85425700  0.68154600  1
  C  1363  1  0.15207600  0.88171900  0.68172900  1
  C  1373  1  0.33995400  0.65961200  0.16153600  1
  C  1374  1  0.35458000  0.67800800  0.14706800  1
  C  1375  1  0.38201400  0.67781400  0.14738200  1
  C  1376  1  0.39594400  0.65907700  0.16205400  1
  C  1377  1  0.38167300  0.64051900  0.17686700  1
  C  1378  1  0.35402300  0.64108100  0.17642100  1
  C  1380  1  0.42376800  0.65931300  0.16155100  1
  C  1381  1  0.43789100  0.68137400  0.17017100  1
  C  1382  1  0.46536400  0.68145400  0.17000400  1
  C  1383  1  0.47961500  0.65968200  0.16076800  1
  C  1384  1  0.46540300  0.63778300  0.15178500  1
  C  1385  1  0.43794300  0.63753300  0.15231800  1
  C  1395  1  0.97967400  0.65972500  0.15774600  1
  C  1396  1  0.96501900  0.67813400  0.17216700  1
  C  1397  1  0.93758700  0.67795100  0.17178000  1
  C  1398  1  0.92369100  0.65922000  0.15706700  1
  C  1399  1  0.93799300  0.64065400  0.14229300  1
  C  1400  1  0.96564100  0.64119800  0.14282200  1
  C  1402  1  0.89586700  0.65945200  0.15751600  1
  C  1403  1  0.88175000  0.68153200  0.14893000  1
  C  1404  1  0.85427500  0.68160600  0.14906500  1
  C  1405  1  0.84002000  0.65981400  0.15824700  1
  C  1406  1  0.85422800  0.63788800  0.16717200  1
  C  1407  1  0.88168700  0.63764800  0.16668100  1
  N  4  1  0.00373900  0.53317700  0.53305600  1
  N  8  1  0.00335400  0.53387300  0.47360000  1
  N  14  1  0.00296000  0.47442000  0.47429500  1
  N  20  1  0.00333700  0.47371900  0.53375000  1
  N  78  1  0.53317900  0.00334800  0.53318100  1
  N  82  1  0.47372300  0.00297000  0.53387900  1
  N  88  1  0.47441400  0.00333700  0.47442200  1
  N  94  1  0.53386900  0.00372600  0.47372300  1
  N  152  1  0.53317500  0.53317500  0.00333900  1
  N  156  1  0.53387500  0.47371900  0.00297800  1
  N  162  1  0.47441800  0.47440800  0.00335400  1
  N  168  1  0.47371700  0.53386300  0.00372400  1
  N  226  1  0.50390100  0.03339100  0.03287800  1
  N  230  1  0.50390900  0.03357400  0.97344500  1
  N  236  1  0.50392700  0.97415300  0.97467800  1
  N  242  1  0.50390900  0.97397000  0.03411000  1
  N  300  1  0.03287800  0.50390100  0.03331800  1
  N  304  1  0.97344300  0.50391100  0.03350200  1
  N  310  1  0.97467600  0.50393100  0.97408300  1
  N  316  1  0.03410900  0.50391100  0.97389800  1
  N  374  1  0.03314500  0.03315300  0.50332800  1
  N  378  1  0.03383900  0.97372400  0.50334600  1
  N  384  1  0.97441100  0.97440700  0.50335300  1
  N  390  1  0.97371600  0.03383500  0.50334600  1
  N  464  1  0.97066600  0.46626900  0.23902500  1
  N  486  1  0.03635900  0.46628500  0.76824400  1
  N  508  1  0.23903800  0.97100700  0.46626300  1
  N  530  1  0.76842100  0.03610800  0.46633700  1
  N  552  1  0.46624000  0.23911400  0.97071100  1
  N  574  1  0.46631800  0.76833000  0.03640200  1
  N  596  1  0.46632900  0.97060300  0.76844500  1
  N  618  1  0.46616900  0.03647500  0.23921400  1
  N  640  1  0.97093500  0.23896400  0.54065800  1
  N  662  1  0.03612900  0.76851900  0.54081800  1
  N  684  1  0.23920600  0.46618300  0.03646900  1
  N  706  1  0.76843700  0.46632400  0.97059400  1
  N  712  1  0.15976900  0.68920700  0.68908600  1
  N  716  1  0.15938400  0.68990300  0.62963000  1
  N  722  1  0.15899000  0.63045000  0.63032500  1
  N  728  1  0.15936700  0.62974900  0.68978000  1
  N  786  1  0.68920900  0.15937800  0.68921100  1
  N  790  1  0.62975300  0.15900000  0.68990900  1
  N  796  1  0.63044400  0.15936700  0.63045200  1
  N  802  1  0.68989900  0.15975600  0.62975300  1
  N  860  1  0.68920500  0.68920500  0.15936900  1
  N  864  1  0.68990500  0.62974900  0.15900800  1
  N  870  1  0.63044800  0.63043800  0.15938400  1
  N  876  1  0.62974700  0.68989300  0.15975400  1
  N  934  1  0.65993100  0.18942100  0.18890800  1
  N  938  1  0.65993900  0.18960400  0.12947500  1
  N  944  1  0.65995700  0.13018300  0.13070800  1
  N  950  1  0.65993900  0.13000000  0.19014000  1
  N  1008  1  0.18890800  0.65993100  0.18934800  1
  N  1012  1  0.12947300  0.65994100  0.18953200  1
  N  1018  1  0.13070600  0.65996100  0.13011300  1
  N  1024  1  0.19013900  0.65994100  0.12992800  1
  N  1082  1  0.18917500  0.18918300  0.65935800  1
  N  1086  1  0.18986900  0.12975400  0.65937600  1
  N  1092  1  0.13044100  0.13043700  0.65938300  1
  N  1098  1  0.12974600  0.18986500  0.65937600  1
  N  1172  1  0.12669600  0.62229900  0.39505500  1
  N  1194  1  0.19238900  0.62231500  0.92427400  1
  N  1216  1  0.39506800  0.12703700  0.62229300  1
  N  1238  1  0.92445100  0.19213800  0.62236700  1
  N  1260  1  0.62227000  0.39514400  0.12674100  1
  N  1282  1  0.62234800  0.92436000  0.19243200  1
  N  1304  1  0.62235900  0.12663300  0.92447500  1
  N  1326  1  0.62219900  0.19250500  0.39524400  1
  N  1348  1  0.12696500  0.39499400  0.69668800  1
  N  1370  1  0.19215900  0.92454900  0.69684800  1
  N  1392  1  0.39523600  0.62221300  0.19249900  1
  N  1414  1  0.92446700  0.62235400  0.12662400  1
  O  465  1  0.97719600  0.44322500  0.23380900  1
  O  466  1  0.94693000  0.46912800  0.23363800  1
  O  487  1  0.02978200  0.44325800  0.77346900  1
  O  488  1  0.06012000  0.46907700  0.77355900  1
  O  509  1  0.23388500  0.97754700  0.44321000  1
  O  510  1  0.23354800  0.94729400  0.46912800  1
  O  531  1  0.77358600  0.02956200  0.44328800  1
  O  532  1  0.77384000  0.05984000  0.46917700  1
  O  553  1  0.44320400  0.23389900  0.97726400  1
  O  554  1  0.46907400  0.23372900  0.94696900  1
  O  575  1  0.44328400  0.77355500  0.02985000  1
  O  576  1  0.46913400  0.77364300  0.06016100  1
  O  597  1  0.44330300  0.97719000  0.77366000  1
  O  598  1  0.46912800  0.94685800  0.77382600  1
  O  619  1  0.44314700  0.02990200  0.23396900  1
  O  620  1  0.46897000  0.06023800  0.23390900  1
  O  641  1  0.97747800  0.23376200  0.56370200  1
  O  642  1  0.94722200  0.23347800  0.53778700  1
  O  663  1  0.02960300  0.77374600  0.56386000  1
  O  664  1  0.05985900  0.77392900  0.53794300  1
  O  685  1  0.23395900  0.44315900  0.02989900  1
  O  686  1  0.23389700  0.46898800  0.06023100  1
  O  707  1  0.77365200  0.44329700  0.97718000  1
  O  708  1  0.77381600  0.46912200  0.94684600  1
  O  1173  1  0.13322600  0.59925500  0.38983900  1
  O  1174  1  0.10296000  0.62515800  0.38966800  1
  O  1195  1  0.18581200  0.59928800  0.92949900  1
  O  1196  1  0.21615000  0.62510700  0.92958900  1
  O  1217  1  0.38991500  0.13357700  0.59924000  1
  O  1218  1  0.38957800  0.10332400  0.62515800  1
  O  1239  1  0.92961600  0.18559200  0.59931800  1
  O  1240  1  0.92987000  0.21587000  0.62520700  1
  O  1261  1  0.59923400  0.38992900  0.13329400  1
  O  1262  1  0.62510400  0.38975900  0.10299900  1
  O  1283  1  0.59931400  0.92958500  0.18588000  1
  O  1284  1  0.62516400  0.92967300  0.21619100  1
  O  1305  1  0.59933300  0.13322000  0.92969000  1
  O  1306  1  0.62515800  0.10288800  0.92985600  1
  O  1327  1  0.59917700  0.18593200  0.38999900  1
  O  1328  1  0.62500000  0.21626800  0.38993900  1
  O  1349  1  0.13350800  0.38979200  0.71973200  1
  O  1350  1  0.10325200  0.38950800  0.69381700  1
  O  1371  1  0.18563300  0.92977600  0.71989000  1
  O  1372  1  0.21588900  0.92995900  0.69397300  1
  O  1393  1  0.38998900  0.59918900  0.18592900  1
  O  1394  1  0.38992700  0.62501800  0.21626100  1
  O  1415  1  0.92968200  0.59932700  0.13321000  1
  O  1416  1  0.92984600  0.62515200  0.10287600  1
