# generated using pymatgen
data_H32C47N8
_symmetry_space_group_name_H-M   'P 1'
_cell_length_a   56.75340000
_cell_length_b   65.11245000
_cell_length_c   65.11240000
_cell_angle_alpha   119.99992379
_cell_angle_beta   90.00000000
_cell_angle_gamma   90.00000000
_symmetry_Int_Tables_number   1
_chemical_formula_structural   H32C47N8
_chemical_formula_sum   'H768 C1128 N192'
_cell_volume   208377.38809958
_cell_formula_units_Z   24
loop_
 _symmetry_equiv_pos_site_id
 _symmetry_equiv_pos_as_xyz
  1  'x, y, z'
loop_
 _atom_site_type_symbol
 _atom_site_label
 _atom_site_symmetry_multiplicity
 _atom_site_fract_x
 _atom_site_fract_y
 _atom_site_fract_z
 _atom_site_occupancy
  H  26  1  0.81114600  0.55925800  0.42910300  1
  H  27  1  0.85164400  0.55984500  0.42042800  1
  H  28  1  0.81939700  0.62471000  0.49243100  1
  H  29  1  0.85977900  0.62515700  0.48365100  1
  H  30  1  0.90429400  0.61018700  0.48527600  1
  H  31  1  0.92507800  0.58768900  0.49917500  1
  H  32  1  0.91817500  0.52685500  0.43174400  1
  H  33  1  0.89750400  0.54922800  0.41806600  1
  H  34  1  0.92143100  0.58106600  0.40933900  1
  H  35  1  0.92319000  0.57325100  0.36942400  1
  H  36  1  0.85071700  0.58865700  0.37216600  1
  H  37  1  0.84914700  0.59682600  0.41152900  1
  H  38  1  0.85724100  0.63482600  0.44764900  1
  H  39  1  0.92810300  0.61869500  0.45298000  1
  H  40  1  0.93926600  0.65730100  0.46145300  1
  H  41  1  0.86824000  0.67309400  0.45604100  1
  H  44  1  0.93118800  0.52317600  0.46542000  1
  H  45  1  0.78027400  0.60902600  0.47944900  1
  H  47  1  0.87232800  0.56948400  0.33397200  1
  H  49  1  0.92665100  0.69871900  0.47234900  1
  H  75  1  0.81113200  0.90544200  0.47949000  1
  H  76  1  0.85161300  0.89616700  0.47889600  1
  H  77  1  0.81941300  0.90349500  0.41412500  1
  H  78  1  0.85979000  0.89425700  0.41366300  1
  H  79  1  0.90435600  0.91074000  0.42855900  1
  H  80  1  0.92512100  0.94714300  0.45105500  1
  H  81  1  0.91808000  0.94063000  0.51192600  1
  H  82  1  0.89743100  0.90456900  0.48954700  1
  H  83  1  0.92143800  0.86400600  0.45776700  1
  H  84  1  0.92321900  0.83193100  0.46561300  1
  H  85  1  0.85079700  0.81909600  0.45000800  1
  H  86  1  0.84921100  0.85028200  0.44182300  1
  H  87  1  0.85724700  0.84854400  0.40389900  1
  H  88  1  0.92811800  0.86988200  0.42009400  1
  H  89  1  0.93929000  0.83973300  0.38150400  1
  H  90  1  0.86824300  0.81865300  0.36564400  1
  H  93  1  0.93115800  0.97795500  0.51558500  1
  H  94  1  0.78027900  0.90614500  0.42977900  1
  H  96  1  0.87239500  0.80024200  0.46939000  1
  H  98  1  0.92670000  0.80923100  0.34007700  1
  H  124  1  0.81113400  0.60972900  0.13330600  1
  H  125  1  0.85161900  0.61839200  0.14255600  1
  H  126  1  0.81939600  0.54633600  0.13530700  1
  H  127  1  0.85977400  0.55509600  0.14451900  1
  H  128  1  0.90432900  0.55348900  0.12799300  1
  H  129  1  0.92508500  0.53957600  0.09158300  1
  H  130  1  0.91809600  0.60697500  0.09812000  1
  H  131  1  0.89745500  0.62066200  0.13418600  1
  H  132  1  0.92144000  0.62942800  0.17475400  1
  H  133  1  0.92322100  0.66934900  0.20683000  1
  H  134  1  0.85078700  0.66659900  0.21962900  1
  H  135  1  0.84920100  0.62722800  0.18844400  1
  H  136  1  0.85724900  0.59105400  0.19021300  1
  H  137  1  0.92811300  0.58585500  0.16883800  1
  H  138  1  0.93928500  0.57740200  0.19897900  1
  H  139  1  0.86824600  0.58267700  0.22009700  1
  H  142  1  0.93112400  0.57329500  0.06077800  1
  H  143  1  0.78026900  0.55936000  0.13268100  1
  H  145  1  0.87239700  0.70482900  0.23849700  1
  H  147  1  0.92669500  0.56648400  0.22948400  1
  H  173  1  0.31107300  0.49029500  0.59897100  1
  H  174  1  0.35154900  0.48971200  0.60766800  1
  H  175  1  0.31946900  0.42510600  0.53538700  1
  H  176  1  0.35983900  0.42465600  0.54417500  1
  H  177  1  0.40451100  0.43937800  0.54266100  1
  H  178  1  0.42528900  0.46188500  0.52877000  1
  H  179  1  0.41793800  0.52281800  0.59606300  1
  H  180  1  0.39728200  0.50043200  0.60973300  1
  H  181  1  0.42141600  0.46882500  0.61864700  1
  H  182  1  0.42317400  0.47667000  0.65857400  1
  H  183  1  0.35084500  0.46064400  0.65562500  1
  H  184  1  0.34928100  0.45246600  0.61625400  1
  H  185  1  0.35717800  0.41467800  0.57991400  1
  H  186  1  0.42810600  0.43104000  0.57521800  1
  H  187  1  0.43928300  0.39244400  0.56675700  1
  H  188  1  0.36818700  0.37641100  0.57152400  1
  H  191  1  0.43117900  0.52645300  0.56245000  1
  H  192  1  0.28030200  0.44062100  0.54845200  1
  H  194  1  0.37237000  0.48020900  0.69393700  1
  H  196  1  0.42669800  0.35096500  0.55566100  1
  H  222  1  0.31108900  0.14431700  0.54843500  1
  H  223  1  0.35156400  0.15359500  0.54902300  1
  H  224  1  0.31944300  0.14601500  0.61367200  1
  H  225  1  0.35981900  0.15525100  0.61413000  1
  H  226  1  0.40445500  0.13894600  0.59937100  1
  H  227  1  0.42522900  0.10254500  0.57687300  1
  H  228  1  0.41798000  0.10894000  0.51595200  1
  H  229  1  0.39732200  0.14499700  0.53832900  1
  H  230  1  0.42142100  0.18552300  0.56995800  1
  H  231  1  0.42318300  0.21761100  0.56212000  1
  H  232  1  0.35083700  0.23063700  0.57806500  1
  H  233  1  0.34926800  0.19944400  0.58623900  1
  H  234  1  0.35718500  0.20095800  0.62405800  1
  H  235  1  0.42810400  0.17983000  0.60773100  1
  H  236  1  0.43927900  0.20996300  0.64632500  1
  H  237  1  0.36819600  0.23083600  0.66232400  1
  H  240  1  0.43111200  0.07165000  0.51232500  1
  H  241  1  0.28028400  0.14351600  0.59811700  1
  H  243  1  0.37237000  0.24939300  0.55853000  1
  H  245  1  0.42666800  0.24035300  0.68781400  1
  H  271  1  0.31114000  0.43995200  0.89462400  1
  H  272  1  0.35161700  0.43127600  0.88537200  1
  H  273  1  0.31939000  0.50330200  0.89254600  1
  H  274  1  0.35978100  0.49452500  0.88332100  1
  H  275  1  0.40430500  0.49615800  0.89990000  1
  H  276  1  0.42507400  0.51006500  0.93630600  1
  H  277  1  0.41814000  0.44264400  0.92972800  1
  H  278  1  0.39748600  0.42896300  0.89367200  1
  H  279  1  0.42143000  0.42018300  0.85307900  1
  H  280  1  0.42317100  0.38027300  0.82096900  1
  H  281  1  0.35070500  0.38307400  0.80832000  1
  H  282  1  0.34915900  0.42242600  0.83952300  1
  H  283  1  0.35723100  0.45852200  0.83764400  1
  H  284  1  0.42809900  0.46382400  0.85907800  1
  H  285  1  0.43925400  0.47230600  0.82895000  1
  H  286  1  0.36822400  0.46692400  0.80777200  1
  H  289  1  0.43113500  0.47633200  0.96708700  1
  H  290  1  0.28026800  0.49029600  0.89520800  1
  H  292  1  0.37227500  0.34485900  0.78926500  1
  H  294  1  0.42666000  0.48318100  0.79842500  1
  H  320  1  0.13347000  0.14164600  0.59763600  1
  H  321  1  0.09366100  0.15414400  0.60765800  1
  H  322  1  0.12482400  0.14013000  0.53256500  1
  H  323  1  0.08519800  0.15301000  0.54279000  1
  H  324  1  0.04063500  0.13883400  0.54193000  1
  H  325  1  0.01708200  0.10419300  0.52906000  1
  H  326  1  0.02358000  0.11120000  0.59670800  1
  H  327  1  0.04716500  0.14543600  0.60931900  1
  H  328  1  0.02431200  0.18580300  0.61822800  1
  H  329  1  0.02304100  0.21798200  0.65810200  1
  H  330  1  0.09522000  0.23086300  0.65401800  1
  H  331  1  0.09632500  0.19945000  0.61470800  1
  H  332  1  0.08891400  0.19926700  0.57734100  1
  H  333  1  0.01749600  0.18058400  0.57528200  1
  H  334  1  0.00669700  0.21077700  0.56679100  1
  H  335  1  0.07823800  0.22928100  0.56895000  1
  H  338  1  0.99417100  0.08399800  0.56837800  1
  H  339  1  0.16091000  0.12191600  0.54243200  1
  H  341  1  0.07447600  0.24996000  0.69249300  1
  H  343  1  0.01979500  0.24025200  0.55452400  1
  H  369  1  0.13343800  0.44119100  0.54703400  1
  H  370  1  0.09361100  0.43117900  0.54951100  1
  H  371  1  0.12486400  0.50616100  0.61071500  1
  H  372  1  0.08523500  0.49594500  0.61336400  1
  H  373  1  0.04071100  0.49683700  0.59994400  1
  H  374  1  0.01714500  0.50971300  0.57818500  1
  H  375  1  0.02348000  0.44201500  0.51758300  1
  H  376  1  0.04708000  0.42939800  0.53919400  1
  H  377  1  0.02431500  0.42057200  0.57073100  1
  H  378  1  0.02304100  0.38069400  0.56302400  1
  H  379  1  0.09527100  0.38468900  0.57978000  1
  H  380  1  0.09638300  0.42400700  0.58769700  1
  H  381  1  0.08890000  0.46133100  0.62496800  1
  H  382  1  0.01750000  0.46357300  0.60839600  1
  H  383  1  0.00669500  0.47206700  0.64707700  1
  H  384  1  0.07822000  0.46972600  0.66337400  1
  H  387  1  0.99412800  0.47038900  0.51871800  1
  H  388  1  0.16090800  0.49632700  0.58252900  1
  H  390  1  0.07448100  0.34624800  0.56050600  1
  H  392  1  0.01981100  0.48429600  0.68881800  1
  H  418  1  0.13344500  0.49173700  0.89722600  1
  H  419  1  0.09362000  0.48925400  0.88473200  1
  H  420  1  0.12487600  0.42806000  0.89852200  1
  H  421  1  0.08524700  0.42540500  0.88565300  1
  H  422  1  0.04072600  0.43882700  0.89997000  1
  H  423  1  0.01716100  0.46059300  0.93460600  1
  H  424  1  0.02349600  0.52118600  0.92749600  1
  H  425  1  0.04709400  0.49957200  0.89326800  1
  H  426  1  0.02432200  0.46803300  0.85290900  1
  H  427  1  0.02304500  0.47573600  0.82073800  1
  H  428  1  0.09527300  0.45898000  0.80797200  1
  H  429  1  0.09639000  0.45106500  0.83937300  1
  H  430  1  0.08890900  0.41379800  0.83942700  1
  H  431  1  0.01751000  0.43037100  0.85824500  1
  H  432  1  0.00670200  0.39169500  0.82805700  1
  H  433  1  0.07822400  0.37539600  0.80941200  1
  H  436  1  0.99416900  0.52008000  0.95476200  1
  H  437  1  0.16091300  0.45622800  0.91686000  1
  H  439  1  0.07448300  0.47825000  0.78880300  1
  H  441  1  0.01982500  0.34994300  0.79855400  1
  H  467  1  0.63346000  0.90803600  0.43026900  1
  H  468  1  0.59364500  0.89553100  0.42025000  1
  H  469  1  0.62484200  0.90947300  0.49530700  1
  H  470  1  0.58521800  0.89659300  0.48508500  1
  H  471  1  0.54067400  0.91082000  0.48595000  1
  H  472  1  0.51713200  0.94546700  0.49882300  1
  H  473  1  0.52357500  0.93842200  0.43115500  1
  H  474  1  0.54715100  0.90418000  0.41854300  1
  H  475  1  0.52431700  0.86381700  0.40967900  1
  H  476  1  0.52302600  0.83166100  0.36979800  1
  H  477  1  0.59521300  0.81877100  0.37381700  1
  H  478  1  0.59633800  0.85016800  0.41313800  1
  H  479  1  0.58889300  0.85032500  0.45050100  1
  H  480  1  0.51749600  0.86904100  0.45259600  1
  H  481  1  0.50668100  0.83883200  0.46104400  1
  H  482  1  0.57821400  0.82028800  0.45884900  1
  H  485  1  0.49420600  0.96566200  0.45950100  1
  H  486  1  0.66089900  0.92777100  0.48544000  1
  H  488  1  0.57443800  0.79973700  0.33534100  1
  H  490  1  0.51977500  0.80932800  0.47329100  1
  H  516  1  0.63345400  0.60849100  0.48083800  1
  H  517  1  0.59364000  0.61850400  0.47835100  1
  H  518  1  0.62484900  0.54345400  0.41723400  1
  H  519  1  0.58522300  0.55366900  0.41457300  1
  H  520  1  0.54067600  0.55280000  0.42793900  1
  H  521  1  0.51713500  0.53992500  0.44971200  1
  H  522  1  0.52357200  0.60759600  0.51033200  1
  H  523  1  0.54714600  0.62020900  0.48870300  1
  H  524  1  0.52431000  0.62906500  0.45719600  1
  H  525  1  0.52301500  0.66894600  0.46492200  1
  H  526  1  0.59520600  0.66493900  0.44803000  1
  H  527  1  0.59633400  0.62561700  0.44010400  1
  H  528  1  0.58889700  0.58824400  0.40289200  1
  H  529  1  0.51749800  0.58614200  0.41950300  1
  H  530  1  0.50668800  0.57768500  0.38084200  1
  H  531  1  0.57822200  0.57988100  0.36449900  1
  H  534  1  0.49421100  0.57924700  0.50923200  1
  H  535  1  0.66089800  0.55331300  0.44538600  1
  H  537  1  0.57442500  0.70341300  0.46746500  1
  H  539  1  0.51977100  0.56544600  0.33910200  1
  H  565  1  0.63350400  0.55796600  0.13086300  1
  H  566  1  0.59370000  0.56046300  0.14338500  1
  H  567  1  0.62480300  0.62140300  0.12912800  1
  H  568  1  0.58518400  0.62407500  0.14202000  1
  H  569  1  0.54054400  0.61089200  0.12802700  1
  H  570  1  0.51699200  0.58911700  0.09338400  1
  H  571  1  0.52369500  0.52841300  0.10025500  1
  H  572  1  0.54727800  0.55004300  0.13449400  1
  H  573  1  0.52433300  0.58138100  0.17483000  1
  H  574  1  0.52305900  0.57365600  0.20698900  1
  H  575  1  0.59515500  0.59094300  0.22010300  1
  H  576  1  0.59626700  0.59886200  0.18870000  1
  H  577  1  0.58895300  0.63594900  0.18828400  1
  H  578  1  0.51751900  0.61919200  0.16983000  1
  H  579  1  0.50670400  0.65785500  0.20003000  1
  H  580  1  0.57826600  0.67434900  0.21831300  1
  H  583  1  0.49418700  0.52957000  0.07312800  1
  H  584  1  0.66090600  0.59344000  0.11104500  1
  H  586  1  0.57444800  0.57133800  0.23903900  1
  H  588  1  0.51978900  0.69964900  0.22942300  1
  H  599  1  0.84833700  0.64115400  0.34151400  1
  H  600  1  0.92856800  0.55698000  0.29780500  1
  H  601  1  0.92749000  0.55642500  0.26069900  1
  H  603  1  0.84483800  0.64407500  0.28487700  1
  H  604  1  0.84711600  0.66469200  0.31564200  1
  H  605  1  0.82431300  0.64309500  0.30489100  1
  H  618  1  0.84835300  0.73603700  0.39758800  1
  H  619  1  0.92858300  0.77650400  0.48176200  1
  H  620  1  0.92749700  0.73996000  0.48232800  1
  H  622  1  0.84483900  0.67648900  0.39468600  1
  H  623  1  0.84712300  0.68662600  0.37406200  1
  H  624  1  0.82431900  0.69748200  0.39565700  1
  H  637  1  0.84831800  0.69721300  0.30269100  1
  H  638  1  0.92858200  0.74092200  0.26226000  1
  H  639  1  0.92749500  0.77802700  0.29880800  1
  H  641  1  0.84480900  0.75384800  0.36225000  1
  H  642  1  0.84708400  0.72308400  0.35210400  1
  H  643  1  0.82428800  0.73383700  0.34125200  1
  H  656  1  0.34835600  0.40846000  0.68635600  1
  H  657  1  0.42857100  0.49264800  0.73008400  1
  H  658  1  0.42747700  0.49321400  0.76719500  1
  H  660  1  0.34483400  0.40555200  0.74299900  1
  H  661  1  0.34712400  0.38493100  0.71223800  1
  H  662  1  0.32431700  0.40652400  0.72297800  1
  H  675  1  0.34833800  0.31357200  0.63028600  1
  H  676  1  0.42855900  0.27312800  0.54610300  1
  H  677  1  0.42744900  0.30966800  0.54553300  1
  H  679  1  0.34480200  0.37312200  0.63319200  1
  H  680  1  0.34709800  0.36298500  0.65381700  1
  H  681  1  0.32429000  0.35212400  0.63222300  1
  H  694  1  0.34834300  0.35239900  0.72515800  1
  H  695  1  0.42852900  0.30866200  0.76563900  1
  H  696  1  0.42744200  0.27155600  0.72909200  1
  H  698  1  0.34483400  0.29575900  0.66560200  1
  H  699  1  0.34712400  0.32652100  0.67574700  1
  H  700  1  0.32431100  0.31578200  0.68659400  1
  H  713  1  0.09728700  0.31409200  0.68634500  1
  H  714  1  0.01800500  0.27257400  0.72989700  1
  H  715  1  0.01923000  0.30886400  0.76721600  1
  H  717  1  0.10085900  0.37337000  0.74327400  1
  H  718  1  0.09836000  0.36342300  0.71256400  1
  H  719  1  0.12138200  0.35255600  0.72305000  1
  H  732  1  0.09729400  0.35241600  0.63081800  1
  H  733  1  0.01803300  0.30885800  0.54572900  1
  H  734  1  0.01926700  0.27153500  0.54468900  1
  H  736  1  0.10087100  0.29548600  0.63316000  1
  H  737  1  0.09836900  0.32619400  0.65392600  1
  H  738  1  0.12139300  0.31571300  0.63257400  1
  H  751  1  0.09728900  0.40795500  0.72466900  1
  H  752  1  0.01802100  0.49303900  0.76620400  1
  H  753  1  0.01923900  0.49406600  0.72991300  1
  H  755  1  0.10084800  0.40560200  0.66539000  1
  H  756  1  0.09835300  0.38484100  0.67533900  1
  H  757  1  0.12137700  0.40619400  0.68620300  1
  H  770  1  0.59731200  0.73554800  0.34156900  1
  H  771  1  0.51802700  0.77705200  0.29800500  1
  H  772  1  0.51928000  0.74077400  0.26067900  1
  H  774  1  0.60091700  0.67628300  0.28463200  1
  H  775  1  0.59841100  0.68622000  0.31533900  1
  H  776  1  0.62142900  0.69710500  0.30486500  1
  H  789  1  0.59733300  0.69718500  0.39707200  1
  H  790  1  0.51799000  0.74072900  0.48208100  1
  H  791  1  0.51922100  0.77804500  0.48310800  1
  H  793  1  0.60091200  0.75410500  0.39470900  1
  H  794  1  0.59842900  0.72339300  0.37394900  1
  H  795  1  0.62143200  0.73389300  0.39532300  1
  H  808  1  0.59730800  0.64168500  0.30319500  1
  H  809  1  0.51800400  0.55663800  0.26169800  1
  H  810  1  0.51923900  0.55560300  0.29798400  1
  H  812  1  0.60088700  0.64403600  0.36247200  1
  H  813  1  0.59839200  0.66479900  0.35252500  1
  H  814  1  0.62140700  0.64343900  0.34165300  1
  H  827  1  0.70290400  0.64311100  0.43731000  1
  H  828  1  0.70062900  0.55425900  0.45860600  1
  H  829  1  0.74278200  0.55277900  0.45767000  1
  H  831  1  0.76975800  0.64315200  0.43524300  1
  H  832  1  0.74734400  0.66486700  0.44838500  1
  H  833  1  0.74651500  0.64398900  0.41750500  1
  H  846  1  0.70291100  0.82988900  0.39564500  1
  H  847  1  0.70062900  0.94003400  0.48450400  1
  H  848  1  0.74278200  0.94057500  0.48599500  1
  H  850  1  0.76976500  0.82777600  0.39562300  1
  H  851  1  0.74735600  0.81920900  0.37390100  1
  H  852  1  0.74651700  0.80920000  0.39477300  1
  H  865  1  0.70289700  0.60144700  0.20886200  1
  H  866  1  0.70062900  0.58012000  0.09870200  1
  H  867  1  0.74278200  0.58109700  0.09817300  1
  H  869  1  0.76974900  0.60357700  0.21099500  1
  H  870  1  0.74734900  0.59041100  0.21955700  1
  H  871  1  0.74649100  0.62129000  0.22956300  1
  H  884  1  0.20290900  0.40651000  0.59057100  1
  H  885  1  0.20062200  0.49537300  0.56929200  1
  H  886  1  0.24277300  0.49685700  0.57022800  1
  H  888  1  0.26976300  0.40647300  0.59263500  1
  H  889  1  0.24734900  0.38475600  0.57949300  1
  H  890  1  0.24652200  0.40563100  0.61037300  1
  H  903  1  0.20291100  0.21975100  0.63224800  1
  H  904  1  0.20062200  0.10960500  0.54339200  1
  H  905  1  0.24277300  0.10906300  0.54189400  1
  H  907  1  0.26976500  0.22186300  0.63226200  1
  H  908  1  0.24735900  0.23043200  0.65398600  1
  H  909  1  0.24651500  0.24044000  0.63311400  1
  H  922  1  0.20291100  0.44817800  0.81899900  1
  H  923  1  0.20063600  0.46948000  0.92914900  1
  H  924  1  0.24278800  0.46853000  0.92969100  1
  H  926  1  0.26976500  0.44608200  0.81688100  1
  H  927  1  0.24735700  0.45923900  0.80831600  1
  H  928  1  0.24651300  0.42835800  0.79830800  1
  H  941  1  0.97752800  0.47086000  0.43186000  1
  H  942  1  0.95755100  0.56357300  0.53691000  1
  H  943  1  0.97905100  0.54545800  0.55526100  1
  H  945  1  0.01205100  0.43929500  0.45787600  1
  H  946  1  0.01604600  0.44526600  0.43436700  1
  H  947  1  0.98975700  0.43138500  0.43613800  1
  H  960  1  0.97752000  0.99667700  0.56789100  1
  H  961  1  0.95753900  0.00903400  0.47519100  1
  H  962  1  0.97904700  0.04549600  0.49330500  1
  H  964  1  0.01206200  0.05424600  0.59945300  1
  H  965  1  0.01604400  0.02476300  0.59347900  1
  H  966  1  0.98976400  0.04042600  0.60736800  1
  H  979  1  0.97749200  0.60690300  0.04207100  1
  H  980  1  0.95753500  0.50183900  0.02970400  1
  H  981  1  0.97906200  0.48349900  0.99325400  1
  H  983  1  0.01207300  0.58091200  0.98452400  1
  H  984  1  0.01603900  0.60442000  0.01401100  1
  H  985  1  0.98976500  0.60263900  0.99833300  1
  H  998  1  0.47751800  0.57876700  0.59604400  1
  H  999  1  0.45754900  0.48606300  0.49098100  1
  H  1000  1  0.47906700  0.50417600  0.47263600  1
  H  1002  1  0.51207300  0.61032900  0.57004500  1
  H  1003  1  0.51604500  0.60436200  0.59355800  1
  H  1004  1  0.48976400  0.61823900  0.59176800  1
  H  1017  1  0.47748100  0.05296100  0.45999300  1
  H  1018  1  0.45757000  0.04060400  0.55270200  1
  H  1019  1  0.47909300  0.00415100  0.53458600  1
  H  1021  1  0.51205700  0.99541300  0.42842700  1
  H  1022  1  0.51601800  0.02490000  0.43440200  1
  H  1023  1  0.48974300  0.00922100  0.42051600  1
  H  1036  1  0.47751600  0.44274200  0.98580500  1
  H  1037  1  0.45754000  0.54779900  0.99816500  1
  H  1038  1  0.47905600  0.56614500  0.03462100  1
  H  1040  1  0.51207500  0.46874400  0.04336500  1
  H  1041  1  0.51605500  0.44524000  0.01387900  1
  H  1042  1  0.48978000  0.44700700  0.02954600  1
  H  1070  1  0.81114600  0.05244300  0.15265900  1
  H  1071  1  0.85164400  0.05303000  0.14398390  1
  H  1072  1  0.81939700  0.11789500  0.21598690  1
  H  1073  1  0.85977900  0.11834200  0.20720690  1
  H  1074  1  0.90429400  0.10337200  0.20883200  1
  H  1075  1  0.92507800  0.08087400  0.22273100  1
  H  1076  1  0.91817500  0.02004000  0.15530000  1
  H  1077  1  0.89750400  0.04241300  0.14162190  1
  H  1078  1  0.92143100  0.07425100  0.13289490  1
  H  1079  1  0.92319000  0.06643600  0.09297990  1
  H  1080  1  0.85071700  0.08184200  0.09572190  1
  H  1081  1  0.84914700  0.09001100  0.13508490  1
  H  1082  1  0.85724100  0.12801100  0.17120490  1
  H  1083  1  0.92810300  0.11188000  0.17653590  1
  H  1084  1  0.93926600  0.15048600  0.18500890  1
  H  1085  1  0.86824000  0.16627900  0.17959690  1
  H  1088  1  0.93118800  0.01636100  0.18897600  1
  H  1089  1  0.78027400  0.10221100  0.20300500  1
  H  1091  1  0.87232800  0.06266900  0.05752800  1
  H  1093  1  0.92665100  0.19190400  0.19590487  1
  H  1119  1  0.81113200  0.39862700  0.20304600  1
  H  1120  1  0.85161300  0.38935200  0.20245200  1
  H  1121  1  0.81941300  0.39668000  0.13768100  1
  H  1122  1  0.85979000  0.38744200  0.13721900  1
  H  1123  1  0.90435600  0.40392500  0.15211500  1
  H  1124  1  0.92512100  0.44032800  0.17461100  1
  H  1125  1  0.91808000  0.43381500  0.23548200  1
  H  1126  1  0.89743100  0.39775400  0.21310300  1
  H  1127  1  0.92143800  0.35719100  0.18132300  1
  H  1128  1  0.92321900  0.32511600  0.18916900  1
  H  1129  1  0.85079700  0.31228100  0.17356400  1
  H  1130  1  0.84921100  0.34346700  0.16537900  1
  H  1131  1  0.85724700  0.34172900  0.12745500  1
  H  1132  1  0.92811800  0.36306700  0.14365000  1
  H  1133  1  0.93929000  0.33291800  0.10506000  1
  H  1134  1  0.86824300  0.31183800  0.08920000  1
  H  1137  1  0.93115800  0.47114000  0.23914100  1
  H  1138  1  0.78027900  0.39933000  0.15333500  1
  H  1140  1  0.87239500  0.29342700  0.19294600  1
  H  1142  1  0.92670000  0.30241600  0.06363300  1
  H  1168  1  0.81113400  0.10291400  0.85686200  1
  H  1169  1  0.85161900  0.11157700  0.86611200  1
  H  1170  1  0.81939600  0.03952100  0.85886300  1
  H  1171  1  0.85977400  0.04828100  0.86807500  1
  H  1172  1  0.90432900  0.04667400  0.85154900  1
  H  1173  1  0.92508500  0.03276100  0.81513900  1
  H  1174  1  0.91809600  0.10016000  0.82167600  1
  H  1175  1  0.89745500  0.11384700  0.85774200  1
  H  1176  1  0.92144000  0.12261300  0.89831000  1
  H  1177  1  0.92322100  0.16253400  0.93038600  1
  H  1178  1  0.85078700  0.15978400  0.94318500  1
  H  1179  1  0.84920100  0.12041300  0.91200000  1
  H  1180  1  0.85724900  0.08423900  0.91376900  1
  H  1181  1  0.92811300  0.07904000  0.89239400  1
  H  1182  1  0.93928500  0.07058700  0.92253500  1
  H  1183  1  0.86824600  0.07586200  0.94365300  1
  H  1186  1  0.93112400  0.06648000  0.78433400  1
  H  1187  1  0.78026900  0.05254500  0.85623700  1
  H  1189  1  0.87239700  0.19801400  0.96205300  1
  H  1191  1  0.92669500  0.05966900  0.95304000  1
  H  1217  1  0.31107300  0.98347990  0.32252690  1
  H  1218  1  0.35154900  0.98289690  0.33122390  1
  H  1219  1  0.31946900  0.91829090  0.25894290  1
  H  1220  1  0.35983900  0.91784090  0.26773090  1
  H  1221  1  0.40451100  0.93256290  0.26621690  1
  H  1222  1  0.42528900  0.95506990  0.25232590  1
  H  1223  1  0.41793800  0.01600300  0.31961900  1
  H  1224  1  0.39728200  0.99361687  0.33328887  1
  H  1225  1  0.42141600  0.96200990  0.34220290  1
  H  1226  1  0.42317400  0.96985490  0.38212990  1
  H  1227  1  0.35084500  0.95382890  0.37918090  1
  H  1228  1  0.34928100  0.94565090  0.33980990  1
  H  1229  1  0.35717800  0.90786290  0.30346990  1
  H  1230  1  0.42810600  0.92422490  0.29877390  1
  H  1231  1  0.43928300  0.88562900  0.29031300  1
  H  1232  1  0.36818700  0.86959600  0.29508000  1
  H  1235  1  0.43117900  0.01963800  0.28600600  1
  H  1236  1  0.28030200  0.93380590  0.27200790  1
  H  1238  1  0.37237000  0.97339390  0.41749290  1
  H  1240  1  0.42669800  0.84415000  0.27921700  1
  H  1266  1  0.31108900  0.63750200  0.27199100  1
  H  1267  1  0.35156400  0.64678000  0.27257900  1
  H  1268  1  0.31944300  0.63920000  0.33722800  1
  H  1269  1  0.35981900  0.64843600  0.33768600  1
  H  1270  1  0.40445500  0.63213100  0.32292700  1
  H  1271  1  0.42522900  0.59573000  0.30042900  1
  H  1272  1  0.41798000  0.60212500  0.23950800  1
  H  1273  1  0.39732200  0.63818200  0.26188500  1
  H  1274  1  0.42142100  0.67870800  0.29351400  1
  H  1275  1  0.42318300  0.71079600  0.28567600  1
  H  1276  1  0.35083700  0.72382200  0.30162100  1
  H  1277  1  0.34926800  0.69262900  0.30979500  1
  H  1278  1  0.35718500  0.69414300  0.34761400  1
  H  1279  1  0.42810400  0.67301500  0.33128700  1
  H  1280  1  0.43927900  0.70314800  0.36981467  1
  H  1281  1  0.36819600  0.72402100  0.38588000  1
  H  1284  1  0.43111200  0.56483500  0.23588100  1
  H  1285  1  0.28028400  0.63670100  0.32167300  1
  H  1287  1  0.37237000  0.74257800  0.28208600  1
  H  1289  1  0.42666800  0.73353800  0.41137000  1
  H  1315  1  0.31114000  0.93313690  0.61817990  1
  H  1316  1  0.35161700  0.92446090  0.60892790  1
  H  1317  1  0.31939000  0.99648687  0.61610187  1
  H  1318  1  0.35978100  0.98770990  0.60687690  1
  H  1319  1  0.40430500  0.98934290  0.62345590  1
  H  1320  1  0.42507400  0.00325000  0.65986200  1
  H  1321  1  0.41814000  0.93582890  0.65328390  1
  H  1322  1  0.39748600  0.92214790  0.61722790  1
  H  1323  1  0.42143000  0.91336790  0.57663490  1
  H  1324  1  0.42317100  0.87345800  0.54452500  1
  H  1325  1  0.35070500  0.87625900  0.53187600  1
  H  1326  1  0.34915900  0.91561090  0.56307890  1
  H  1327  1  0.35723100  0.95170690  0.56119990  1
  H  1328  1  0.42809900  0.95700890  0.58263390  1
  H  1329  1  0.43925400  0.96549090  0.55250590  1
  H  1330  1  0.36822400  0.96010890  0.53132790  1
  H  1333  1  0.43113500  0.96951690  0.69064290  1
  H  1334  1  0.28026800  0.98348090  0.61876390  1
  H  1336  1  0.37227500  0.83804400  0.51282100  1
  H  1338  1  0.42666000  0.97636590  0.52198090  1
  H  1364  1  0.13347000  0.63483100  0.32119200  1
  H  1365  1  0.09366100  0.64732900  0.33121400  1
  H  1366  1  0.12482400  0.63331500  0.25612100  1
  H  1367  1  0.08519800  0.64619500  0.26634600  1
  H  1368  1  0.04063500  0.63201900  0.26548600  1
  H  1369  1  0.01708200  0.59737800  0.25261600  1
  H  1370  1  0.02358000  0.60438500  0.32026400  1
  H  1371  1  0.04716500  0.63862100  0.33287500  1
  H  1372  1  0.02431200  0.67898800  0.34178400  1
  H  1373  1  0.02304100  0.71116700  0.38165800  1
  H  1374  1  0.09522000  0.72404800  0.37757400  1
  H  1375  1  0.09632500  0.69263500  0.33826400  1
  H  1376  1  0.08891400  0.69245200  0.30089700  1
  H  1377  1  0.01749600  0.67376900  0.29883800  1
  H  1378  1  0.00669700  0.70396200  0.29034700  1
  H  1379  1  0.07823800  0.72246600  0.29250600  1
  H  1382  1  0.99417100  0.57718300  0.29193400  1
  H  1383  1  0.16091000  0.61510100  0.26598800  1
  H  1385  1  0.07447600  0.74314500  0.41604900  1
  H  1387  1  0.01979500  0.73343700  0.27808000  1
  H  1413  1  0.13343800  0.93437590  0.27058990  1
  H  1414  1  0.09361100  0.92436390  0.27306690  1
  H  1415  1  0.12486400  0.99934587  0.33427087  1
  H  1416  1  0.08523500  0.98912990  0.33691990  1
  H  1417  1  0.04071100  0.99002187  0.32349987  1
  H  1418  1  0.01714500  0.00289800  0.30174100  1
  H  1419  1  0.02348000  0.93519990  0.24113890  1
  H  1420  1  0.04708000  0.92258290  0.26274990  1
  H  1421  1  0.02431500  0.91375690  0.29428690  1
  H  1422  1  0.02304100  0.87387900  0.28658000  1
  H  1423  1  0.09527100  0.87787400  0.30333600  1
  H  1424  1  0.09638300  0.91719190  0.31125290  1
  H  1425  1  0.08890000  0.95451590  0.34852390  1
  H  1426  1  0.01750000  0.95675790  0.33195190  1
  H  1427  1  0.00669500  0.96525190  0.37063290  1
  H  1428  1  0.07822000  0.96291090  0.38692990  1
  H  1431  1  0.99412800  0.96357390  0.24227390  1
  H  1432  1  0.16090800  0.98951190  0.30608490  1
  H  1434  1  0.07448100  0.83943300  0.28406200  1
  H  1436  1  0.01981100  0.97748090  0.41237390  1
  H  1462  1  0.13344500  0.98492190  0.62078190  1
  H  1463  1  0.09362000  0.98243890  0.60828790  1
  H  1464  1  0.12487600  0.92124490  0.62207790  1
  H  1465  1  0.08524700  0.91858990  0.60920890  1
  H  1466  1  0.04072600  0.93201190  0.62352590  1
  H  1467  1  0.01716100  0.95377790  0.65816190  1
  H  1468  1  0.02349600  0.01437100  0.65105200  1
  H  1469  1  0.04709400  0.99275687  0.61682387  1
  H  1470  1  0.02432200  0.96121790  0.57646490  1
  H  1471  1  0.02304500  0.96892090  0.54429390  1
  H  1472  1  0.09527300  0.95216490  0.53152790  1
  H  1473  1  0.09639000  0.94424990  0.56292890  1
  H  1474  1  0.08890900  0.90698290  0.56298290  1
  H  1475  1  0.01751000  0.92355590  0.58180090  1
  H  1476  1  0.00670200  0.88488000  0.55154667  1
  H  1477  1  0.07822400  0.86858100  0.53296800  1
  H  1480  1  0.99416900  0.01326500  0.67831800  1
  H  1481  1  0.16091300  0.94941290  0.64041590  1
  H  1483  1  0.07448300  0.97143490  0.51235890  1
  H  1485  1  0.01982500  0.84312800  0.52211000  1
  H  1511  1  0.63346000  0.40122100  0.15382500  1
  H  1512  1  0.59364500  0.38871600  0.14380600  1
  H  1513  1  0.62484200  0.40265800  0.21886300  1
  H  1514  1  0.58521800  0.38977800  0.20864100  1
  H  1515  1  0.54067400  0.40400500  0.20950600  1
  H  1516  1  0.51713200  0.43865200  0.22237900  1
  H  1517  1  0.52357500  0.43160700  0.15471100  1
  H  1518  1  0.54715100  0.39736500  0.14209900  1
  H  1519  1  0.52431700  0.35700200  0.13323500  1
  H  1520  1  0.52302600  0.32484600  0.09335400  1
  H  1521  1  0.59521300  0.31195600  0.09737300  1
  H  1522  1  0.59633800  0.34335300  0.13669400  1
  H  1523  1  0.58889300  0.34351000  0.17405700  1
  H  1524  1  0.51749600  0.36222600  0.17615200  1
  H  1525  1  0.50668100  0.33201700  0.18460000  1
  H  1526  1  0.57821400  0.31347300  0.18240500  1
  H  1529  1  0.49420600  0.45884700  0.18305700  1
  H  1530  1  0.66089900  0.42095600  0.20899600  1
  H  1532  1  0.57443800  0.29292200  0.05889700  1
  H  1534  1  0.51977500  0.30251300  0.19684700  1
  H  1560  1  0.63345400  0.10167600  0.20439400  1
  H  1561  1  0.59364000  0.11168900  0.20190690  1
  H  1562  1  0.62484900  0.03663900  0.14079000  1
  H  1563  1  0.58522300  0.04685400  0.13812890  1
  H  1564  1  0.54067600  0.04598500  0.15149500  1
  H  1565  1  0.51713500  0.03311000  0.17326800  1
  H  1566  1  0.52357200  0.10078100  0.23388800  1
  H  1567  1  0.54714600  0.11339400  0.21225890  1
  H  1568  1  0.52431000  0.12225000  0.18075190  1
  H  1569  1  0.52301500  0.16213100  0.18847790  1
  H  1570  1  0.59520600  0.15812400  0.17158590  1
  H  1571  1  0.59633400  0.11880200  0.16365990  1
  H  1572  1  0.58889700  0.08142900  0.12644790  1
  H  1573  1  0.51749800  0.07932700  0.14305890  1
  H  1574  1  0.50668800  0.07087000  0.10439790  1
  H  1575  1  0.57822200  0.07306600  0.08805490  1
  H  1578  1  0.49421100  0.07243200  0.23278800  1
  H  1579  1  0.66089800  0.04649800  0.16894200  1
  H  1581  1  0.57442500  0.19659800  0.19102100  1
  H  1583  1  0.51977100  0.05863100  0.06265787  1
  H  1609  1  0.63350400  0.05115100  0.85441900  1
  H  1610  1  0.59370000  0.05364800  0.86694100  1
  H  1611  1  0.62480300  0.11458800  0.85268400  1
  H  1612  1  0.58518400  0.11726000  0.86557600  1
  H  1613  1  0.54054400  0.10407700  0.85158300  1
  H  1614  1  0.51699200  0.08230200  0.81694000  1
  H  1615  1  0.52369500  0.02159800  0.82381100  1
  H  1616  1  0.54727800  0.04322800  0.85805000  1
  H  1617  1  0.52433300  0.07456600  0.89838600  1
  H  1618  1  0.52305900  0.06684100  0.93054500  1
  H  1619  1  0.59515500  0.08412800  0.94365900  1
  H  1620  1  0.59626700  0.09204700  0.91225600  1
  H  1621  1  0.58895300  0.12913400  0.91184000  1
  H  1622  1  0.51751900  0.11237700  0.89338600  1
  H  1623  1  0.50670400  0.15104000  0.92358600  1
  H  1624  1  0.57826600  0.16753400  0.94186900  1
  H  1627  1  0.49418700  0.02275500  0.79668400  1
  H  1628  1  0.66090600  0.08662500  0.83460100  1
  H  1630  1  0.57444800  0.06452300  0.96259500  1
  H  1632  1  0.51978900  0.19283400  0.95297900  1
  H  1643  1  0.84833700  0.13433900  0.06507000  1
  H  1644  1  0.92856800  0.05016500  0.02136100  1
  H  1645  1  0.92749000  0.04961000  0.98425500  1
  H  1647  1  0.84483800  0.13726000  0.00843300  1
  H  1648  1  0.84711600  0.15787700  0.03919800  1
  H  1649  1  0.82431300  0.13628000  0.02844700  1
  H  1662  1  0.84835300  0.22922200  0.12114400  1
  H  1663  1  0.92858300  0.26968900  0.20531800  1
  H  1664  1  0.92749700  0.23314500  0.20588400  1
  H  1666  1  0.84483900  0.16967400  0.11824200  1
  H  1667  1  0.84712300  0.17981100  0.09761800  1
  H  1668  1  0.82431900  0.19066700  0.11921300  1
  H  1681  1  0.84831800  0.19039800  0.02624700  1
  H  1682  1  0.92858200  0.23410700  0.98581600  1
  H  1683  1  0.92749500  0.27121200  0.02236400  1
  H  1685  1  0.84480900  0.24703300  0.08580600  1
  H  1686  1  0.84708400  0.21626900  0.07566000  1
  H  1687  1  0.82428800  0.22702200  0.06480800  1
  H  1700  1  0.34835600  0.90164490  0.40991190  1
  H  1701  1  0.42857100  0.98583290  0.45363990  1
  H  1702  1  0.42747700  0.98639890  0.49075090  1
  H  1704  1  0.34483400  0.89873700  0.46655500  1
  H  1705  1  0.34712400  0.87811600  0.43579400  1
  H  1706  1  0.32431700  0.89970900  0.44653400  1
  H  1719  1  0.34833800  0.80675700  0.35384200  1
  H  1720  1  0.42855900  0.76631300  0.26965900  1
  H  1721  1  0.42744900  0.80285300  0.26908900  1
  H  1723  1  0.34480200  0.86630700  0.35674800  1
  H  1724  1  0.34709800  0.85617000  0.37737300  1
  H  1725  1  0.32429000  0.84530900  0.35577900  1
  H  1738  1  0.34834300  0.84558400  0.44871400  1
  H  1739  1  0.42852900  0.80184700  0.48919500  1
  H  1740  1  0.42744200  0.76474100  0.45264800  1
  H  1742  1  0.34483400  0.78894400  0.38915800  1
  H  1743  1  0.34712400  0.81970600  0.39930300  1
  H  1744  1  0.32431100  0.80896700  0.41015000  1
  H  1757  1  0.09728700  0.80727700  0.40990100  1
  H  1758  1  0.01800500  0.76575900  0.45345300  1
  H  1759  1  0.01923000  0.80204900  0.49077200  1
  H  1761  1  0.10085900  0.86655500  0.46683000  1
  H  1762  1  0.09836000  0.85660800  0.43612000  1
  H  1763  1  0.12138200  0.84574100  0.44660600  1
  H  1776  1  0.09729400  0.84560100  0.35437400  1
  H  1777  1  0.01803300  0.80204300  0.26928500  1
  H  1778  1  0.01926700  0.76472000  0.26824500  1
  H  1780  1  0.10087100  0.78867100  0.35671600  1
  H  1781  1  0.09836900  0.81937900  0.37748200  1
  H  1782  1  0.12139300  0.80889800  0.35613000  1
  H  1795  1  0.09728900  0.90113990  0.44822490  1
  H  1796  1  0.01802100  0.98622390  0.48975990  1
  H  1797  1  0.01923900  0.98725090  0.45346890  1
  H  1799  1  0.10084800  0.89878700  0.38894600  1
  H  1800  1  0.09835300  0.87802600  0.39889500  1
  H  1801  1  0.12137700  0.89937900  0.40975900  1
  H  1814  1  0.59731200  0.22873300  0.06512500  1
  H  1815  1  0.51802700  0.27023700  0.02156100  1
  H  1816  1  0.51928000  0.23395900  0.98423500  1
  H  1818  1  0.60091700  0.16946800  0.00818800  1
  H  1819  1  0.59841100  0.17940500  0.03889500  1
  H  1820  1  0.62142900  0.19029000  0.02842100  1
  H  1833  1  0.59733300  0.19037000  0.12062800  1
  H  1834  1  0.51799000  0.23391400  0.20563700  1
  H  1835  1  0.51922100  0.27123000  0.20666400  1
  H  1837  1  0.60091200  0.24729000  0.11826500  1
  H  1838  1  0.59842900  0.21657800  0.09750500  1
  H  1839  1  0.62143200  0.22707800  0.11887900  1
  H  1852  1  0.59730800  0.13487000  0.02675100  1
  H  1853  1  0.51800400  0.04982300  0.98525400  1
  H  1854  1  0.51923900  0.04878800  0.02154000  1
  H  1856  1  0.60088700  0.13722100  0.08602800  1
  H  1857  1  0.59839200  0.15798400  0.07608100  1
  H  1858  1  0.62140700  0.13662400  0.06520900  1
  H  1871  1  0.70290400  0.13629600  0.16086590  1
  H  1872  1  0.70062900  0.04744400  0.18216200  1
  H  1873  1  0.74278200  0.04596400  0.18122600  1
  H  1875  1  0.76975800  0.13633700  0.15879890  1
  H  1876  1  0.74734400  0.15805200  0.17194090  1
  H  1877  1  0.74651500  0.13717400  0.14106087  1
  H  1890  1  0.70291100  0.32307400  0.11920100  1
  H  1891  1  0.70062900  0.43321900  0.20806000  1
  H  1892  1  0.74278200  0.43376000  0.20955100  1
  H  1894  1  0.76976500  0.32096100  0.11917900  1
  H  1895  1  0.74735600  0.31239400  0.09745700  1
  H  1896  1  0.74651700  0.30238500  0.11832900  1
  H  1909  1  0.70289700  0.09463200  0.93241800  1
  H  1910  1  0.70062900  0.07330500  0.82225800  1
  H  1911  1  0.74278200  0.07428200  0.82172900  1
  H  1913  1  0.76974900  0.09676200  0.93455100  1
  H  1914  1  0.74734900  0.08359600  0.94311300  1
  H  1915  1  0.74649100  0.11447500  0.95311900  1
  H  1928  1  0.20290900  0.89969500  0.31412700  1
  H  1929  1  0.20062200  0.98855790  0.29284790  1
  H  1930  1  0.24277300  0.99004187  0.29378387  1
  H  1932  1  0.26976300  0.89965800  0.31619100  1
  H  1933  1  0.24734900  0.87794100  0.30304900  1
  H  1934  1  0.24652200  0.89881600  0.33392900  1
  H  1947  1  0.20291100  0.71293600  0.35580400  1
  H  1948  1  0.20062200  0.60279000  0.26694800  1
  H  1949  1  0.24277300  0.60224800  0.26545000  1
  H  1951  1  0.26976500  0.71504800  0.35581800  1
  H  1952  1  0.24735900  0.72361700  0.37754200  1
  H  1953  1  0.24651500  0.73362500  0.35667000  1
  H  1966  1  0.20291100  0.94136290  0.54255490  1
  H  1967  1  0.20063600  0.96266490  0.65270490  1
  H  1968  1  0.24278800  0.96171490  0.65324690  1
  H  1970  1  0.26976500  0.93926690  0.54043690  1
  H  1971  1  0.24735700  0.95242390  0.53187190  1
  H  1972  1  0.24651300  0.92154290  0.52186390  1
  H  1985  1  0.97752800  0.96404490  0.15541590  1
  H  1986  1  0.95755100  0.05675800  0.26046600  1
  H  1987  1  0.97905100  0.03864300  0.27881700  1
  H  1989  1  0.01205100  0.93247990  0.18143190  1
  H  1990  1  0.01604600  0.93845090  0.15792290  1
  H  1991  1  0.98975700  0.92456990  0.15969390  1
  H  2004  1  0.97752000  0.48986200  0.29144700  1
  H  2005  1  0.95753900  0.50221900  0.19874700  1
  H  2006  1  0.97904700  0.53868100  0.21686100  1
  H  2008  1  0.01206200  0.54743100  0.32300900  1
  H  2009  1  0.01604400  0.51794800  0.31703500  1
  H  2010  1  0.98976400  0.53361100  0.33092400  1
  H  2023  1  0.97749200  0.10008800  0.76562700  1
  H  2024  1  0.95753500  0.99502387  0.75325987  1
  H  2025  1  0.97906200  0.97668390  0.71680990  1
  H  2027  1  0.01207300  0.07409700  0.70808000  1
  H  2028  1  0.01603900  0.09760500  0.73756700  1
  H  2029  1  0.98976500  0.09582400  0.72188900  1
  H  2042  1  0.47751800  0.07195200  0.31960000  1
  H  2043  1  0.45754900  0.97924790  0.21453690  1
  H  2044  1  0.47906700  0.99736087  0.19619187  1
  H  2046  1  0.51207300  0.10351400  0.29360100  1
  H  2047  1  0.51604500  0.09754700  0.31711400  1
  H  2048  1  0.48976400  0.11142400  0.31532400  1
  H  2061  1  0.47748100  0.54614600  0.18354900  1
  H  2062  1  0.45757000  0.53378900  0.27625800  1
  H  2063  1  0.47909300  0.49733600  0.25814200  1
  H  2065  1  0.51205700  0.48859800  0.15198300  1
  H  2066  1  0.51601800  0.51808500  0.15795800  1
  H  2067  1  0.48974300  0.50240600  0.14407200  1
  H  2080  1  0.47751600  0.93592690  0.70936090  1
  H  2081  1  0.45754000  0.04098400  0.72172100  1
  H  2082  1  0.47905600  0.05933000  0.75817700  1
  H  2084  1  0.51207500  0.96192890  0.76692090  1
  H  2085  1  0.51605500  0.93842490  0.73743490  1
  H  2086  1  0.48978000  0.94019190  0.75310190  1
  C  1  1  0.90492600  0.66935400  0.45988100  1
  C  2  1  0.92173600  0.65304600  0.45936600  1
  C  3  1  0.91502600  0.63019700  0.45462400  1
  C  4  1  0.89113900  0.62262000  0.45089900  1
  C  5  1  0.87456700  0.63934100  0.45146400  1
  C  6  1  0.88110300  0.66209400  0.45609100  1
  C  7  1  0.88409400  0.59659500  0.44141800  1
  C  8  1  0.88468800  0.58802100  0.41465700  1
  C  9  1  0.86478700  0.59067600  0.40285400  1
  C  10  1  0.86571800  0.58617000  0.37940800  1
  C  11  1  0.88701400  0.57954800  0.36649200  1
  C  12  1  0.90729500  0.57753000  0.37798400  1
  C  13  1  0.90610800  0.58184200  0.40151800  1
  C  14  1  0.89982800  0.58276700  0.44955100  1
  C  15  1  0.85973200  0.59366200  0.44993700  1
  C  16  1  0.84529900  0.57354000  0.43594400  1
  C  17  1  0.82119300  0.57318800  0.44103600  1
  C  18  1  0.81071300  0.59235700  0.46128400  1
  C  19  1  0.82592300  0.61062400  0.47726500  1
  C  20  1  0.84993800  0.61094200  0.47195400  1
  C  21  1  0.90783800  0.59280600  0.47339400  1
  C  22  1  0.92014200  0.57946500  0.48173700  1
  C  23  1  0.92449800  0.55492500  0.46683500  1
  C  24  1  0.91609300  0.54464100  0.44321500  1
  C  25  1  0.90397200  0.55806100  0.43496400  1
  C  42  1  0.78635100  0.59453700  0.46521000  1
  C  43  1  0.91182300  0.69153600  0.46356200  1
  C  46  1  0.88695200  0.57605100  0.34358000  1
  C  48  1  0.93497500  0.54036900  0.47461900  1
  C  50  1  0.90493900  0.82617700  0.36940900  1
  C  51  1  0.92175400  0.84193900  0.38573500  1
  C  52  1  0.91503600  0.86006800  0.40856900  1
  C  53  1  0.89114400  0.86397900  0.41613600  1
  C  54  1  0.87457700  0.84783100  0.39939400  1
  C  55  1  0.88110900  0.82969600  0.37664500  1
  C  56  1  0.88410300  0.88049700  0.44216200  1
  C  57  1  0.88471000  0.86231600  0.45073800  1
  C  58  1  0.86484600  0.84778300  0.44800300  1
  C  59  1  0.86578400  0.82885100  0.45252100  1
  C  60  1  0.88707000  0.82261600  0.45921500  1
  C  61  1  0.90733000  0.83616500  0.46127500  1
  C  62  1  0.90612700  0.85537400  0.45694500  1
  C  63  1  0.89984400  0.90245100  0.45598500  1
  C  64  1  0.85973700  0.89194300  0.44511100  1
  C  65  1  0.84528500  0.89800100  0.46520200  1
  C  66  1  0.82118800  0.90348700  0.46558100  1
  C  67  1  0.81071300  0.90460400  0.44643000  1
  C  68  1  0.82592500  0.90232700  0.42816700  1
  C  69  1  0.84994500  0.89671800  0.42785700  1
  C  70  1  0.90786600  0.91625500  0.44594900  1
  C  71  1  0.92015200  0.93795100  0.45929400  1
  C  72  1  0.92447500  0.94761100  0.48384000  1
  C  73  1  0.91602800  0.93429900  0.49413300  1
  C  74  1  0.90392100  0.91262100  0.48070900  1
  C  91  1  0.78635300  0.90637000  0.44425500  1
  C  92  1  0.91183800  0.80766400  0.34723600  1
  C  95  1  0.88702000  0.80325900  0.46280800  1
  C  97  1  0.93495200  0.96995200  0.49839200  1
  C  99  1  0.90493900  0.57889200  0.21255500  1
  C  100  1  0.92175100  0.57944400  0.19678400  1
  C  101  1  0.91503200  0.58415800  0.17866000  1
  C  102  1  0.89114200  0.58783700  0.17476700  1
  C  103  1  0.87458000  0.58726800  0.19093200  1
  C  104  1  0.88111100  0.58263100  0.20905100  1
  C  105  1  0.88410000  0.59734300  0.15824700  1
  C  106  1  0.88470700  0.62409900  0.17642500  1
  C  107  1  0.86483800  0.63590300  0.19094700  1
  C  108  1  0.86577600  0.65935400  0.20988000  1
  C  109  1  0.88706500  0.67227900  0.21612300  1
  C  110  1  0.90733000  0.66078200  0.20258600  1
  C  111  1  0.90612700  0.63724300  0.18337800  1
  C  112  1  0.89984100  0.58920900  0.13629100  1
  C  113  1  0.85973400  0.58884200  0.14680000  1
  C  114  1  0.84528700  0.60286800  0.14072800  1
  C  115  1  0.82118900  0.59776100  0.13523600  1
  C  116  1  0.81070700  0.57751300  0.13415700  1
  C  117  1  0.82591600  0.56152200  0.13642800  1
  C  118  1  0.84993500  0.56682200  0.14204400  1
  C  119  1  0.90784400  0.56536300  0.12247700  1
  C  120  1  0.92014200  0.55701300  0.10078900  1
  C  121  1  0.92447100  0.57190100  0.09113200  1
  C  122  1  0.91603800  0.59551200  0.10445000  1
  C  123  1  0.90393100  0.60376700  0.12612800  1
  C  140  1  0.78634400  0.57358900  0.13241100  1
  C  141  1  0.91183800  0.57521900  0.23106000  1
  C  144  1  0.88701600  0.69522500  0.23548500  1
  C  146  1  0.93493400  0.56411200  0.06878500  1
  C  148  1  0.40490900  0.38027200  0.56800400  1
  C  149  1  0.42174200  0.39664600  0.56869600  1
  C  150  1  0.41502300  0.41948200  0.57341200  1
  C  151  1  0.39111400  0.42700100  0.57696300  1
  C  152  1  0.37452900  0.41021200  0.57622800  1
  C  153  1  0.38106400  0.38745700  0.57159400  1
  C  154  1  0.38409800  0.45303600  0.58647900  1
  C  155  1  0.38472900  0.46158700  0.61322900  1
  C  156  1  0.36488000  0.45874100  0.62497400  1
  C  157  1  0.36581200  0.46324200  0.64841800  1
  C  158  1  0.38706500  0.47006400  0.66139900  1
  C  159  1  0.40730900  0.47223500  0.64995900  1
  C  160  1  0.40611800  0.46791600  0.62642400  1
  C  161  1  0.39983600  0.46684700  0.57833000  1
  C  162  1  0.35973000  0.45601400  0.57800600  1
  C  163  1  0.34524800  0.47606000  0.59210200  1
  C  164  1  0.32115000  0.47642300  0.58698900  1
  C  165  1  0.31071400  0.45732000  0.56665300  1
  C  166  1  0.32596400  0.43914000  0.55061200  1
  C  167  1  0.34999100  0.43884500  0.55590800  1
  C  168  1  0.40795000  0.45678900  0.55452000  1
  C  169  1  0.42022800  0.47014300  0.54617600  1
  C  170  1  0.42447600  0.49470600  0.56104100  1
  C  171  1  0.41594300  0.50501500  0.58461900  1
  C  172  1  0.40382700  0.49158800  0.59286400  1
  C  189  1  0.28635600  0.45512600  0.56268400  1
  C  190  1  0.41180400  0.35809500  0.56433400  1
  C  193  1  0.38700000  0.47364600  0.68434100  1
  C  195  1  0.43496700  0.50925800  0.55326000  1
  C  197  1  0.40491300  0.22342000  0.65847800  1
  C  198  1  0.42173800  0.20771800  0.64211700  1
  C  199  1  0.41502000  0.18960100  0.61927700  1
  C  200  1  0.39111300  0.18565200  0.61174900  1
  C  201  1  0.37453200  0.20172600  0.62852700  1
  C  202  1  0.38107100  0.21985200  0.65128000  1
  C  203  1  0.38409600  0.16912700  0.58571700  1
  C  204  1  0.38472700  0.18731900  0.57715600  1
  C  205  1  0.36487300  0.20189200  0.57997300  1
  C  206  1  0.36579800  0.22081900  0.57544700  1
  C  207  1  0.38706400  0.22700700  0.56866900  1
  C  208  1  0.40731300  0.21341600  0.56653100  1
  C  209  1  0.40612200  0.19420400  0.57085700  1
  C  210  1  0.39983600  0.14716600  0.57191000  1
  C  211  1  0.35972800  0.15767800  0.58274500  1
  C  212  1  0.34525500  0.15170000  0.56268600  1
  C  213  1  0.32115900  0.14621300  0.56231200  1
  C  214  1  0.31070900  0.14502600  0.58143400  1
  C  215  1  0.32594700  0.14721700  0.59964600  1
  C  216  1  0.34997900  0.15278000  0.59993100  1
  C  217  1  0.40792600  0.13340600  0.58196900  1
  C  218  1  0.42019800  0.11170600  0.56862000  1
  C  219  1  0.42449000  0.10202400  0.54406400  1
  C  220  1  0.41596900  0.11529600  0.53375400  1
  C  221  1  0.40385400  0.13696800  0.54717400  1
  C  238  1  0.28635100  0.14325600  0.58362200  1
  C  239  1  0.41181100  0.24192900  0.68065300  1
  C  242  1  0.38700400  0.24637900  0.56510300  1
  C  244  1  0.43494300  0.07967200  0.52951200  1
  C  246  1  0.40491300  0.47074800  0.81533800  1
  C  247  1  0.42172800  0.47020400  0.83111300  1
  C  248  1  0.41501800  0.46549200  0.84923900  1
  C  249  1  0.39113200  0.46176300  0.85309100  1
  C  250  1  0.37455500  0.46234000  0.83694300  1
  C  251  1  0.38108900  0.46697100  0.81882000  1
  C  252  1  0.38408900  0.45228900  0.86964000  1
  C  253  1  0.38469500  0.42552600  0.85147100  1
  C  254  1  0.36478800  0.41373400  0.83700600  1
  C  255  1  0.36570300  0.39029000  0.81806100  1
  C  256  1  0.38699100  0.37736100  0.81175400  1
  C  257  1  0.40728100  0.38884200  0.82525300  1
  C  258  1  0.40610600  0.41237500  0.84447900  1
  C  259  1  0.39983500  0.46043700  0.89159600  1
  C  260  1  0.35973000  0.46080900  0.88109700  1
  C  261  1  0.34530900  0.44682500  0.88724800  1
  C  262  1  0.32119800  0.45191100  0.89268000  1
  C  263  1  0.31070700  0.47213700  0.89371600  1
  C  264  1  0.32591700  0.48811900  0.89143200  1
  C  265  1  0.34993800  0.48282700  0.88583600  1
  C  266  1  0.40783800  0.48428100  0.90540700  1
  C  267  1  0.42013700  0.49262600  0.92709200  1
  C  268  1  0.42448300  0.47772900  0.93673700  1
  C  269  1  0.41606600  0.45411300  0.92340800  1
  C  270  1  0.40395400  0.44586100  0.90173400  1
  C  287  1  0.28634700  0.47607800  0.89549300  1
  C  288  1  0.41180600  0.47443600  0.79684100  1
  C  291  1  0.38691400  0.35445200  0.79233400  1
  C  293  1  0.43494400  0.48551800  0.95908400  1
  C  295  1  0.04133400  0.22304900  0.56676300  1
  C  296  1  0.02423000  0.20799200  0.56817200  1
  C  297  1  0.03071800  0.18984200  0.57291100  1
  C  298  1  0.05461800  0.18519800  0.57575300  1
  C  299  1  0.07151400  0.20052400  0.57414800  1
  C  300  1  0.06519200  0.21873200  0.56954500  1
  C  301  1  0.06138200  0.16891700  0.58561700  1
  C  302  1  0.06091400  0.18742800  0.61228700  1
  C  303  1  0.08083500  0.20206800  0.62365200  1
  C  304  1  0.08018800  0.22108500  0.64707100  1
  C  305  1  0.05913800  0.22732400  0.66038900  1
  C  306  1  0.03878100  0.21375100  0.64926100  1
  C  307  1  0.03969200  0.19445900  0.62574900  1
  C  308  1  0.04525700  0.14724400  0.57767700  1
  C  309  1  0.08557100  0.15703400  0.57728300  1
  C  310  1  0.09984400  0.15133200  0.59171400  1
  C  311  1  0.12348600  0.14406900  0.58592300  1
  C  312  1  0.13343800  0.14063100  0.56454500  1
  C  313  1  0.11849800  0.14308900  0.54854200  1
  C  314  1  0.09501700  0.15078500  0.55468300  1
  C  315  1  0.03686800  0.13357800  0.55395600  1
  C  316  1  0.02310800  0.11281900  0.54615900  1
  C  317  1  0.01739700  0.10410600  0.56157600  1
  C  318  1  0.02667800  0.11691400  0.58488800  1
  C  319  1  0.04050400  0.13751000  0.59250100  1
  C  336  1  0.15695600  0.13446800  0.55884700  1
  C  337  1  0.03464400  0.24167500  0.56321800  1
  C  340  1  0.05950400  0.24669400  0.68333900  1
  C  342  1  0.00275700  0.08434100  0.55525000  1
  C  344  1  0.04132400  0.47199700  0.65935300  1
  C  345  1  0.02422900  0.47063100  0.64289800  1
  C  346  1  0.03072000  0.46589800  0.62001100  1
  C  347  1  0.05461800  0.46300000  0.61251000  1
  C  348  1  0.07150200  0.46453400  0.62941900  1
  C  349  1  0.06517800  0.46915500  0.65223700  1
  C  350  1  0.06138600  0.45314200  0.58636700  1
  C  351  1  0.06093800  0.42647300  0.57821700  1
  C  352  1  0.08088100  0.41507900  0.58140800  1
  C  353  1  0.08022400  0.39166300  0.57701500  1
  C  354  1  0.05915900  0.37836700  0.56998600  1
  C  355  1  0.03879200  0.38951800  0.56759500  1
  C  356  1  0.03970300  0.41303200  0.57182100  1
  C  357  1  0.04526500  0.46107200  0.57261900  1
  C  358  1  0.08557100  0.46149100  0.58283100  1
  C  359  1  0.09983300  0.44708300  0.56267900  1
  C  360  1  0.12346900  0.45288400  0.56119500  1
  C  361  1  0.13343800  0.47423100  0.57916400  1
  C  362  1  0.11851400  0.49022000  0.59765100  1
  C  363  1  0.09504000  0.48406700  0.59921700  1
  C  364  1  0.03691200  0.48480600  0.58267200  1
  C  365  1  0.02314500  0.49260500  0.56971600  1
  C  366  1  0.01738500  0.47717700  0.54560100  1
  C  367  1  0.02662000  0.45385000  0.53510700  1
  C  368  1  0.04045300  0.44622900  0.54808100  1
  C  385  1  0.15695700  0.47992200  0.57870400  1
  C  386  1  0.03462600  0.47554400  0.68152200  1
  C  389  1  0.05952400  0.35542000  0.56641500  1
  C  391  1  0.00273700  0.48350800  0.53217200  1
  C  393  1  0.04132900  0.37941500  0.81571500  1
  C  394  1  0.02423800  0.39585800  0.83082200  1
  C  395  1  0.03072900  0.41875400  0.84896000  1
  C  396  1  0.05462700  0.42625400  0.85356300  1
  C  397  1  0.07151200  0.40934200  0.83819200  1
  C  398  1  0.06518300  0.38653500  0.81997800  1
  C  399  1  0.06139500  0.45239800  0.86984300  1
  C  400  1  0.06094500  0.46054600  0.85132300  1
  C  401  1  0.08088600  0.45735400  0.83673700  1
  C  402  1  0.08022700  0.46174700  0.81771400  1
  C  403  1  0.05916100  0.46877900  0.81144900  1
  C  404  1  0.03879700  0.47117600  0.82499700  1
  C  405  1  0.03970800  0.46693800  0.84427600  1
  C  406  1  0.04527600  0.46614800  0.89152200  1
  C  407  1  0.08558200  0.45593400  0.88172600  1
  C  408  1  0.09984400  0.47608500  0.88746700  1
  C  409  1  0.12347900  0.47757100  0.89475000  1
  C  410  1  0.13344900  0.45960600  0.89813700  1
  C  411  1  0.11852600  0.44112100  0.89564100  1
  C  412  1  0.09505300  0.43954800  0.88791700  1
  C  413  1  0.03692000  0.45609700  0.90520200  1
  C  414  1  0.02315900  0.46905800  0.92596300  1
  C  415  1  0.01738900  0.49317000  0.93463900  1
  C  416  1  0.02662900  0.50366200  0.92180400  1
  C  417  1  0.04046400  0.49068500  0.90121200  1
  C  434  1  0.15696800  0.46007400  0.90429500  1
  C  435  1  0.03463000  0.35725100  0.79708700  1
  C  438  1  0.05952400  0.47234600  0.79207100  1
  C  440  1  0.00275900  0.50660900  0.95441100  1
  C  442  1  0.54131400  0.82654500  0.46106900  1
  C  443  1  0.52422000  0.84163100  0.45970200  1
  C  444  1  0.53071900  0.85979700  0.45498800  1
  C  445  1  0.55461800  0.86444900  0.45214500  1
  C  446  1  0.57149500  0.84907900  0.45370400  1
  C  447  1  0.56516900  0.83085300  0.45827900  1
  C  448  1  0.56138500  0.88071100  0.44226400  1
  C  449  1  0.56092800  0.86219700  0.41559700  1
  C  450  1  0.58083900  0.84755000  0.40420800  1
  C  451  1  0.58017800  0.82853100  0.38078900  1
  C  452  1  0.55912200  0.82231000  0.36748200  1
  C  453  1  0.53877300  0.83588600  0.37862800  1
  C  454  1  0.53969400  0.85515800  0.40214900  1
  C  455  1  0.54525700  0.90238100  0.45018800  1
  C  456  1  0.58557500  0.89258800  0.45059800  1
  C  457  1  0.59985500  0.89827800  0.43616300  1
  C  458  1  0.62348700  0.90557700  0.44196700  1
  C  459  1  0.63344200  0.90900700  0.46334000  1
  C  460  1  0.61851100  0.90652300  0.47933300  1
  C  461  1  0.59503400  0.89881400  0.47318700  1
  C  462  1  0.53689400  0.91606600  0.47391800  1
  C  463  1  0.52314200  0.93683300  0.48171900  1
  C  464  1  0.51740800  0.94553200  0.46629500  1
  C  465  1  0.52667800  0.93271300  0.44297900  1
  C  466  1  0.54050100  0.91211400  0.43536500  1
  C  483  1  0.65695600  0.91517500  0.46904000  1
  C  484  1  0.53461300  0.80789900  0.46457900  1
  C  487  1  0.55948000  0.80298200  0.34450600  1
  C  489  1  0.50278400  0.96530700  0.47262600  1
  C  491  1  0.54132200  0.57765900  0.36853100  1
  C  492  1  0.52422600  0.57903200  0.38498700  1
  C  493  1  0.53072200  0.58375400  0.40787000  1
  C  494  1  0.55462000  0.58660400  0.41537000  1
  C  495  1  0.57149700  0.58505700  0.39844600  1
  C  496  1  0.56517800  0.58044700  0.37563200  1
  C  497  1  0.56138300  0.59648700  0.44151400  1
  C  498  1  0.56092500  0.62315200  0.44966600  1
  C  499  1  0.58083500  0.63454500  0.44641300  1
  C  500  1  0.58017100  0.65796400  0.45081500  1
  C  501  1  0.55911300  0.67127000  0.45790200  1
  C  502  1  0.53876400  0.66011800  0.46032000  1
  C  503  1  0.53968900  0.63659800  0.45607200  1
  C  504  1  0.54525500  0.58856200  0.45525900  1
  C  505  1  0.58557300  0.58815500  0.44506000  1
  C  506  1  0.59985100  0.60259000  0.46518700  1
  C  507  1  0.62348000  0.59678400  0.46668900  1
  C  508  1  0.63344000  0.57541600  0.44874200  1
  C  509  1  0.61851100  0.55941800  0.43026900  1
  C  510  1  0.59503500  0.56556700  0.42869800  1
  C  511  1  0.53689300  0.56483100  0.44521500  1
  C  512  1  0.52314200  0.55702900  0.45818000  1
  C  513  1  0.51740800  0.57245500  0.48230300  1
  C  514  1  0.52667500  0.59577100  0.49280100  1
  C  515  1  0.54049800  0.60338500  0.47981500  1
  C  532  1  0.65695600  0.56972100  0.44921700  1
  C  533  1  0.53462700  0.57412900  0.34636700  1
  C  536  1  0.55946900  0.69424400  0.46154300  1
  C  538  1  0.50278700  0.56612400  0.49575000  1
  C  540  1  0.54134900  0.67023100  0.21219000  1
  C  541  1  0.52424300  0.65373700  0.19717800  1
  C  542  1  0.53074100  0.63085300  0.17901800  1
  C  543  1  0.55465200  0.62340100  0.17431200  1
  C  544  1  0.57154100  0.64036600  0.18959700  1
  C  545  1  0.56521500  0.66317300  0.20781100  1
  C  546  1  0.56138800  0.59724900  0.15804600  1
  C  547  1  0.56090500  0.58910900  0.17656900  1
  C  548  1  0.58079800  0.59246800  0.19127100  1
  C  549  1  0.58014100  0.58807700  0.21029600  1
  C  550  1  0.55911500  0.58087800  0.21644900  1
  C  551  1  0.53878300  0.57834900  0.20281500  1
  C  552  1  0.53969800  0.58259000  0.18353700  1
  C  553  1  0.54526400  0.58351800  0.13637100  1
  C  554  1  0.58558200  0.59367700  0.14616800  1
  C  555  1  0.59988800  0.57359100  0.14056900  1
  C  556  1  0.62351500  0.57208800  0.13325600  1
  C  557  1  0.63344500  0.58998200  0.12973300  1
  C  558  1  0.61848100  0.60839600  0.13210800  1
  C  559  1  0.59500200  0.60996200  0.13981700  1
  C  560  1  0.53681700  0.59359500  0.12274300  1
  C  561  1  0.52306100  0.58063100  0.10198100  1
  C  562  1  0.51741200  0.55648000  0.09322800  1
  C  563  1  0.52674900  0.54596000  0.10599700  1
  C  564  1  0.54057700  0.55894500  0.12659500  1
  C  581  1  0.65695800  0.58949400  0.12354000  1
  C  582  1  0.53465700  0.69239200  0.23082900  1
  C  585  1  0.55948500  0.57724100  0.23578100  1
  C  587  1  0.50276600  0.54304000  0.07347000  1
  C  589  1  0.90272500  0.58366600  0.31493100  1
  C  590  1  0.88769200  0.59925600  0.31183500  1
  C  591  1  0.88715200  0.59908500  0.28990800  1
  C  592  1  0.90174400  0.58345900  0.27080200  1
  C  593  1  0.91689300  0.56811400  0.27417900  1
  C  594  1  0.91751800  0.56836900  0.29597500  1
  C  596  1  0.85807700  0.63004800  0.30591000  1
  C  597  1  0.85868600  0.62998500  0.32751100  1
  C  602  1  0.84270300  0.64640600  0.30259300  1
  C  608  1  0.90274200  0.76694200  0.45507300  1
  C  609  1  0.88770400  0.74826000  0.43948900  1
  C  610  1  0.88715900  0.72650600  0.43966600  1
  C  611  1  0.90174200  0.72303200  0.45530200  1
  C  612  1  0.91689800  0.74175000  0.47063900  1
  C  613  1  0.91752500  0.76328900  0.47038100  1
  C  615  1  0.85808600  0.71154500  0.40870200  1
  C  616  1  0.85870000  0.73320600  0.40876000  1
  C  621  1  0.84270900  0.69187000  0.39234900  1
  C  627  1  0.90273100  0.72379400  0.27181000  1
  C  628  1  0.88768900  0.72689000  0.29048900  1
  C  629  1  0.88714500  0.74881700  0.31224600  1
  C  630  1  0.90173700  0.76792600  0.31573100  1
  C  631  1  0.91689200  0.76454900  0.29701300  1
  C  632  1  0.91752000  0.74275400  0.27547100  1
  C  634  1  0.85805900  0.73281500  0.32719500  1
  C  635  1  0.85867100  0.71121500  0.30553000  1
  C  640  1  0.84267600  0.73613300  0.34686600  1
  C  646  1  0.40273500  0.46595800  0.71295300  1
  C  647  1  0.38769800  0.45036900  0.71604700  1
  C  648  1  0.38714800  0.45054500  0.73797700  1
  C  649  1  0.40172700  0.46618300  0.75709100  1
  C  650  1  0.41688400  0.48152200  0.75371300  1
  C  651  1  0.41751800  0.48126100  0.73191500  1
  C  653  1  0.35808000  0.41957700  0.72196800  1
  C  654  1  0.35869700  0.41963400  0.70036300  1
  C  659  1  0.34270500  0.40321800  0.72528300  1
  C  665  1  0.40272400  0.28268300  0.57279600  1
  C  666  1  0.38768400  0.30136200  0.58838400  1
  C  667  1  0.38712700  0.32311500  0.58820600  1
  C  668  1  0.40170600  0.32659600  0.57257100  1
  C  669  1  0.41686300  0.30787800  0.55722800  1
  C  670  1  0.41750100  0.28634000  0.55748900  1
  C  672  1  0.35805900  0.33806900  0.61917300  1
  C  673  1  0.35868100  0.31640700  0.61911500  1
  C  678  1  0.34267900  0.35774000  0.63552800  1
  C  684  1  0.40270100  0.32579900  0.75607400  1
  C  685  1  0.38767500  0.32270700  0.73738500  1
  C  686  1  0.38713100  0.30077900  0.71562900  1
  C  687  1  0.40171300  0.28166600  0.71215200  1
  C  688  1  0.41685400  0.28504000  0.73087900  1
  C  689  1  0.41747200  0.30683200  0.75242400  1
  C  691  1  0.35807100  0.31679000  0.70066500  1
  C  692  1  0.35868500  0.33839200  0.72232700  1
  C  697  1  0.34270300  0.31347600  0.68098600  1
  C  703  1  0.04354700  0.28247800  0.71279100  1
  C  704  1  0.05843300  0.30130200  0.71599300  1
  C  705  1  0.05905100  0.32292200  0.73805400  1
  C  706  1  0.04469600  0.32612800  0.75721200  1
  C  707  1  0.02967500  0.30727800  0.75372300  1
  C  708  1  0.02896000  0.28588400  0.73179200  1
  C  710  1  0.08774900  0.33827900  0.72209500  1
  C  711  1  0.08708100  0.31674500  0.70037100  1
  C  716  1  0.10296200  0.35808300  0.72549200  1
  C  722  1  0.04356500  0.32597000  0.57274900  1
  C  723  1  0.05844700  0.32276700  0.58837400  1
  C  724  1  0.05906900  0.30070400  0.58792700  1
  C  725  1  0.04471700  0.28154600  0.57197500  1
  C  726  1  0.02970300  0.28503300  0.55660500  1
  C  727  1  0.02898800  0.30696500  0.55714300  1
  C  729  1  0.08776000  0.31666500  0.61924900  1
  C  730  1  0.08709000  0.33838900  0.61944200  1
  C  735  1  0.10297300  0.31326900  0.63565800  1
  C  741  1  0.04355300  0.46602000  0.75629300  1
  C  742  1  0.05843500  0.45039400  0.73746400  1
  C  743  1  0.05905000  0.45083400  0.71584500  1
  C  744  1  0.04469100  0.46678300  0.71263800  1
  C  745  1  0.02968000  0.48215500  0.73149600  1
  C  746  1  0.02897000  0.48161900  0.75289200  1
  C  748  1  0.08774600  0.41951700  0.70048300  1
  C  749  1  0.08708100  0.41932700  0.72201700  1
  C  754  1  0.10295500  0.40310800  0.68067800  1
  C  760  1  0.54355800  0.76714700  0.31512100  1
  C  761  1  0.55845300  0.74832800  0.31191700  1
  C  762  1  0.55908700  0.72671500  0.28985100  1
  C  763  1  0.54474100  0.72350800  0.27068900  1
  C  764  1  0.52971200  0.74235600  0.27417800  1
  C  765  1  0.52898800  0.76374700  0.29611100  1
  C  767  1  0.58778800  0.71136600  0.30581400  1
  C  768  1  0.58710600  0.73289500  0.32754100  1
  C  773  1  0.60301200  0.69156900  0.30241700  1
  C  779  1  0.54354200  0.72362200  0.45508400  1
  C  780  1  0.55844200  0.72682500  0.43947100  1
  C  781  1  0.55906400  0.74888400  0.43990900  1
  C  782  1  0.54469800  0.76803900  0.45584500  1
  C  783  1  0.52967200  0.76455300  0.47120700  1
  C  784  1  0.52895700  0.74262400  0.47067600  1
  C  786  1  0.58778700  0.73292900  0.40861800  1
  C  787  1  0.58711700  0.71120700  0.40843300  1
  C  792  1  0.60301700  0.73632500  0.39222100  1
  C  798  1  0.54355000  0.58364400  0.27159600  1
  C  799  1  0.55844000  0.59926100  0.29041700  1
  C  800  1  0.55906400  0.59881800  0.31203500  1
  C  801  1  0.54470700  0.58287000  0.31524500  1
  C  802  1  0.52968100  0.56751300  0.29639800  1
  C  803  1  0.52896000  0.56805100  0.27500400  1
  C  805  1  0.58777100  0.63012500  0.32738300  1
  C  806  1  0.58709900  0.63031500  0.30584900  1
  C  811  1  0.60299100  0.64652900  0.34718300  1
  C  817  1  0.69717000  0.58302100  0.45213000  1
  C  818  1  0.71049100  0.59922000  0.44833200  1
  C  819  1  0.73556600  0.59840500  0.44797000  1
  C  820  1  0.74772800  0.58160600  0.45174000  1
  C  821  1  0.73441700  0.56532100  0.45524600  1
  C  822  1  0.70958200  0.56616300  0.45567500  1
  C  824  1  0.73674000  0.63036400  0.43965800  1
  C  825  1  0.71191800  0.63120000  0.44018200  1
  C  830  1  0.75094000  0.64651600  0.43493000  1
  C  836  1  0.69717200  0.90479400  0.45574400  1
  C  837  1  0.71049600  0.88479800  0.43954600  1
  C  838  1  0.73557000  0.88524700  0.44036900  1
  C  839  1  0.74772800  0.90581200  0.45717800  1
  C  840  1  0.73441900  0.92560800  0.47345200  1
  C  841  1  0.70958200  0.92519800  0.47260400  1
  C  843  1  0.73674500  0.84498100  0.40840300  1
  C  844  1  0.71192400  0.84467000  0.40756000  1
  C  849  1  0.75094500  0.82410200  0.39225200  1
  C  855  1  0.69717000  0.58662400  0.13395100  1
  C  856  1  0.71048900  0.59044100  0.15395500  1
  C  857  1  0.73556500  0.59082600  0.15351200  1
  C  858  1  0.74772400  0.58706900  0.13294700  1
  C  859  1  0.73441700  0.58352800  0.11314200  1
  C  860  1  0.70958200  0.58307800  0.11354700  1
  C  862  1  0.73673300  0.59913200  0.19378000  1
  C  863  1  0.71191100  0.59858200  0.19408100  1
  C  868  1  0.75093100  0.60387100  0.21466400  1
  C  874  1  0.19716600  0.46660500  0.57576000  1
  C  875  1  0.21049100  0.45040500  0.57955400  1
  C  876  1  0.23556600  0.45122200  0.57991700  1
  C  877  1  0.24772400  0.46802300  0.57614800  1
  C  878  1  0.23441200  0.48430900  0.57264600  1
  C  879  1  0.20957600  0.48346800  0.57222000  1
  C  881  1  0.23674300  0.41925900  0.58822200  1
  C  882  1  0.21192200  0.41842200  0.58769900  1
  C  887  1  0.25094500  0.40310900  0.59294900  1
  C  893  1  0.19716600  0.14484700  0.57215000  1
  C  894  1  0.21049300  0.16484300  0.58834600  1
  C  895  1  0.23556600  0.16439300  0.58752200  1
  C  896  1  0.24772200  0.14382500  0.57070800  1
  C  897  1  0.23441200  0.12403100  0.55443900  1
  C  898  1  0.20957500  0.12444300  0.55528900  1
  C  900  1  0.23674500  0.20465900  0.61948500  1
  C  901  1  0.21192300  0.20497000  0.62033100  1
  C  906  1  0.25094700  0.22553800  0.63563400  1
  C  912  1  0.19717700  0.46298900  0.89390600  1
  C  913  1  0.21050000  0.45918600  0.87390700  1
  C  914  1  0.23557300  0.45881200  0.87435600  1
  C  915  1  0.24773300  0.46256700  0.89492100  1
  C  916  1  0.23442400  0.46609900  0.91472000  1
  C  917  1  0.20958900  0.46653700  0.91431100  1
  C  919  1  0.23674700  0.45051000  0.83408800  1
  C  920  1  0.21192500  0.45104700  0.83378100  1
  C  925  1  0.25094500  0.44578000  0.81320800  1
  C  931  1  0.96047700  0.53525000  0.50160000  1
  C  932  1  0.97083800  0.51244300  0.48795200  1
  C  933  1  0.98367500  0.50160300  0.49895400  1
  C  934  1  0.98661300  0.51316000  0.52396100  1
  C  935  1  0.97688200  0.53615900  0.53725500  1
  C  936  1  0.96416200  0.54688300  0.52639100  1
  C  938  1  0.99192400  0.46808300  0.46053700  1
  C  939  1  0.97930600  0.47888600  0.44984800  1
  C  944  1  0.00310700  0.44465300  0.44644200  1
  C  950  1  0.96046800  0.00204100  0.50350900  1
  C  951  1  0.97083300  0.01119600  0.52631400  1
  C  952  1  0.98367100  0.03303700  0.53715800  1
  C  953  1  0.98661600  0.04648400  0.52559700  1
  C  954  1  0.97687700  0.03678700  0.50260300  1
  C  955  1  0.96415300  0.01520300  0.49187900  1
  C  957  1  0.99192200  0.02813100  0.57067100  1
  C  958  1  0.97929300  0.00664400  0.55986900  1
  C  963  1  0.00311300  0.03745700  0.59409700  1
  C  969  1  0.96043400  0.53714900  0.03668400  1
  C  970  1  0.97081800  0.55080400  0.02754600  1
  C  971  1  0.98367600  0.53981300  0.00571600  1
  C  972  1  0.98663900  0.51480600  0.99227500  1
  C  973  1  0.97688500  0.50150500  0.00196100  1
  C  974  1  0.96415000  0.51236200  0.02353800  1
  C  976  1  0.99192000  0.57823500  0.01062800  1
  C  977  1  0.97928100  0.58891500  0.03210800  1
  C  982  1  0.00311300  0.59234000  0.00130800  1
  C  988  1  0.46049900  0.51437200  0.52629500  1
  C  989  1  0.47086000  0.53717900  0.53994700  1
  C  990  1  0.48371000  0.54801800  0.52895200  1
  C  991  1  0.48667500  0.53644800  0.50394500  1
  C  992  1  0.47690500  0.51347000  0.49064500  1
  C  993  1  0.46417800  0.50274600  0.50150300  1
  C  995  1  0.49193800  0.58154000  0.56737200  1
  C  996  1  0.47930800  0.57073800  0.57805400  1
  C  1001  1  0.50311800  0.60497200  0.58147500  1
  C  1007  1  0.46045700  0.04758200  0.52437000  1
  C  1008  1  0.47083500  0.03844100  0.50157200  1
  C  1009  1  0.48368900  0.01661000  0.49073100  1
  C  1010  1  0.48665800  0.00317100  0.50229700  1
  C  1011  1  0.47691200  0.01285700  0.52528700  1
  C  1012  1  0.46418000  0.03443600  0.53601100  1
  C  1014  1  0.49191400  0.02151900  0.45721400  1
  C  1015  1  0.47927300  0.04299800  0.46801700  1
  C  1020  1  0.50309600  0.01219800  0.43378600  1
  C  1026  1  0.46042700  0.51249100  0.99119600  1
  C  1027  1  0.47081500  0.49883900  0.00033600  1
  C  1028  1  0.48366600  0.50983700  0.02217100  1
  C  1029  1  0.48660700  0.53484400  0.03562300  1
  C  1030  1  0.47687700  0.54813800  0.02591900  1
  C  1031  1  0.46414600  0.53727800  0.00433700  1
  C  1033  1  0.49192600  0.47141500  0.01725600  1
  C  1034  1  0.47929600  0.46073000  0.99577100  1
  C  1039  1  0.50312400  0.45731400  0.02657800  1
  C  1045  1  0.90492600  0.16253900  0.18343690  1
  C  1046  1  0.92173600  0.14623100  0.18292190  1
  C  1047  1  0.91502600  0.12338200  0.17817990  1
  C  1048  1  0.89113900  0.11580500  0.17445490  1
  C  1049  1  0.87456700  0.13252600  0.17501990  1
  C  1050  1  0.88110300  0.15527900  0.17964690  1
  C  1051  1  0.88409400  0.08978000  0.16497390  1
  C  1052  1  0.88468800  0.08120600  0.13821290  1
  C  1053  1  0.86478700  0.08386100  0.12640990  1
  C  1054  1  0.86571800  0.07935500  0.10296390  1
  C  1055  1  0.88701400  0.07273300  0.09004790  1
  C  1056  1  0.90729500  0.07071500  0.10153990  1
  C  1057  1  0.90610800  0.07502700  0.12507390  1
  C  1058  1  0.89982800  0.07595200  0.17310690  1
  C  1059  1  0.85973200  0.08684700  0.17349290  1
  C  1060  1  0.84529900  0.06672500  0.15949990  1
  C  1061  1  0.82119300  0.06637300  0.16459190  1
  C  1062  1  0.81071300  0.08554200  0.18483990  1
  C  1063  1  0.82592300  0.10380900  0.20082090  1
  C  1064  1  0.84993800  0.10412700  0.19550990  1
  C  1065  1  0.90783800  0.08599100  0.19695000  1
  C  1066  1  0.92014200  0.07265000  0.20529300  1
  C  1067  1  0.92449800  0.04811000  0.19039100  1
  C  1068  1  0.91609300  0.03782600  0.16677100  1
  C  1069  1  0.90397200  0.05124600  0.15852000  1
  C  1086  1  0.78635100  0.08772200  0.18876600  1
  C  1087  1  0.91182300  0.18472100  0.18711787  1
  C  1090  1  0.88695200  0.06923600  0.06713600  1
  C  1092  1  0.93497500  0.03355400  0.19817500  1
  C  1094  1  0.90493900  0.31936200  0.09296500  1
  C  1095  1  0.92175400  0.33512400  0.10929100  1
  C  1096  1  0.91503600  0.35325300  0.13212500  1
  C  1097  1  0.89114400  0.35716400  0.13969200  1
  C  1098  1  0.87457700  0.34101600  0.12295000  1
  C  1099  1  0.88110900  0.32288100  0.10020100  1
  C  1100  1  0.88410300  0.37368200  0.16571800  1
  C  1101  1  0.88471000  0.35550100  0.17429400  1
  C  1102  1  0.86484600  0.34096800  0.17155900  1
  C  1103  1  0.86578400  0.32203600  0.17607700  1
  C  1104  1  0.88707000  0.31580100  0.18277100  1
  C  1105  1  0.90733000  0.32935000  0.18483100  1
  C  1106  1  0.90612700  0.34855900  0.18050100  1
  C  1107  1  0.89984400  0.39563600  0.17954100  1
  C  1108  1  0.85973700  0.38512800  0.16866700  1
  C  1109  1  0.84528500  0.39118600  0.18875800  1
  C  1110  1  0.82118800  0.39667200  0.18913700  1
  C  1111  1  0.81071300  0.39778900  0.16998600  1
  C  1112  1  0.82592500  0.39551200  0.15172300  1
  C  1113  1  0.84994500  0.38990300  0.15141300  1
  C  1114  1  0.90786600  0.40944000  0.16950500  1
  C  1115  1  0.92015200  0.43113600  0.18285000  1
  C  1116  1  0.92447500  0.44079600  0.20739600  1
  C  1117  1  0.91602800  0.42748400  0.21768900  1
  C  1118  1  0.90392100  0.40580600  0.20426500  1
  C  1135  1  0.78635300  0.39955500  0.16781100  1
  C  1136  1  0.91183800  0.30084900  0.07079200  1
  C  1139  1  0.88702000  0.29644400  0.18636400  1
  C  1141  1  0.93495200  0.46313700  0.22194800  1
  C  1143  1  0.90493900  0.07207700  0.93611100  1
  C  1144  1  0.92175100  0.07262900  0.92034000  1
  C  1145  1  0.91503200  0.07734300  0.90221600  1
  C  1146  1  0.89114200  0.08102200  0.89832300  1
  C  1147  1  0.87458000  0.08045300  0.91448800  1
  C  1148  1  0.88111100  0.07581600  0.93260700  1
  C  1149  1  0.88410000  0.09052800  0.88180300  1
  C  1150  1  0.88470700  0.11728400  0.89998100  1
  C  1151  1  0.86483800  0.12908800  0.91450300  1
  C  1152  1  0.86577600  0.15253900  0.93343600  1
  C  1153  1  0.88706500  0.16546400  0.93967900  1
  C  1154  1  0.90733000  0.15396700  0.92614200  1
  C  1155  1  0.90612700  0.13042800  0.90693400  1
  C  1156  1  0.89984100  0.08239400  0.85984700  1
  C  1157  1  0.85973400  0.08202700  0.87035600  1
  C  1158  1  0.84528700  0.09605300  0.86428400  1
  C  1159  1  0.82118900  0.09094600  0.85879200  1
  C  1160  1  0.81070700  0.07069800  0.85771300  1
  C  1161  1  0.82591600  0.05470700  0.85998400  1
  C  1162  1  0.84993500  0.06000700  0.86560000  1
  C  1163  1  0.90784400  0.05854800  0.84603300  1
  C  1164  1  0.92014200  0.05019800  0.82434500  1
  C  1165  1  0.92447100  0.06508600  0.81468800  1
  C  1166  1  0.91603800  0.08869700  0.82800600  1
  C  1167  1  0.90393100  0.09695200  0.84968400  1
  C  1184  1  0.78634400  0.06677400  0.85596700  1
  C  1185  1  0.91183800  0.06840400  0.95461600  1
  C  1188  1  0.88701600  0.18841000  0.95904100  1
  C  1190  1  0.93493400  0.05729700  0.79234100  1
  C  1192  1  0.40490900  0.87345700  0.29156000  1
  C  1193  1  0.42174200  0.88983100  0.29225200  1
  C  1194  1  0.41502300  0.91266690  0.29696790  1
  C  1195  1  0.39111400  0.92018590  0.30051890  1
  C  1196  1  0.37452900  0.90339690  0.29978390  1
  C  1197  1  0.38106400  0.88064200  0.29515000  1
  C  1198  1  0.38409800  0.94622090  0.31003490  1
  C  1199  1  0.38472900  0.95477190  0.33678490  1
  C  1200  1  0.36488000  0.95192590  0.34852990  1
  C  1201  1  0.36581200  0.95642690  0.37197390  1
  C  1202  1  0.38706500  0.96324890  0.38495490  1
  C  1203  1  0.40730900  0.96541990  0.37351490  1
  C  1204  1  0.40611800  0.96110090  0.34997990  1
  C  1205  1  0.39983600  0.96003190  0.30188590  1
  C  1206  1  0.35973000  0.94919890  0.30156190  1
  C  1207  1  0.34524800  0.96924490  0.31565790  1
  C  1208  1  0.32115000  0.96960790  0.31054490  1
  C  1209  1  0.31071400  0.95050490  0.29020890  1
  C  1210  1  0.32596400  0.93232490  0.27416790  1
  C  1211  1  0.34999100  0.93202990  0.27946390  1
  C  1212  1  0.40795000  0.94997390  0.27807590  1
  C  1213  1  0.42022800  0.96332790  0.26973190  1
  C  1214  1  0.42447600  0.98789090  0.28459690  1
  C  1215  1  0.41594300  0.99819987  0.30817487  1
  C  1216  1  0.40382700  0.98477290  0.31641990  1
  C  1233  1  0.28635600  0.94831090  0.28623990  1
  C  1234  1  0.41180400  0.85128000  0.28789000  1
  C  1237  1  0.38700000  0.96683090  0.40789690  1
  C  1239  1  0.43496700  0.00244300  0.27681600  1
  C  1241  1  0.40491300  0.71660500  0.38203400  1
  C  1242  1  0.42173800  0.70090300  0.36567300  1
  C  1243  1  0.41502000  0.68278600  0.34283300  1
  C  1244  1  0.39111300  0.67883700  0.33530500  1
  C  1245  1  0.37453200  0.69491100  0.35208300  1
  C  1246  1  0.38107100  0.71303700  0.37483600  1
  C  1247  1  0.38409600  0.66231200  0.30927300  1
  C  1248  1  0.38472700  0.68050400  0.30071200  1
  C  1249  1  0.36487300  0.69507700  0.30352900  1
  C  1250  1  0.36579800  0.71400400  0.29900300  1
  C  1251  1  0.38706400  0.72019200  0.29222500  1
  C  1252  1  0.40731300  0.70660100  0.29008700  1
  C  1253  1  0.40612200  0.68738900  0.29441300  1
  C  1254  1  0.39983600  0.64035100  0.29546600  1
  C  1255  1  0.35972800  0.65086300  0.30630100  1
  C  1256  1  0.34525500  0.64488500  0.28624200  1
  C  1257  1  0.32115900  0.63939800  0.28586800  1
  C  1258  1  0.31070900  0.63821100  0.30499000  1
  C  1259  1  0.32594700  0.64040200  0.32320200  1
  C  1260  1  0.34997900  0.64596500  0.32348700  1
  C  1261  1  0.40792600  0.62659100  0.30552500  1
  C  1262  1  0.42019800  0.60489100  0.29217600  1
  C  1263  1  0.42449000  0.59520900  0.26762000  1
  C  1264  1  0.41596900  0.60848100  0.25731000  1
  C  1265  1  0.40385400  0.63015300  0.27073000  1
  C  1282  1  0.28635100  0.63644100  0.30717800  1
  C  1283  1  0.41181100  0.73511400  0.40420900  1
  C  1286  1  0.38700400  0.73956400  0.28865900  1
  C  1288  1  0.43494300  0.57285700  0.25306800  1
  C  1290  1  0.40491300  0.96393290  0.53889390  1
  C  1291  1  0.42172800  0.96338890  0.55466890  1
  C  1292  1  0.41501800  0.95867690  0.57279490  1
  C  1293  1  0.39113200  0.95494790  0.57664690  1
  C  1294  1  0.37455500  0.95552490  0.56049890  1
  C  1295  1  0.38108900  0.96015590  0.54237590  1
  C  1296  1  0.38408900  0.94547390  0.59319590  1
  C  1297  1  0.38469500  0.91871090  0.57502690  1
  C  1298  1  0.36478800  0.90691890  0.56056190  1
  C  1299  1  0.36570300  0.88347500  0.54161700  1
  C  1300  1  0.38699100  0.87054600  0.53531000  1
  C  1301  1  0.40728100  0.88202700  0.54880900  1
  C  1302  1  0.40610600  0.90555990  0.56803490  1
  C  1303  1  0.39983500  0.95362190  0.61515190  1
  C  1304  1  0.35973000  0.95399390  0.60465290  1
  C  1305  1  0.34530900  0.94000990  0.61080390  1
  C  1306  1  0.32119800  0.94509590  0.61623590  1
  C  1307  1  0.31070700  0.96532190  0.61727190  1
  C  1308  1  0.32591700  0.98130390  0.61498790  1
  C  1309  1  0.34993800  0.97601190  0.60939190  1
  C  1310  1  0.40783800  0.97746590  0.62896290  1
  C  1311  1  0.42013700  0.98581090  0.65064790  1
  C  1312  1  0.42448300  0.97091390  0.66029290  1
  C  1313  1  0.41606600  0.94729790  0.64696390  1
  C  1314  1  0.40395400  0.93904590  0.62528990  1
  C  1331  1  0.28634700  0.96926290  0.61904890  1
  C  1332  1  0.41180600  0.96762090  0.52039690  1
  C  1335  1  0.38691400  0.84763700  0.51589000  1
  C  1337  1  0.43494400  0.97870290  0.68263990  1
  C  1339  1  0.04133400  0.71623400  0.29031900  1
  C  1340  1  0.02423000  0.70117700  0.29172800  1
  C  1341  1  0.03071800  0.68302700  0.29646700  1
  C  1342  1  0.05461800  0.67838300  0.29930900  1
  C  1343  1  0.07151400  0.69370900  0.29770400  1
  C  1344  1  0.06519200  0.71191700  0.29310100  1
  C  1345  1  0.06138200  0.66210200  0.30917300  1
  C  1346  1  0.06091400  0.68061300  0.33584300  1
  C  1347  1  0.08083500  0.69525300  0.34720800  1
  C  1348  1  0.08018800  0.71427000  0.37062700  1
  C  1349  1  0.05913800  0.72050900  0.38394500  1
  C  1350  1  0.03878100  0.70693600  0.37281700  1
  C  1351  1  0.03969200  0.68764400  0.34930500  1
  C  1352  1  0.04525700  0.64042900  0.30123300  1
  C  1353  1  0.08557100  0.65021900  0.30083900  1
  C  1354  1  0.09984400  0.64451700  0.31527000  1
  C  1355  1  0.12348600  0.63725400  0.30947900  1
  C  1356  1  0.13343800  0.63381600  0.28810100  1
  C  1357  1  0.11849800  0.63627400  0.27209800  1
  C  1358  1  0.09501700  0.64397000  0.27823900  1
  C  1359  1  0.03686800  0.62676300  0.27751200  1
  C  1360  1  0.02310800  0.60600400  0.26971500  1
  C  1361  1  0.01739700  0.59729100  0.28513200  1
  C  1362  1  0.02667800  0.61009900  0.30844400  1
  C  1363  1  0.04050400  0.63069500  0.31605700  1
  C  1380  1  0.15695600  0.62765300  0.28240300  1
  C  1381  1  0.03464400  0.73486000  0.28677400  1
  C  1384  1  0.05950400  0.73987900  0.40689500  1
  C  1386  1  0.00275700  0.57752600  0.27880600  1
  C  1388  1  0.04132400  0.96518190  0.38290890  1
  C  1389  1  0.02422900  0.96381590  0.36645390  1
  C  1390  1  0.03072000  0.95908290  0.34356690  1
  C  1391  1  0.05461800  0.95618490  0.33606590  1
  C  1392  1  0.07150200  0.95771890  0.35297490  1
  C  1393  1  0.06517800  0.96233990  0.37579290  1
  C  1394  1  0.06138600  0.94632690  0.30992290  1
  C  1395  1  0.06093800  0.91965790  0.30177290  1
  C  1396  1  0.08088100  0.90826390  0.30496390  1
  C  1397  1  0.08022400  0.88484800  0.30057100  1
  C  1398  1  0.05915900  0.87155200  0.29354200  1
  C  1399  1  0.03879200  0.88270300  0.29115100  1
  C  1400  1  0.03970300  0.90621690  0.29537690  1
  C  1401  1  0.04526500  0.95425690  0.29617490  1
  C  1402  1  0.08557100  0.95467590  0.30638690  1
  C  1403  1  0.09983300  0.94026790  0.28623490  1
  C  1404  1  0.12346900  0.94606890  0.28475090  1
  C  1405  1  0.13343800  0.96741590  0.30271990  1
  C  1406  1  0.11851400  0.98340490  0.32120690  1
  C  1407  1  0.09504000  0.97725190  0.32277290  1
  C  1408  1  0.03691200  0.97799090  0.30622790  1
  C  1409  1  0.02314500  0.98578990  0.29327190  1
  C  1410  1  0.01738500  0.97036190  0.26915690  1
  C  1411  1  0.02662000  0.94703490  0.25866290  1
  C  1412  1  0.04045300  0.93941390  0.27163690  1
  C  1429  1  0.15695700  0.97310690  0.30225990  1
  C  1430  1  0.03462600  0.96872890  0.40507790  1
  C  1433  1  0.05952400  0.84860500  0.28997100  1
  C  1435  1  0.00273700  0.97669290  0.25572790  1
  C  1437  1  0.04132900  0.87260000  0.53926667  1
  C  1438  1  0.02423800  0.88904300  0.55437800  1
  C  1439  1  0.03072900  0.91193890  0.57251590  1
  C  1440  1  0.05462700  0.91943890  0.57711890  1
  C  1441  1  0.07151200  0.90252690  0.56174790  1
  C  1442  1  0.06518300  0.87972000  0.54353400  1
  C  1443  1  0.06139500  0.94558290  0.59339890  1
  C  1444  1  0.06094500  0.95373090  0.57487890  1
  C  1445  1  0.08088600  0.95053890  0.56029290  1
  C  1446  1  0.08022700  0.95493190  0.54126990  1
  C  1447  1  0.05916100  0.96196390  0.53500490  1
  C  1448  1  0.03879700  0.96436090  0.54855290  1
  C  1449  1  0.03970800  0.96012290  0.56783190  1
  C  1450  1  0.04527600  0.95933290  0.61507790  1
  C  1451  1  0.08558200  0.94911890  0.60528190  1
  C  1452  1  0.09984400  0.96926990  0.61102290  1
  C  1453  1  0.12347900  0.97075590  0.61830590  1
  C  1454  1  0.13344900  0.95279090  0.62169290  1
  C  1455  1  0.11852600  0.93430590  0.61919690  1
  C  1456  1  0.09505300  0.93273290  0.61147290  1
  C  1457  1  0.03692000  0.94928190  0.62875790  1
  C  1458  1  0.02315900  0.96224290  0.64951890  1
  C  1459  1  0.01738900  0.98635490  0.65819490  1
  C  1460  1  0.02662900  0.99684687  0.64535987  1
  C  1461  1  0.04046400  0.98386990  0.62476790  1
  C  1478  1  0.15696800  0.95325890  0.62785090  1
  C  1479  1  0.03463000  0.85043600  0.52064300  1
  C  1482  1  0.05952400  0.96553090  0.51562690  1
  C  1484  1  0.00275900  0.99979387  0.67796687  1
  C  1486  1  0.54131400  0.31973000  0.18462500  1
  C  1487  1  0.52422000  0.33481600  0.18325800  1
  C  1488  1  0.53071900  0.35298200  0.17854400  1
  C  1489  1  0.55461800  0.35763400  0.17570100  1
  C  1490  1  0.57149500  0.34226400  0.17726000  1
  C  1491  1  0.56516900  0.32403800  0.18183500  1
  C  1492  1  0.56138500  0.37389600  0.16582000  1
  C  1493  1  0.56092800  0.35538200  0.13915300  1
  C  1494  1  0.58083900  0.34073500  0.12776400  1
  C  1495  1  0.58017800  0.32171600  0.10434500  1
  C  1496  1  0.55912200  0.31549500  0.09103800  1
  C  1497  1  0.53877300  0.32907100  0.10218400  1
  C  1498  1  0.53969400  0.34834300  0.12570500  1
  C  1499  1  0.54525700  0.39556600  0.17374400  1
  C  1500  1  0.58557500  0.38577300  0.17415400  1
  C  1501  1  0.59985500  0.39146300  0.15971900  1
  C  1502  1  0.62348700  0.39876200  0.16552300  1
  C  1503  1  0.63344200  0.40219200  0.18689600  1
  C  1504  1  0.61851100  0.39970800  0.20288900  1
  C  1505  1  0.59503400  0.39199900  0.19674300  1
  C  1506  1  0.53689400  0.40925100  0.19747400  1
  C  1507  1  0.52314200  0.43001800  0.20527500  1
  C  1508  1  0.51740800  0.43871700  0.18985100  1
  C  1509  1  0.52667800  0.42589800  0.16653500  1
  C  1510  1  0.54050100  0.40529900  0.15892100  1
  C  1527  1  0.65695600  0.40836000  0.19259600  1
  C  1528  1  0.53461300  0.30108400  0.18813500  1
  C  1531  1  0.55948000  0.29616700  0.06806200  1
  C  1533  1  0.50278400  0.45849200  0.19618200  1
  C  1535  1  0.54132200  0.07084400  0.09208690  1
  C  1536  1  0.52422600  0.07221700  0.10854290  1
  C  1537  1  0.53072200  0.07693900  0.13142590  1
  C  1538  1  0.55462000  0.07978900  0.13892590  1
  C  1539  1  0.57149700  0.07824200  0.12200190  1
  C  1540  1  0.56517800  0.07363200  0.09918790  1
  C  1541  1  0.56138300  0.08967200  0.16506990  1
  C  1542  1  0.56092500  0.11633700  0.17322190  1
  C  1543  1  0.58083500  0.12773000  0.16996890  1
  C  1544  1  0.58017100  0.15114900  0.17437090  1
  C  1545  1  0.55911300  0.16445500  0.18145790  1
  C  1546  1  0.53876400  0.15330300  0.18387590  1
  C  1547  1  0.53968900  0.12978300  0.17962790  1
  C  1548  1  0.54525500  0.08174700  0.17881490  1
  C  1549  1  0.58557300  0.08134000  0.16861590  1
  C  1550  1  0.59985100  0.09577500  0.18874290  1
  C  1551  1  0.62348000  0.08996900  0.19024500  1
  C  1552  1  0.63344000  0.06860100  0.17229800  1
  C  1553  1  0.61851100  0.05260300  0.15382500  1
  C  1554  1  0.59503500  0.05875200  0.15225390  1
  C  1555  1  0.53689300  0.05801600  0.16877100  1
  C  1556  1  0.52314200  0.05021400  0.18173600  1
  C  1557  1  0.51740800  0.06564000  0.20585900  1
  C  1558  1  0.52667500  0.08895600  0.21635700  1
  C  1559  1  0.54049800  0.09657000  0.20337100  1
  C  1576  1  0.65695600  0.06290600  0.17277300  1
  C  1577  1  0.53462700  0.06731400  0.06992287  1
  C  1580  1  0.55946900  0.18742900  0.18509900  1
  C  1582  1  0.50278700  0.05930900  0.21930600  1
  C  1584  1  0.54134900  0.16341600  0.93574600  1
  C  1585  1  0.52424300  0.14692200  0.92073400  1
  C  1586  1  0.53074100  0.12403800  0.90257400  1
  C  1587  1  0.55465200  0.11658600  0.89786800  1
  C  1588  1  0.57154100  0.13355100  0.91315300  1
  C  1589  1  0.56521500  0.15635800  0.93136700  1
  C  1590  1  0.56138800  0.09043400  0.88160200  1
  C  1591  1  0.56090500  0.08229400  0.90012500  1
  C  1592  1  0.58079800  0.08565300  0.91482700  1
  C  1593  1  0.58014100  0.08126200  0.93385200  1
  C  1594  1  0.55911500  0.07406300  0.94000500  1
  C  1595  1  0.53878300  0.07153400  0.92637100  1
  C  1596  1  0.53969800  0.07577500  0.90709300  1
  C  1597  1  0.54526400  0.07670300  0.85992700  1
  C  1598  1  0.58558200  0.08686200  0.86972400  1
  C  1599  1  0.59988800  0.06677600  0.86412500  1
  C  1600  1  0.62351500  0.06527300  0.85681200  1
  C  1601  1  0.63344500  0.08316700  0.85328900  1
  C  1602  1  0.61848100  0.10158100  0.85566400  1
  C  1603  1  0.59500200  0.10314700  0.86337300  1
  C  1604  1  0.53681700  0.08678000  0.84629900  1
  C  1605  1  0.52306100  0.07381600  0.82553700  1
  C  1606  1  0.51741200  0.04966500  0.81678400  1
  C  1607  1  0.52674900  0.03914500  0.82955300  1
  C  1608  1  0.54057700  0.05213000  0.85015100  1
  C  1625  1  0.65695800  0.08267900  0.84709600  1
  C  1626  1  0.53465700  0.18557700  0.95438500  1
  C  1629  1  0.55948500  0.07042600  0.95933700  1
  C  1631  1  0.50276600  0.03622500  0.79702600  1
  C  1633  1  0.90272500  0.07685100  0.03848700  1
  C  1634  1  0.88769200  0.09244100  0.03539100  1
  C  1635  1  0.88715200  0.09227000  0.01346400  1
  C  1636  1  0.90174400  0.07664400  0.99435800  1
  C  1637  1  0.91689300  0.06129900  0.99773500  1
  C  1638  1  0.91751800  0.06155400  0.01953100  1
  C  1640  1  0.85807700  0.12323300  0.02946600  1
  C  1641  1  0.85868600  0.12317000  0.05106700  1
  C  1646  1  0.84270300  0.13959100  0.02614900  1
  C  1652  1  0.90274200  0.26012700  0.17862900  1
  C  1653  1  0.88770400  0.24144500  0.16304500  1
  C  1654  1  0.88715900  0.21969100  0.16322200  1
  C  1655  1  0.90174200  0.21621700  0.17885800  1
  C  1656  1  0.91689800  0.23493500  0.19419500  1
  C  1657  1  0.91752500  0.25647400  0.19393700  1
  C  1659  1  0.85808600  0.20473000  0.13225800  1
  C  1660  1  0.85870000  0.22639100  0.13231600  1
  C  1665  1  0.84270900  0.18505500  0.11590500  1
  C  1671  1  0.90273100  0.21697900  0.99536600  1
  C  1672  1  0.88768900  0.22007500  0.01404500  1
  C  1673  1  0.88714500  0.24200200  0.03580200  1
  C  1674  1  0.90173700  0.26111100  0.03928700  1
  C  1675  1  0.91689200  0.25773400  0.02056900  1
  C  1676  1  0.91752000  0.23593900  0.99902700  1
  C  1678  1  0.85805900  0.22600000  0.05075100  1
  C  1679  1  0.85867100  0.20440000  0.02908600  1
  C  1684  1  0.84267600  0.22931800  0.07042200  1
  C  1690  1  0.40273500  0.95914290  0.43650890  1
  C  1691  1  0.38769800  0.94355390  0.43960290  1
  C  1692  1  0.38714800  0.94372990  0.46153290  1
  C  1693  1  0.40172700  0.95936790  0.48064690  1
  C  1694  1  0.41688400  0.97470690  0.47726890  1
  C  1695  1  0.41751800  0.97444590  0.45547090  1
  C  1697  1  0.35808000  0.91276190  0.44552390  1
  C  1698  1  0.35869700  0.91281890  0.42391890  1
  C  1703  1  0.34270500  0.89640300  0.44883900  1
  C  1709  1  0.40272400  0.77586800  0.29635200  1
  C  1710  1  0.38768400  0.79454700  0.31194000  1
  C  1711  1  0.38712700  0.81630000  0.31176200  1
  C  1712  1  0.40170600  0.81978100  0.29612700  1
  C  1713  1  0.41686300  0.80106300  0.28078400  1
  C  1714  1  0.41750100  0.77952500  0.28104500  1
  C  1716  1  0.35805900  0.83125400  0.34272900  1
  C  1717  1  0.35868100  0.80959200  0.34267100  1
  C  1722  1  0.34267900  0.85092500  0.35908400  1
  C  1728  1  0.40270100  0.81898400  0.47963000  1
  C  1729  1  0.38767500  0.81589200  0.46094100  1
  C  1730  1  0.38713100  0.79396400  0.43918500  1
  C  1731  1  0.40171300  0.77485100  0.43570800  1
  C  1732  1  0.41685400  0.77822500  0.45443500  1
  C  1733  1  0.41747200  0.80001700  0.47598000  1
  C  1735  1  0.35807100  0.80997500  0.42422100  1
  C  1736  1  0.35868500  0.83157700  0.44588300  1
  C  1741  1  0.34270300  0.80666100  0.40454200  1
  C  1747  1  0.04354700  0.77566300  0.43634700  1
  C  1748  1  0.05843300  0.79448700  0.43954900  1
  C  1749  1  0.05905100  0.81610700  0.46161000  1
  C  1750  1  0.04469600  0.81931300  0.48076800  1
  C  1751  1  0.02967500  0.80046300  0.47727900  1
  C  1752  1  0.02896000  0.77906900  0.45534800  1
  C  1754  1  0.08774900  0.83146400  0.44565100  1
  C  1755  1  0.08708100  0.80993000  0.42392700  1
  C  1760  1  0.10296200  0.85126800  0.44904800  1
  C  1766  1  0.04356500  0.81915500  0.29630500  1
  C  1767  1  0.05844700  0.81595200  0.31193000  1
  C  1768  1  0.05906900  0.79388900  0.31148300  1
  C  1769  1  0.04471700  0.77473100  0.29553100  1
  C  1770  1  0.02970300  0.77821800  0.28016100  1
  C  1771  1  0.02898800  0.80015000  0.28069900  1
  C  1773  1  0.08776000  0.80985000  0.34280500  1
  C  1774  1  0.08709000  0.83157400  0.34299800  1
  C  1779  1  0.10297300  0.80645400  0.35921400  1
  C  1785  1  0.04355300  0.95920490  0.47984890  1
  C  1786  1  0.05843500  0.94357890  0.46101990  1
  C  1787  1  0.05905000  0.94401890  0.43940090  1
  C  1788  1  0.04469100  0.95996790  0.43619390  1
  C  1789  1  0.02968000  0.97533990  0.45505190  1
  C  1790  1  0.02897000  0.97480390  0.47644790  1
  C  1792  1  0.08774600  0.91270190  0.42403890  1
  C  1793  1  0.08708100  0.91251190  0.44557290  1
  C  1798  1  0.10295500  0.89629300  0.40423400  1
  C  1804  1  0.54355800  0.26033200  0.03867700  1
  C  1805  1  0.55845300  0.24151300  0.03547300  1
  C  1806  1  0.55908700  0.21990000  0.01340700  1
  C  1807  1  0.54474100  0.21669300  0.99424500  1
  C  1808  1  0.52971200  0.23554100  0.99773400  1
  C  1809  1  0.52898800  0.25693200  0.01966700  1
  C  1811  1  0.58778800  0.20455100  0.02937000  1
  C  1812  1  0.58710600  0.22608000  0.05109700  1
  C  1817  1  0.60301200  0.18475400  0.02597300  1
  C  1823  1  0.54354200  0.21680700  0.17864000  1
  C  1824  1  0.55844200  0.22001000  0.16302700  1
  C  1825  1  0.55906400  0.24206900  0.16346500  1
  C  1826  1  0.54469800  0.26122400  0.17940100  1
  C  1827  1  0.52967200  0.25773800  0.19476300  1
  C  1828  1  0.52895700  0.23580900  0.19423200  1
  C  1830  1  0.58778700  0.22611400  0.13217400  1
  C  1831  1  0.58711700  0.20439200  0.13198900  1
  C  1836  1  0.60301700  0.22951000  0.11577700  1
  C  1842  1  0.54355000  0.07682900  0.99515200  1
  C  1843  1  0.55844000  0.09244600  0.01397300  1
  C  1844  1  0.55906400  0.09200300  0.03559100  1
  C  1845  1  0.54470700  0.07605500  0.03880100  1
  C  1846  1  0.52968100  0.06069800  0.01995400  1
  C  1847  1  0.52896000  0.06123600  0.99856000  1
  C  1849  1  0.58777100  0.12331000  0.05093900  1
  C  1850  1  0.58709900  0.12350000  0.02940500  1
  C  1855  1  0.60299100  0.13971400  0.07073900  1
  C  1861  1  0.69717000  0.07620600  0.17568590  1
  C  1862  1  0.71049100  0.09240500  0.17188790  1
  C  1863  1  0.73556600  0.09159000  0.17152590  1
  C  1864  1  0.74772800  0.07479100  0.17529600  1
  C  1865  1  0.73441700  0.05850600  0.17880200  1
  C  1866  1  0.70958200  0.05934800  0.17923100  1
  C  1868  1  0.73674000  0.12354900  0.16321390  1
  C  1869  1  0.71191800  0.12438500  0.16373790  1
  C  1874  1  0.75094000  0.13970100  0.15848590  1
  C  1880  1  0.69717200  0.39797900  0.17930000  1
  C  1881  1  0.71049600  0.37798300  0.16310200  1
  C  1882  1  0.73557000  0.37843200  0.16392500  1
  C  1883  1  0.74772800  0.39899700  0.18073400  1
  C  1884  1  0.73441900  0.41879300  0.19700800  1
  C  1885  1  0.70958200  0.41838300  0.19616000  1
  C  1887  1  0.73674500  0.33816600  0.13195900  1
  C  1888  1  0.71192400  0.33785500  0.13111600  1
  C  1893  1  0.75094500  0.31728700  0.11580800  1
  C  1899  1  0.69717000  0.07980900  0.85750700  1
  C  1900  1  0.71048900  0.08362600  0.87751100  1
  C  1901  1  0.73556500  0.08401100  0.87706800  1
  C  1902  1  0.74772400  0.08025400  0.85650300  1
  C  1903  1  0.73441700  0.07671300  0.83669800  1
  C  1904  1  0.70958200  0.07626300  0.83710300  1
  C  1906  1  0.73673300  0.09231700  0.91733600  1
  C  1907  1  0.71191100  0.09176700  0.91763700  1
  C  1912  1  0.75093100  0.09705600  0.93822000  1
  C  1918  1  0.19716600  0.95978990  0.29931590  1
  C  1919  1  0.21049100  0.94358990  0.30310990  1
  C  1920  1  0.23556600  0.94440690  0.30347290  1
  C  1921  1  0.24772400  0.96120790  0.29970390  1
  C  1922  1  0.23441200  0.97749390  0.29620190  1
  C  1923  1  0.20957600  0.97665290  0.29577590  1
  C  1925  1  0.23674300  0.91244390  0.31177790  1
  C  1926  1  0.21192200  0.91160690  0.31125490  1
  C  1931  1  0.25094500  0.89629400  0.31650500  1
  C  1937  1  0.19716600  0.63803200  0.29570600  1
  C  1938  1  0.21049300  0.65802800  0.31190200  1
  C  1939  1  0.23556600  0.65757800  0.31107800  1
  C  1940  1  0.24772200  0.63701000  0.29426400  1
  C  1941  1  0.23441200  0.61721600  0.27799500  1
  C  1942  1  0.20957500  0.61762800  0.27884500  1
  C  1944  1  0.23674500  0.69784400  0.34304100  1
  C  1945  1  0.21192300  0.69815500  0.34388700  1
  C  1950  1  0.25094700  0.71872300  0.35919000  1
  C  1956  1  0.19717700  0.95617390  0.61746190  1
  C  1957  1  0.21050000  0.95237090  0.59746290  1
  C  1958  1  0.23557300  0.95199690  0.59791190  1
  C  1959  1  0.24773300  0.95575190  0.61847690  1
  C  1960  1  0.23442400  0.95928390  0.63827590  1
  C  1961  1  0.20958900  0.95972190  0.63786690  1
  C  1963  1  0.23674700  0.94369490  0.55764390  1
  C  1964  1  0.21192500  0.94423190  0.55733690  1
  C  1969  1  0.25094500  0.93896490  0.53676390  1
  C  1975  1  0.96047700  0.02843500  0.22515600  1
  C  1976  1  0.97083800  0.00562800  0.21150800  1
  C  1977  1  0.98367500  0.99478787  0.22250987  1
  C  1978  1  0.98661300  0.00634500  0.24751700  1
  C  1979  1  0.97688200  0.02934400  0.26081100  1
  C  1980  1  0.96416200  0.04006800  0.24994700  1
  C  1982  1  0.99192400  0.96126790  0.18409290  1
  C  1983  1  0.97930600  0.97207090  0.17340390  1
  C  1988  1  0.00310700  0.93783790  0.16999790  1
  C  1994  1  0.96046800  0.49522600  0.22706500  1
  C  1995  1  0.97083300  0.50438100  0.24987000  1
  C  1996  1  0.98367100  0.52622200  0.26071400  1
  C  1997  1  0.98661600  0.53966900  0.24915300  1
  C  1998  1  0.97687700  0.52997200  0.22615900  1
  C  1999  1  0.96415300  0.50838800  0.21543500  1
  C  2001  1  0.99192200  0.52131600  0.29422700  1
  C  2002  1  0.97929300  0.49982900  0.28342500  1
  C  2007  1  0.00311300  0.53064200  0.31765300  1
  C  2013  1  0.96043400  0.03033400  0.76024000  1
  C  2014  1  0.97081800  0.04398900  0.75110200  1
  C  2015  1  0.98367600  0.03299800  0.72927200  1
  C  2016  1  0.98663900  0.00799100  0.71583100  1
  C  2017  1  0.97688500  0.99468987  0.72551687  1
  C  2018  1  0.96415000  0.00554700  0.74709400  1
  C  2020  1  0.99192000  0.07142000  0.73418400  1
  C  2021  1  0.97928100  0.08210000  0.75566400  1
  C  2026  1  0.00311300  0.08552500  0.72486400  1
  C  2032  1  0.46049900  0.00755700  0.24985100  1
  C  2033  1  0.47086000  0.03036400  0.26350300  1
  C  2034  1  0.48371000  0.04120300  0.25250800  1
  C  2035  1  0.48667500  0.02963300  0.22750100  1
  C  2036  1  0.47690500  0.00665500  0.21420100  1
  C  2037  1  0.46417800  0.99593087  0.22505887  1
  C  2039  1  0.49193800  0.07472500  0.29092800  1
  C  2040  1  0.47930800  0.06392300  0.30161000  1
  C  2045  1  0.50311800  0.09815700  0.30503100  1
  C  2051  1  0.46045700  0.54076700  0.24792600  1
  C  2052  1  0.47083500  0.53162600  0.22512800  1
  C  2053  1  0.48368900  0.50979500  0.21428700  1
  C  2054  1  0.48665800  0.49635600  0.22585300  1
  C  2055  1  0.47691200  0.50604200  0.24884300  1
  C  2056  1  0.46418000  0.52762100  0.25956700  1
  C  2058  1  0.49191400  0.51470400  0.18077000  1
  C  2059  1  0.47927300  0.53618300  0.19157300  1
  C  2064  1  0.50309600  0.50538300  0.15734200  1
  C  2070  1  0.46042700  0.00567600  0.71475200  1
  C  2071  1  0.47081500  0.99202387  0.72389187  1
  C  2072  1  0.48366600  0.00302200  0.74572700  1
  C  2073  1  0.48660700  0.02802900  0.75917900  1
  C  2074  1  0.47687700  0.04132300  0.74947500  1
  C  2075  1  0.46414600  0.03046300  0.72789300  1
  C  2077  1  0.49192600  0.96459990  0.74081190  1
  C  2078  1  0.47929600  0.95391490  0.71932690  1
  C  2083  1  0.50312400  0.95049890  0.75013390  1
  N  595  1  0.87234000  0.61456400  0.28808400  1
  N  598  1  0.87337600  0.61474400  0.32963900  1
  N  606  1  0.90335800  0.58376700  0.33550400  1
  N  607  1  0.89989500  0.58363600  0.25042900  1
  N  614  1  0.87234500  0.70920500  0.42419200  1
  N  617  1  0.87339200  0.75057400  0.42399800  1
  N  625  1  0.90337400  0.78741200  0.45497100  1
  N  626  1  0.89990100  0.70247800  0.45511900  1
  N  633  1  0.87232500  0.75064300  0.32954300  1
  N  636  1  0.87336800  0.70908700  0.28816600  1
  N  644  1  0.90336400  0.70322600  0.25133800  1
  N  645  1  0.89988700  0.78830000  0.33628100  1
  N  652  1  0.37233500  0.43506600  0.73979900  1
  N  655  1  0.37338900  0.43487700  0.69823900  1
  N  663  1  0.40337100  0.46585600  0.69238100  1
  N  664  1  0.39987500  0.46600400  0.77746200  1
  N  671  1  0.37231200  0.34041300  0.60368200  1
  N  674  1  0.37337600  0.29904300  0.60387400  1
  N  682  1  0.40336900  0.26221300  0.57289900  1
  N  683  1  0.39984200  0.34713900  0.57273400  1
  N  690  1  0.37232400  0.29895800  0.69832500  1
  N  693  1  0.37336900  0.34051600  0.73969800  1
  N  701  1  0.40333200  0.34636700  0.77655200  1
  N  702  1  0.39986100  0.26129300  0.69160200  1
  N  709  1  0.07370200  0.34036600  0.73995800  1
  N  712  1  0.07253200  0.29925100  0.69815900  1
  N  720  1  0.04279000  0.26211200  0.69210200  1
  N  721  1  0.04657600  0.34658500  0.77769700  1
  N  728  1  0.07371800  0.29880000  0.60346900  1
  N  731  1  0.07254300  0.34060300  0.60416000  1
  N  739  1  0.04280900  0.34666000  0.57307500  1
  N  740  1  0.04661000  0.26105300  0.57192700  1
  N  747  1  0.07369700  0.43529500  0.69840000  1
  N  750  1  0.07253600  0.43461100  0.73951400  1
  N  758  1  0.04280400  0.46569600  0.77665900  1
  N  759  1  0.04657500  0.46682000  0.69218700  1
  N  766  1  0.57374700  0.70927700  0.28794700  1
  N  769  1  0.57255000  0.75038400  0.32975400  1
  N  777  1  0.54280400  0.78751300  0.33580600  1
  N  778  1  0.54664000  0.70306600  0.25019200  1
  N  785  1  0.57372900  0.75079000  0.42438100  1
  N  788  1  0.57255600  0.70899400  0.42370400  1
  N  796  1  0.54279200  0.70293800  0.45476900  1
  N  797  1  0.54658700  0.78852900  0.45588600  1
  N  804  1  0.57372200  0.61435300  0.32947500  1
  N  807  1  0.57254500  0.61503900  0.28836000  1
  N  815  1  0.54279400  0.58396500  0.25123000  1
  N  816  1  0.54660100  0.58282300  0.33569100  1
  N  823  1  0.74743000  0.61396600  0.44358000  1
  N  826  1  0.69985700  0.61569000  0.44439600  1
  N  834  1  0.67360300  0.58438900  0.45211300  1
  N  835  1  0.77118400  0.57984900  0.45042100  1
  N  842  1  0.74743500  0.86529700  0.42480900  1
  N  845  1  0.69986300  0.86439400  0.42307000  1
  N  853  1  0.67360700  0.90340500  0.45437600  1
  N  854  1  0.77118400  0.90624500  0.45893100  1
  N  861  1  0.74742600  0.59522400  0.17346600  1
  N  864  1  0.69985400  0.59436100  0.17435400  1
  N  872  1  0.67360300  0.58659600  0.13531300  1
  N  873  1  0.77118000  0.58837700  0.13250300  1
  N  880  1  0.24743100  0.43566000  0.58430300  1
  N  883  1  0.19985900  0.43393300  0.58348800  1
  N  891  1  0.17360000  0.46524300  0.57578700  1
  N  892  1  0.27117800  0.46979200  0.57747600  1
  N  899  1  0.24743300  0.18434200  0.60308000  1
  N  902  1  0.19986100  0.18524700  0.60482400  1
  N  910  1  0.17360100  0.14622900  0.57352300  1
  N  911  1  0.27117800  0.14338500  0.56895200  1
  N  918  1  0.24743700  0.45442000  0.85440400  1
  N  921  1  0.19986400  0.45526000  0.85350600  1
  N  929  1  0.17361000  0.46298000  0.89252700  1
  N  930  1  0.27118900  0.46126800  0.89536900  1
  N  937  1  0.99360000  0.48005100  0.48455700  1
  N  940  1  0.96949500  0.50047500  0.46386700  1
  N  948  1  0.94894600  0.54725900  0.49259900  1
  N  949  1  0.99950600  0.50470900  0.53568700  1
  N  956  1  0.99360100  0.04018500  0.55870600  1
  N  959  1  0.96948500  0.99907600  0.53828000  1
  N  967  1  0.94893400  0.98103300  0.49150100  1
  N  968  1  0.99950400  0.06666500  0.53405000  1
  N  975  1  0.99360900  0.55421700  0.99857700  1
  N  978  1  0.96946200  0.57488900  0.03966400  1
  N  986  1  0.94892100  0.54614300  0.05770000  1
  N  987  1  0.99951700  0.50308100  0.97208700  1
  N  994  1  0.49363200  0.56956900  0.54335500  1
  N  997  1  0.46950100  0.54914900  0.56403200  1
  N  1005  1  0.44895400  0.50236700  0.53529000  1
  N  1006  1  0.49953800  0.54491900  0.49221900  1
  N  1013  1  0.49361100  0.00946800  0.46918200  1
  N  1016  1  0.46946600  0.05055700  0.48960400  1
  N  1024  1  0.44894900  0.06860000  0.53639300  1
  N  1025  1  0.49953100  0.98297900  0.49383000  1
  N  1032  1  0.49360400  0.49543500  0.02931200  1
  N  1035  1  0.46947100  0.47475400  0.98821400  1
  N  1043  1  0.44892100  0.50349400  0.97017500  1
  N  1044  1  0.49950300  0.54656900  0.05579600  1
  N  1639  1  0.87234000  0.10774900  0.01164000  1
  N  1642  1  0.87337600  0.10792900  0.05319500  1
  N  1650  1  0.90335800  0.07695200  0.05906000  1
  N  1651  1  0.89989500  0.07682100  0.97398500  1
  N  1658  1  0.87234500  0.20239000  0.14774800  1
  N  1661  1  0.87339200  0.24375900  0.14755400  1
  N  1669  1  0.90337400  0.28059700  0.17852700  1
  N  1670  1  0.89990100  0.19566300  0.17867500  1
  N  1677  1  0.87232500  0.24382800  0.05309900  1
  N  1680  1  0.87336800  0.20227200  0.01172200  1
  N  1688  1  0.90336400  0.19641100  0.97489400  1
  N  1689  1  0.89988700  0.28148500  0.05983700  1
  N  1696  1  0.37233500  0.92825090  0.46335490  1
  N  1699  1  0.37338900  0.92806190  0.42179490  1
  N  1707  1  0.40337100  0.95904090  0.41593690  1
  N  1708  1  0.39987500  0.95918890  0.50101790  1
  N  1715  1  0.37231200  0.83359800  0.32723800  1
  N  1718  1  0.37337600  0.79222800  0.32743000  1
  N  1726  1  0.40336900  0.75539800  0.29645500  1
  N  1727  1  0.39984200  0.84032400  0.29629000  1
  N  1734  1  0.37232400  0.79214300  0.42188100  1
  N  1737  1  0.37336900  0.83370100  0.46325400  1
  N  1745  1  0.40333200  0.83955200  0.50010800  1
  N  1746  1  0.39986100  0.75447800  0.41515800  1
  N  1753  1  0.07370200  0.83355100  0.46351400  1
  N  1756  1  0.07253200  0.79243600  0.42171500  1
  N  1764  1  0.04279000  0.75529700  0.41565800  1
  N  1765  1  0.04657600  0.83977000  0.50125300  1
  N  1772  1  0.07371800  0.79198500  0.32702500  1
  N  1775  1  0.07254300  0.83378800  0.32771600  1
  N  1783  1  0.04280900  0.83984500  0.29663100  1
  N  1784  1  0.04661000  0.75423800  0.29548300  1
  N  1791  1  0.07369700  0.92847990  0.42195590  1
  N  1794  1  0.07253600  0.92779590  0.46306990  1
  N  1802  1  0.04280400  0.95888090  0.50021490  1
  N  1803  1  0.04657500  0.96000490  0.41574290  1
  N  1810  1  0.57374700  0.20246200  0.01150300  1
  N  1813  1  0.57255000  0.24356900  0.05331000  1
  N  1821  1  0.54280400  0.28069800  0.05936200  1
  N  1822  1  0.54664000  0.19625100  0.97374800  1
  N  1829  1  0.57372900  0.24397500  0.14793700  1
  N  1832  1  0.57255600  0.20217900  0.14726000  1
  N  1840  1  0.54279200  0.19612300  0.17832500  1
  N  1841  1  0.54658700  0.28171400  0.17944200  1
  N  1848  1  0.57372200  0.10753800  0.05303100  1
  N  1851  1  0.57254500  0.10822400  0.01191600  1
  N  1859  1  0.54279400  0.07715000  0.97478600  1
  N  1860  1  0.54660100  0.07600800  0.05924700  1
  N  1867  1  0.74743000  0.10715100  0.16713590  1
  N  1870  1  0.69985700  0.10887500  0.16795190  1
  N  1878  1  0.67360300  0.07757400  0.17566890  1
  N  1879  1  0.77118400  0.07303400  0.17397700  1
  N  1886  1  0.74743500  0.35848200  0.14836500  1
  N  1889  1  0.69986300  0.35757900  0.14662600  1
  N  1897  1  0.67360700  0.39659000  0.17793200  1
  N  1898  1  0.77118400  0.39943000  0.18248700  1
  N  1905  1  0.74742600  0.08840900  0.89702200  1
  N  1908  1  0.69985400  0.08754600  0.89791000  1
  N  1916  1  0.67360300  0.07978100  0.85886900  1
  N  1917  1  0.77118000  0.08156200  0.85605900  1
  N  1924  1  0.24743100  0.92884490  0.30785890  1
  N  1927  1  0.19985900  0.92711790  0.30704390  1
  N  1935  1  0.17360000  0.95842790  0.29934290  1
  N  1936  1  0.27117800  0.96297690  0.30103190  1
  N  1943  1  0.24743300  0.67752700  0.32663600  1
  N  1946  1  0.19986100  0.67843200  0.32838000  1
  N  1954  1  0.17360100  0.63941400  0.29707900  1
  N  1955  1  0.27117800  0.63657000  0.29250800  1
  N  1962  1  0.24743700  0.94760490  0.57795990  1
  N  1965  1  0.19986400  0.94844490  0.57706190  1
  N  1973  1  0.17361000  0.95616490  0.61608290  1
  N  1974  1  0.27118900  0.95445290  0.61892490  1
  N  1981  1  0.99360000  0.97323590  0.20811290  1
  N  1984  1  0.96949500  0.99365987  0.18742287  1
  N  1992  1  0.94894600  0.04044400  0.21615500  1
  N  1993  1  0.99950600  0.99789387  0.25924287  1
  N  2000  1  0.99360100  0.53337000  0.28226200  1
  N  2003  1  0.96948500  0.49226100  0.26183600  1
  N  2011  1  0.94893400  0.47421800  0.21505700  1
  N  2012  1  0.99950400  0.55985000  0.25760600  1
  N  2019  1  0.99360900  0.04740200  0.72213300  1
  N  2022  1  0.96946200  0.06807400  0.76322000  1
  N  2030  1  0.94892100  0.03932800  0.78125600  1
  N  2031  1  0.99951700  0.99626587  0.69564287  1
  N  2038  1  0.49363200  0.06275400  0.26691100  1
  N  2041  1  0.46950100  0.04233400  0.28758800  1
  N  2049  1  0.44895400  0.99555187  0.25884587  1
  N  2050  1  0.49953800  0.03810400  0.21577500  1
  N  2057  1  0.49361100  0.50265300  0.19273800  1
  N  2060  1  0.46946600  0.54374200  0.21316000  1
  N  2068  1  0.44894900  0.56178500  0.25994900  1
  N  2069  1  0.49953100  0.47616400  0.21738600  1
  N  2076  1  0.49360400  0.98861990  0.75286790  1
  N  2079  1  0.46947100  0.96793890  0.71176990  1
  N  2087  1  0.44892100  0.99667887  0.69373087  1
  N  2088  1  0.49950300  0.03975400  0.77935200  1
