# generated using pymatgen
data_H9(C10N3)2
_symmetry_space_group_name_H-M   'P 1'
_cell_length_a   35.87930000
_cell_length_b   44.83850000
_cell_length_c   44.83850000
_cell_angle_alpha   60.00000000
_cell_angle_beta   89.99830000
_cell_angle_gamma   89.99660000
_symmetry_Int_Tables_number   1
_chemical_formula_structural   H9(C10N3)2
_chemical_formula_sum   'H324 C720 N216'
_cell_volume   62470.75337959
_cell_formula_units_Z   36
loop_
 _symmetry_equiv_pos_site_id
 _symmetry_equiv_pos_as_xyz
  1  'x, y, z'
loop_
 _atom_site_type_symbol
 _atom_site_label
 _atom_site_symmetry_multiplicity
 _atom_site_fract_x
 _atom_site_fract_y
 _atom_site_fract_z
 _atom_site_occupancy
  H  4  1  0.89571800  0.54428000  0.27246500  1
  H  6  1  0.97815500  0.62930000  0.18823000  1
  H  7  1  0.02482500  0.62851900  0.15225900  1
  H  9  1  0.92186900  0.62800500  0.21421700  1
  H  15  1  0.75329100  0.25898300  0.55962400  1
  H  16  1  0.69151000  0.15837200  0.64830500  1
  H  19  1  0.74465400  0.18963000  0.64298100  1
  H  20  1  0.70836900  0.29591400  0.48508100  1
  H  29  1  0.78154900  0.20454600  0.68658100  1
  H  31  1  0.77356900  0.30165700  0.59627300  1
  H  39  1  0.88819900  0.67088400  0.23042200  1
  H  41  1  0.87937400  0.57585600  0.32303900  1
  H  48  1  0.83181700  0.29479900  0.49270700  1
  H  55  1  0.93086300  0.42128500  0.37302100  1
  H  66  1  0.07809200  0.62315200  0.12639900  1
  H  67  1  0.89162100  0.47547000  0.26975500  1
  H  73  1  0.64483700  0.12162200  0.64910100  1
  H  74  1  0.58849500  0.09690500  0.64782000  1
  H  77  1  0.73612600  0.33360700  0.42994700  1
  H  80  1  0.83480100  0.45888000  0.31073800  1
  H  85  1  0.96105600  0.45812200  0.26258700  1
  H  91  1  0.67681900  0.25307900  0.47662900  1
  H  95  1  0.11488800  0.66680300  0.06781900  1
  H  97  1  0.55489400  0.03785200  0.69067400  1
  H  101  1  0.08665200  0.53986300  0.14032100  1
  H  102  1  0.01027300  0.45683100  0.22929200  1
  H  104  1  0.04174500  0.46529400  0.17798400  1
  H  113  1  0.42006900  0.12064400  0.27869100  1
  H  121  1  0.22909600  0.25271400  0.14213000  1
  H  123  1  0.29439800  0.24286100  0.23817300  1
  H  124  1  0.34364400  0.20959900  0.27274600  1
  H  125  1  0.31159200  0.16851500  0.14134700  1
  H  126  1  0.35828400  0.13256800  0.17809500  1
  H  131  1  0.41165500  0.10676700  0.20932500  1
  H  132  1  0.25520000  0.19447100  0.11669300  1
  H  133  1  0.22492100  0.25001000  0.21361300  1
  H  134  1  0.37512400  0.15829100  0.31559400  1
  H  137  1  0.56233500  0.12241200  0.56412400  1
  H  138  1  0.62757600  0.21850900  0.47794300  1
  H  140  1  0.55812700  0.19392900  0.49533700  1
  H  149  1  0.08666300  0.40644200  0.84544700  1
  H  157  1  0.89572700  0.40196400  0.71335100  1
  H  159  1  0.96102700  0.48814400  0.72320700  1
  H  160  1  0.01025400  0.48945100  0.75648700  1
  H  161  1  0.97819900  0.31697000  0.79757100  1
  H  162  1  0.02486400  0.31776700  0.83353700  1
  H  167  1  0.07815100  0.32316200  0.85936700  1
  H  168  1  0.92194400  0.31823200  0.77156400  1
  H  169  1  0.89158100  0.47076200  0.71605200  1
  H  170  1  0.04175100  0.48098500  0.80781500  1
  H  179  1  0.42004400  0.82566800  0.70709200  1
  H  187  1  0.22912900  0.69354200  0.84368300  1
  H  189  1  0.29442300  0.70342500  0.74762300  1
  H  190  1  0.34364100  0.73671000  0.71303500  1
  H  191  1  0.31158300  0.77775900  0.84445800  1
  H  192  1  0.35825400  0.81372800  0.80769800  1
  H  197  1  0.41151600  0.83958800  0.77645900  1
  H  198  1  0.25520600  0.75178800  0.86912900  1
  H  199  1  0.22494900  0.69627700  0.77218400  1
  H  200  1  0.37511000  0.78799500  0.67019400  1
  H  209  1  0.75330100  0.68730000  0.42615400  1
  H  217  1  0.56236000  0.82388700  0.42168000  1
  H  219  1  0.62765200  0.72782200  0.50786400  1
  H  220  1  0.67689200  0.69324700  0.50917300  1
  H  221  1  0.64484300  0.82466400  0.33669500  1
  H  222  1  0.69152400  0.78790600  0.33749200  1
  H  227  1  0.74489400  0.75667200  0.34292100  1
  H  228  1  0.58845900  0.84933000  0.33799900  1
  H  229  1  0.55815700  0.75240500  0.49044000  1
  H  230  1  0.70838600  0.65042000  0.50074500  1
  H  237  1  0.22156500  0.73560600  0.92818200  1
  H  240  1  0.21294400  0.64291800  0.92588700  1
  H  245  1  0.10689200  0.57650000  0.06100900  1
  H  254  1  0.55492400  0.90845900  0.29511200  1
  H  258  1  0.54615900  0.90607800  0.39012800  1
  H  263  1  0.44834200  0.04816500  0.22425100  1
  H  265  1  0.44019800  0.04126700  0.32139500  1
  H  273  1  0.88814500  0.27538900  0.75542500  1
  H  274  1  0.87953200  0.37036900  0.66273300  1
  H  282  1  0.22160700  0.21069400  0.05758600  1
  H  286  1  0.21286900  0.30333900  0.05995300  1
  H  291  1  0.11496300  0.27951800  0.91792700  1
  H  293  1  0.10685300  0.36977500  0.92481000  1
  H  304  1  0.54621200  0.04018500  0.59567600  1
  H  308  1  0.44829700  0.89816700  0.76152700  1
  H  310  1  0.44024000  0.90501100  0.66440200  1
  H  317  1  0.78159400  0.74175000  0.29924600  1
  H  319  1  0.77339500  0.64459400  0.38947200  1
  H  327  1  0.16525100  0.47282100  0.17170600  1
  H  331  1  0.06946600  0.41024700  0.19517800  1
  H  336  1  0.26431900  0.35317000  0.16484500  1
  H  338  1  0.16815300  0.29108100  0.18905500  1
  H  347  1  0.49863300  0.15204000  0.31439000  1
  H  351  1  0.40279500  0.17546200  0.35347700  1
  H  356  1  0.59760900  0.14519600  0.44093600  1
  H  358  1  0.50138900  0.16934600  0.47880800  1
  H  367  1  0.83185800  0.65151100  0.49313200  1
  H  371  1  0.73613200  0.61265000  0.55583100  1
  H  376  1  0.93088700  0.52500200  0.61281600  1
  H  378  1  0.83479100  0.48735700  0.67504500  1
  H  387  1  0.16524000  0.47344900  0.81410900  1
  H  391  1  0.06947200  0.53605500  0.79058500  1
  H  396  1  0.26432200  0.59308700  0.82096000  1
  H  398  1  0.16817500  0.65521500  0.79670200  1
  H  407  1  0.49862200  0.79425500  0.67141600  1
  H  411  1  0.40280300  0.77083400  0.63231400  1
  H  416  1  0.59763400  0.80110900  0.54488100  1
  H  418  1  0.50143100  0.77695100  0.50700100  1
  H  424  1  0.64487700  0.54428000  0.27246500  1
  H  426  1  0.72731400  0.62930000  0.18823000  1
  H  427  1  0.77398400  0.62851900  0.15225900  1
  H  429  1  0.67102800  0.62800500  0.21421700  1
  H  435  1  0.50245000  0.25898300  0.55962400  1
  H  436  1  0.44066900  0.15837200  0.64830500  1
  H  439  1  0.49381300  0.18963000  0.64298100  1
  H  440  1  0.45752800  0.29591400  0.48508100  1
  H  449  1  0.53070800  0.20454600  0.68658100  1
  H  451  1  0.52272800  0.30165700  0.59627300  1
  H  459  1  0.63735800  0.67088400  0.23042200  1
  H  461  1  0.62853300  0.57585600  0.32303900  1
  H  468  1  0.58097600  0.29479900  0.49270700  1
  H  475  1  0.68002200  0.42128500  0.37302100  1
  H  486  1  0.82725100  0.62315200  0.12639900  1
  H  487  1  0.64078000  0.47547000  0.26975500  1
  H  493  1  0.39399600  0.12162200  0.64910100  1
  H  494  1  0.33765400  0.09690500  0.64782000  1
  H  497  1  0.48528500  0.33360700  0.42994700  1
  H  500  1  0.58396000  0.45888000  0.31073800  1
  H  505  1  0.71021500  0.45812200  0.26258700  1
  H  511  1  0.42597800  0.25307900  0.47662900  1
  H  515  1  0.86404700  0.66680300  0.06781900  1
  H  517  1  0.30405300  0.03785200  0.69067400  1
  H  521  1  0.83581100  0.53986300  0.14032100  1
  H  522  1  0.75943200  0.45683100  0.22929200  1
  H  524  1  0.79090400  0.46529400  0.17798400  1
  H  533  1  0.16922800  0.12064400  0.27869100  1
  H  541  1  0.97825500  0.25271400  0.14213000  1
  H  543  1  0.04355700  0.24286100  0.23817300  1
  H  544  1  0.09280300  0.20959900  0.27274600  1
  H  545  1  0.06075100  0.16851500  0.14134700  1
  H  546  1  0.10744300  0.13256800  0.17809500  1
  H  551  1  0.16081400  0.10676700  0.20932500  1
  H  552  1  0.00435900  0.19447100  0.11669300  1
  H  553  1  0.97408000  0.25001000  0.21361300  1
  H  554  1  0.12428300  0.15829100  0.31559400  1
  H  557  1  0.31149400  0.12241200  0.56412400  1
  H  558  1  0.37673500  0.21850900  0.47794300  1
  H  560  1  0.30728600  0.19392900  0.49533700  1
  H  569  1  0.83582200  0.40644200  0.84544700  1
  H  577  1  0.64488600  0.40196400  0.71335100  1
  H  579  1  0.71018600  0.48814400  0.72320700  1
  H  580  1  0.75941300  0.48945100  0.75648700  1
  H  581  1  0.72735800  0.31697000  0.79757100  1
  H  582  1  0.77402300  0.31776700  0.83353700  1
  H  587  1  0.82731000  0.32316200  0.85936700  1
  H  588  1  0.67110300  0.31823200  0.77156400  1
  H  589  1  0.64074000  0.47076200  0.71605200  1
  H  590  1  0.79091000  0.48098500  0.80781500  1
  H  599  1  0.16920300  0.82566800  0.70709200  1
  H  607  1  0.97828800  0.69354200  0.84368300  1
  H  609  1  0.04358200  0.70342500  0.74762300  1
  H  610  1  0.09280000  0.73671000  0.71303500  1
  H  611  1  0.06074200  0.77775900  0.84445800  1
  H  612  1  0.10741300  0.81372800  0.80769800  1
  H  617  1  0.16067500  0.83958800  0.77645900  1
  H  618  1  0.00436500  0.75178800  0.86912900  1
  H  619  1  0.97410800  0.69627700  0.77218400  1
  H  620  1  0.12426900  0.78799500  0.67019400  1
  H  629  1  0.50246000  0.68730000  0.42615400  1
  H  637  1  0.31151900  0.82388700  0.42168000  1
  H  639  1  0.37681100  0.72782200  0.50786400  1
  H  640  1  0.42605100  0.69324700  0.50917300  1
  H  641  1  0.39400200  0.82466400  0.33669500  1
  H  642  1  0.44068300  0.78790600  0.33749200  1
  H  647  1  0.49405300  0.75667200  0.34292100  1
  H  648  1  0.33761800  0.84933000  0.33799900  1
  H  649  1  0.30731600  0.75240500  0.49044000  1
  H  650  1  0.45754500  0.65042000  0.50074500  1
  H  657  1  0.97072400  0.73560600  0.92818200  1
  H  660  1  0.96210300  0.64291800  0.92588700  1
  H  665  1  0.85605100  0.57650000  0.06100900  1
  H  674  1  0.30408300  0.90845900  0.29511200  1
  H  678  1  0.29531800  0.90607800  0.39012800  1
  H  683  1  0.19750100  0.04816500  0.22425100  1
  H  685  1  0.18935700  0.04126700  0.32139500  1
  H  693  1  0.63730400  0.27538900  0.75542500  1
  H  694  1  0.62869100  0.37036900  0.66273300  1
  H  702  1  0.97076600  0.21069400  0.05758600  1
  H  706  1  0.96202800  0.30333900  0.05995300  1
  H  711  1  0.86412200  0.27951800  0.91792700  1
  H  713  1  0.85601200  0.36977500  0.92481000  1
  H  724  1  0.29537100  0.04018500  0.59567600  1
  H  728  1  0.19745600  0.89816700  0.76152700  1
  H  730  1  0.18939900  0.90501100  0.66440200  1
  H  737  1  0.53075300  0.74175000  0.29924600  1
  H  739  1  0.52255400  0.64459400  0.38947200  1
  H  747  1  0.91441000  0.47282100  0.17170600  1
  H  751  1  0.81862500  0.41024700  0.19517800  1
  H  756  1  0.01347800  0.35317000  0.16484500  1
  H  758  1  0.91731200  0.29108100  0.18905500  1
  H  767  1  0.24779200  0.15204000  0.31439000  1
  H  771  1  0.15195400  0.17546200  0.35347700  1
  H  776  1  0.34676800  0.14519600  0.44093600  1
  H  778  1  0.25054800  0.16934600  0.47880800  1
  H  787  1  0.58101700  0.65151100  0.49313200  1
  H  791  1  0.48529100  0.61265000  0.55583100  1
  H  796  1  0.68004600  0.52500200  0.61281600  1
  H  798  1  0.58395000  0.48735700  0.67504500  1
  H  807  1  0.91439900  0.47344900  0.81410900  1
  H  811  1  0.81863100  0.53605500  0.79058500  1
  H  816  1  0.01348100  0.59308700  0.82096000  1
  H  818  1  0.91733400  0.65521500  0.79670200  1
  H  827  1  0.24778100  0.79425500  0.67141600  1
  H  831  1  0.15196200  0.77083400  0.63231400  1
  H  836  1  0.34679300  0.80110900  0.54488100  1
  H  838  1  0.25059000  0.77695100  0.50700100  1
  H  844  1  0.39403600  0.54428000  0.27246500  1
  H  846  1  0.47647300  0.62930000  0.18823000  1
  H  847  1  0.52314300  0.62851900  0.15225900  1
  H  849  1  0.42018700  0.62800500  0.21421700  1
  H  855  1  0.25160900  0.25898300  0.55962400  1
  H  856  1  0.18982800  0.15837200  0.64830500  1
  H  859  1  0.24297200  0.18963000  0.64298100  1
  H  860  1  0.20668700  0.29591400  0.48508100  1
  H  869  1  0.27986700  0.20454600  0.68658100  1
  H  871  1  0.27188700  0.30165700  0.59627300  1
  H  879  1  0.38651700  0.67088400  0.23042200  1
  H  881  1  0.37769200  0.57585600  0.32303900  1
  H  888  1  0.33013500  0.29479900  0.49270700  1
  H  895  1  0.42918100  0.42128500  0.37302100  1
  H  906  1  0.57641000  0.62315200  0.12639900  1
  H  907  1  0.38993900  0.47547000  0.26975500  1
  H  913  1  0.14315500  0.12162200  0.64910100  1
  H  914  1  0.08681300  0.09690500  0.64782000  1
  H  917  1  0.23444400  0.33360700  0.42994700  1
  H  920  1  0.33311900  0.45888000  0.31073800  1
  H  925  1  0.45937400  0.45812200  0.26258700  1
  H  931  1  0.17513700  0.25307900  0.47662900  1
  H  935  1  0.61320600  0.66680300  0.06781900  1
  H  937  1  0.05321200  0.03785200  0.69067400  1
  H  941  1  0.58497000  0.53986300  0.14032100  1
  H  942  1  0.50859100  0.45683100  0.22929200  1
  H  944  1  0.54006300  0.46529400  0.17798400  1
  H  953  1  0.91838700  0.12064400  0.27869100  1
  H  961  1  0.72741400  0.25271400  0.14213000  1
  H  963  1  0.79271600  0.24286100  0.23817300  1
  H  964  1  0.84196200  0.20959900  0.27274600  1
  H  965  1  0.80991000  0.16851500  0.14134700  1
  H  966  1  0.85660200  0.13256800  0.17809500  1
  H  971  1  0.90997300  0.10676700  0.20932500  1
  H  972  1  0.75351800  0.19447100  0.11669300  1
  H  973  1  0.72323900  0.25001000  0.21361300  1
  H  974  1  0.87344200  0.15829100  0.31559400  1
  H  977  1  0.06065300  0.12241200  0.56412400  1
  H  978  1  0.12589400  0.21850900  0.47794300  1
  H  980  1  0.05644500  0.19392900  0.49533700  1
  H  989  1  0.58498100  0.40644200  0.84544700  1
  H  997  1  0.39404500  0.40196400  0.71335100  1
  H  999  1  0.45934500  0.48814400  0.72320700  1
  H  1000  1  0.50857200  0.48945100  0.75648700  1
  H  1001  1  0.47651700  0.31697000  0.79757100  1
  H  1002  1  0.52318200  0.31776700  0.83353700  1
  H  1007  1  0.57646900  0.32316200  0.85936700  1
  H  1008  1  0.42026200  0.31823200  0.77156400  1
  H  1009  1  0.38989900  0.47076200  0.71605200  1
  H  1010  1  0.54006900  0.48098500  0.80781500  1
  H  1019  1  0.91836200  0.82566800  0.70709200  1
  H  1027  1  0.72744700  0.69354200  0.84368300  1
  H  1029  1  0.79274100  0.70342500  0.74762300  1
  H  1030  1  0.84195900  0.73671000  0.71303500  1
  H  1031  1  0.80990100  0.77775900  0.84445800  1
  H  1032  1  0.85657200  0.81372800  0.80769800  1
  H  1037  1  0.90983400  0.83958800  0.77645900  1
  H  1038  1  0.75352400  0.75178800  0.86912900  1
  H  1039  1  0.72326700  0.69627700  0.77218400  1
  H  1040  1  0.87342800  0.78799500  0.67019400  1
  H  1049  1  0.25161900  0.68730000  0.42615400  1
  H  1057  1  0.06067800  0.82388700  0.42168000  1
  H  1059  1  0.12597000  0.72782200  0.50786400  1
  H  1060  1  0.17521000  0.69324700  0.50917300  1
  H  1061  1  0.14316100  0.82466400  0.33669500  1
  H  1062  1  0.18984200  0.78790600  0.33749200  1
  H  1067  1  0.24321200  0.75667200  0.34292100  1
  H  1068  1  0.08677700  0.84933000  0.33799900  1
  H  1069  1  0.05647500  0.75240500  0.49044000  1
  H  1070  1  0.20670400  0.65042000  0.50074500  1
  H  1077  1  0.71988300  0.73560600  0.92818200  1
  H  1080  1  0.71126200  0.64291800  0.92588700  1
  H  1085  1  0.60521000  0.57650000  0.06100900  1
  H  1094  1  0.05324200  0.90845900  0.29511200  1
  H  1098  1  0.04447700  0.90607800  0.39012800  1
  H  1103  1  0.94666000  0.04816500  0.22425100  1
  H  1105  1  0.93851600  0.04126700  0.32139500  1
  H  1113  1  0.38646300  0.27538900  0.75542500  1
  H  1114  1  0.37785000  0.37036900  0.66273300  1
  H  1122  1  0.71992500  0.21069400  0.05758600  1
  H  1126  1  0.71118700  0.30333900  0.05995300  1
  H  1131  1  0.61328100  0.27951800  0.91792700  1
  H  1133  1  0.60517100  0.36977500  0.92481000  1
  H  1144  1  0.04453000  0.04018500  0.59567600  1
  H  1148  1  0.94661500  0.89816700  0.76152700  1
  H  1150  1  0.93855800  0.90501100  0.66440200  1
  H  1157  1  0.27991200  0.74175000  0.29924600  1
  H  1159  1  0.27171300  0.64459400  0.38947200  1
  H  1167  1  0.66356900  0.47282100  0.17170600  1
  H  1171  1  0.56778400  0.41024700  0.19517800  1
  H  1176  1  0.76263700  0.35317000  0.16484500  1
  H  1178  1  0.66647100  0.29108100  0.18905500  1
  H  1187  1  0.99695097  0.15204000  0.31439000  1
  H  1191  1  0.90111300  0.17546200  0.35347700  1
  H  1196  1  0.09592700  0.14519600  0.44093600  1
  H  1198  1  0.99970697  0.16934600  0.47880800  1
  H  1207  1  0.33017600  0.65151100  0.49313200  1
  H  1211  1  0.23445000  0.61265000  0.55583100  1
  H  1216  1  0.42920500  0.52500200  0.61281600  1
  H  1218  1  0.33310900  0.48735700  0.67504500  1
  H  1227  1  0.66355800  0.47344900  0.81410900  1
  H  1231  1  0.56779000  0.53605500  0.79058500  1
  H  1236  1  0.76264000  0.59308700  0.82096000  1
  H  1238  1  0.66649300  0.65521500  0.79670200  1
  H  1247  1  0.99693997  0.79425500  0.67141600  1
  H  1251  1  0.90112100  0.77083400  0.63231400  1
  H  1256  1  0.09595200  0.80110900  0.54488100  1
  H  1258  1  0.99974897  0.77695100  0.50700100  1
  C  1  1  0.91858500  0.54445900  0.25860600  1
  C  2  1  0.93690900  0.57601300  0.23669000  1
  C  3  1  0.96659000  0.57557900  0.21548900  1
  C  5  1  0.98520400  0.60591400  0.19117800  1
  C  8  1  0.92287800  0.60569600  0.23608400  1
  C  10  1  0.71575000  0.24944900  0.52976500  1
  C  11  1  0.73235600  0.24278300  0.56092400  1
  C  12  1  0.72112000  0.21545600  0.59351200  1
  C  13  1  0.69241600  0.19289000  0.59420200  1
  C  14  1  0.68004100  0.16407900  0.62521300  1
  C  17  1  0.73949500  0.21253200  0.62269200  1
  C  18  1  0.72734800  0.27860800  0.49969900  1
  C  21  1  0.84251500  0.29577900  0.68198300  1
  C  22  1  0.81928200  0.28086700  0.66760200  1
  C  23  1  0.77329000  0.25066700  0.63909100  1
  C  24  1  0.78759800  0.23024700  0.67279400  1
  C  26  1  0.81052000  0.24531900  0.68736500  1
  C  30  1  0.78282300  0.28593700  0.62087500  1
  C  33  1  0.88811800  0.62088300  0.27444500  1
  C  34  1  0.87392700  0.60161900  0.30824700  1
  C  36  1  0.84245300  0.65047800  0.30381300  1
  C  37  1  0.85608500  0.67133900  0.26982100  1
  C  38  1  0.87882800  0.65625700  0.25514200  1
  C  40  1  0.81922600  0.66540000  0.31819400  1
  C  45  1  0.82192500  0.36339300  0.41338300  1
  C  46  1  0.83991700  0.33912600  0.44423000  1
  C  47  1  0.81893100  0.31221800  0.47029800  1
  C  49  1  0.84326100  0.39037000  0.38762500  1
  C  50  1  0.88668100  0.44417800  0.33727300  1
  C  51  1  0.90319000  0.41952400  0.36856000  1
  C  52  1  0.88172600  0.39229000  0.39376400  1
  C  58  1  0.78032200  0.30967300  0.46597900  1
  C  59  1  0.00814400  0.54315000  0.19694500  1
  C  60  1  0.02576100  0.57441500  0.17186000  1
  C  61  1  0.01337000  0.60542500  0.16965300  1
  C  62  1  0.97847900  0.54382000  0.21815900  1
  C  63  1  0.96017600  0.51250100  0.24188600  1
  C  64  1  0.92967300  0.51297100  0.26173400  1
  C  65  1  0.90752300  0.48449800  0.28165300  1
  C  68  1  0.67477100  0.19907900  0.56294300  1
  C  69  1  0.68648800  0.22762500  0.53082800  1
  C  70  1  0.64509900  0.17719600  0.56362600  1
  C  71  1  0.63324000  0.14809700  0.59538400  1
  C  72  1  0.65188800  0.14205400  0.62571300  1
  C  75  1  0.76384000  0.33448900  0.43457000  1
  C  79  1  0.84816800  0.44108700  0.33256100  1
  C  81  1  0.01988300  0.51103600  0.20051700  1
  C  82  1  0.05446600  0.57373700  0.14997500  1
  C  83  1  0.00224900  0.48041300  0.22533500  1
  C  84  1  0.97282800  0.48115200  0.24525600  1
  C  86  1  0.07280500  0.60293100  0.12370700  1
  C  87  1  0.66882600  0.23343800  0.50021100  1
  C  88  1  0.62675700  0.18480700  0.53231700  1
  C  89  1  0.60355400  0.12646100  0.59583200  1
  C  90  1  0.63938800  0.21279100  0.50096400  1
  C  92  1  0.58960700  0.09734100  0.62551800  1
  C  93  1  0.12094400  0.65301000  0.05591100  1
  C  96  1  0.54557100  0.02773400  0.67605500  1
  C  99  1  0.04914500  0.50998700  0.17974800  1
  C  100  1  0.06572300  0.54115400  0.15523600  1
  C  103  1  0.06073400  0.47994100  0.18061200  1
  C  105  1  0.34156200  0.17725400  0.21877300  1
  C  106  1  0.35329000  0.18083300  0.24731200  1
  C  107  1  0.38256300  0.16008100  0.26912500  1
  C  108  1  0.39913800  0.13555300  0.26248900  1
  C  109  1  0.38789500  0.13029300  0.23516300  1
  C  110  1  0.35919600  0.15217600  0.21259300  1
  C  111  1  0.33563600  0.20564700  0.25311600  1
  C  112  1  0.34681800  0.14996400  0.18378900  1
  C  114  1  0.31188400  0.19845300  0.19689100  1
  C  115  1  0.29355600  0.22216600  0.20449000  1
  C  116  1  0.26303200  0.24197900  0.18418200  1
  C  117  1  0.25195600  0.23885100  0.15582200  1
  C  118  1  0.27031200  0.21695300  0.14617700  1
  C  119  1  0.30001100  0.19577700  0.16780400  1
  C  120  1  0.30620200  0.22555000  0.23246100  1
  C  122  1  0.31865400  0.17148200  0.16176800  1
  C  127  1  0.40622300  0.10402200  0.23223700  1
  C  128  1  0.25633700  0.21636100  0.11707900  1
  C  129  1  0.24087700  0.26190500  0.19272400  1
  C  130  1  0.39412400  0.16093300  0.29832100  1
  C  135  1  0.59622100  0.16450500  0.53281600  1
  C  136  1  0.58518400  0.13611400  0.56429500  1
  C  139  1  0.57408900  0.17304100  0.50433700  1
  C  141  1  0.00815800  0.40313200  0.78884100  1
  C  142  1  0.01988900  0.43525000  0.78526000  1
  C  143  1  0.04915900  0.43631200  0.80601100  1
  C  144  1  0.06573400  0.40514800  0.83053600  1
  C  145  1  0.05448300  0.37255900  0.83580900  1
  C  146  1  0.02578400  0.37187300  0.81392800  1
  C  147  1  0.00223800  0.46587000  0.76044300  1
  C  148  1  0.01340000  0.34085700  0.81614300  1
  C  150  1  0.97849200  0.40245200  0.76763200  1
  C  151  1  0.96017700  0.43376500  0.74390700  1
  C  152  1  0.92966900  0.43328300  0.72407200  1
  C  153  1  0.91859300  0.40179300  0.72720600  1
  C  154  1  0.93694600  0.37024800  0.74910400  1
  C  155  1  0.96661600  0.37069000  0.77030800  1
  C  156  1  0.97282300  0.46512100  0.74052400  1
  C  158  1  0.98523800  0.34035800  0.79462200  1
  C  163  1  0.07283900  0.34337000  0.86207200  1
  C  164  1  0.92291200  0.34056400  0.74972200  1
  C  165  1  0.90750900  0.46175100  0.70415300  1
  C  166  1  0.06073700  0.46636700  0.80513600  1
  C  171  1  0.34154800  0.76904900  0.76701200  1
  C  172  1  0.35327300  0.76547900  0.73846800  1
  C  173  1  0.38253200  0.78624500  0.71664500  1
  C  174  1  0.39912100  0.81075300  0.72329900  1
  C  175  1  0.38787500  0.81601300  0.75062600  1
  C  176  1  0.35917400  0.79413100  0.77319100  1
  C  177  1  0.33562500  0.74066300  0.73266300  1
  C  178  1  0.34679000  0.79633500  0.80199900  1
  C  180  1  0.31188400  0.74783700  0.78890200  1
  C  181  1  0.29356800  0.72411700  0.78130800  1
  C  182  1  0.26306500  0.70427600  0.80163100  1
  C  183  1  0.25199500  0.70739800  0.82999700  1
  C  184  1  0.27033400  0.72930500  0.83963500  1
  C  185  1  0.30000900  0.75050400  0.81799300  1
  C  186  1  0.30621000  0.72074500  0.75332700  1
  C  188  1  0.31863200  0.77481300  0.82401900  1
  C  193  1  0.40621500  0.84228300  0.75354500  1
  C  194  1  0.25634300  0.72990800  0.86872200  1
  C  195  1  0.24089900  0.68436800  0.79307500  1
  C  196  1  0.39410700  0.78538800  0.68745400  1
  C  201  1  0.67480400  0.74722400  0.42285600  1
  C  202  1  0.68653200  0.71868300  0.45497000  1
  C  203  1  0.71580300  0.69686400  0.45603100  1
  C  204  1  0.73237000  0.70350500  0.42486300  1
  C  205  1  0.72112600  0.73083100  0.39228100  1
  C  206  1  0.69243300  0.75340400  0.39159600  1
  C  207  1  0.66888400  0.71287900  0.48559200  1
  C  208  1  0.68005800  0.78221100  0.36058200  1
  C  210  1  0.64513200  0.76910900  0.42217500  1
  C  211  1  0.62680700  0.76151000  0.45348800  1
  C  212  1  0.59628800  0.78182200  0.45299600  1
  C  213  1  0.58521500  0.81018900  0.42151000  1
  C  214  1  0.60357100  0.81983400  0.38996700  1
  C  215  1  0.63326200  0.79820200  0.39041400  1
  C  216  1  0.63945200  0.73353600  0.48484100  1
  C  218  1  0.65190200  0.80423700  0.36008300  1
  C  223  1  0.73945300  0.73376100  0.36308100  1
  C  224  1  0.58960200  0.84894000  0.36027800  1
  C  225  1  0.57413300  0.77328000  0.48146300  1
  C  226  1  0.72738000  0.66767300  0.48607700  1
  C  231  1  0.22162900  0.69153300  0.92228900  1
  C  232  1  0.20747600  0.65771600  0.93684700  1
  C  234  1  0.17589500  0.66218500  0.98120800  1
  C  235  1  0.18947700  0.69619600  0.96804900  1
  C  236  1  0.21224500  0.71086900  0.93830300  1
  C  238  1  0.15264800  0.64780900  0.01049400  1
  C  239  1  0.10661800  0.61931600  0.06918600  1
  C  242  1  0.14388200  0.66757400  0.02627600  1
  C  244  1  0.11615600  0.60109800  0.05213500  1
  C  248  1  0.55487100  0.90249200  0.34510900  1
  C  249  1  0.54069900  0.91704200  0.36436900  1
  C  251  1  0.50921300  0.96146400  0.31551500  1
  C  252  1  0.52282500  0.94832100  0.29465600  1
  C  253  1  0.54556500  0.91855600  0.30973900  1
  C  255  1  0.48599300  0.99077000  0.30059700  1
  C  256  1  0.44002200  0.04950200  0.27038100  1
  C  257  1  0.45436200  0.03623400  0.24995800  1
  C  260  1  0.47728300  0.00658700  0.26503600  1
  C  264  1  0.44948200  0.03240200  0.30566900  1
  C  268  1  0.88821500  0.32535100  0.71134900  1
  C  269  1  0.87407400  0.34460900  0.67752700  1
  C  271  1  0.85608800  0.27492700  0.71600100  1
  C  272  1  0.87883900  0.29000100  0.73068100  1
  C  276  1  0.22157100  0.25472800  0.06354500  1
  C  277  1  0.20739800  0.28854000  0.04899600  1
  C  279  1  0.17587800  0.28409600  0.00459600  1
  C  280  1  0.18949100  0.25009500  0.01773800  1
  C  281  1  0.21224800  0.23541700  0.04749000  1
  C  283  1  0.15264200  0.29847700  0.97530200  1
  C  284  1  0.10665500  0.32699000  0.91658500  1
  C  285  1  0.12098900  0.29329800  0.92985300  1
  C  288  1  0.14391900  0.27872800  0.95949600  1
  C  292  1  0.11613100  0.34518400  0.93367500  1
  C  296  1  0.55492700  0.04376700  0.64069900  1
  C  297  1  0.54076600  0.02921200  0.62143900  1
  C  299  1  0.50922900  0.98482200  0.67027900  1
  C  300  1  0.52282200  0.99797500  0.69113400  1
  C  301  1  0.48599900  0.95552400  0.68519400  1
  C  302  1  0.44000300  0.89681500  0.71540200  1
  C  303  1  0.45433700  0.91008400  0.73582200  1
  C  306  1  0.47726100  0.93972800  0.72074700  1
  C  309  1  0.44951500  0.91388000  0.68012600  1
  C  313  1  0.77324600  0.69561500  0.34670100  1
  C  314  1  0.78760400  0.71604100  0.31302200  1
  C  316  1  0.81053000  0.70096200  0.29845400  1
  C  318  1  0.78269200  0.66032300  0.36488700  1
  C  321  1  0.11370900  0.44618200  0.18332900  1
  C  322  1  0.09720400  0.41482900  0.18978400  1
  C  324  1  0.15532100  0.39359600  0.18219300  1
  C  325  1  0.17333900  0.42438500  0.17575500  1
  C  326  1  0.15234400  0.45045300  0.17659200  1
  C  328  1  0.17665900  0.36784800  0.18095700  1
  C  329  1  0.22007400  0.31753100  0.17743500  1
  C  330  1  0.23662400  0.34874700  0.17097200  1
  C  333  1  0.21515700  0.37393700  0.17302700  1
  C  337  1  0.18154200  0.31285100  0.18514800  1
  C  341  1  0.44706800  0.16363700  0.32939600  1
  C  342  1  0.43053800  0.17007800  0.35429600  1
  C  344  1  0.48863800  0.16249900  0.38314100  1
  C  345  1  0.50668200  0.15607800  0.35878700  1
  C  346  1  0.48570900  0.15692400  0.33186800  1
  C  348  1  0.50995700  0.16126400  0.41013500  1
  C  349  1  0.55334100  0.15778100  0.46397100  1
  C  350  1  0.56990800  0.15131100  0.43922800  1
  C  353  1  0.54845800  0.15335400  0.41197900  1
  C  357  1  0.51479300  0.16543600  0.46095200  1
  C  361  1  0.78034600  0.63661300  0.51983100  1
  C  362  1  0.76385300  0.61178300  0.55122600  1
  C  364  1  0.82194500  0.58289100  0.57243500  1
  C  365  1  0.83994700  0.60717200  0.54160200  1
  C  366  1  0.81896100  0.63408000  0.51552800  1
  C  368  1  0.84327600  0.55590700  0.59819200  1
  C  369  1  0.88667900  0.50206900  0.64852600  1
  C  370  1  0.90320900  0.52675500  0.61726500  1
  C  373  1  0.88174900  0.55399900  0.59206700  1
  C  377  1  0.84816800  0.50516900  0.65324100  1
  C  381  1  0.11370600  0.50010300  0.80246200  1
  C  382  1  0.09720400  0.53146500  0.79599500  1
  C  384  1  0.15532100  0.55268200  0.80360800  1
  C  385  1  0.17333400  0.52188400  0.81005700  1
  C  386  1  0.15233800  0.49582600  0.80921000  1
  C  388  1  0.17666200  0.57842800  0.80484100  1
  C  389  1  0.22009600  0.62875700  0.80832200  1
  C  390  1  0.23662700  0.59752100  0.81482300  1
  C  393  1  0.21515700  0.57232800  0.81277900  1
  C  397  1  0.18155600  0.63343000  0.80063400  1
  C  401  1  0.44706600  0.78265700  0.65640400  1
  C  402  1  0.43054300  0.77621200  0.63150400  1
  C  404  1  0.48865500  0.78378400  0.60267400  1
  C  405  1  0.50668800  0.79021000  0.62702600  1
  C  406  1  0.48570600  0.78937600  0.65393400  1
  C  408  1  0.50997900  0.78502000  0.57568300  1
  C  409  1  0.55336900  0.78854600  0.52182900  1
  C  410  1  0.56993600  0.79499200  0.54658600  1
  C  413  1  0.54848100  0.79293600  0.57384000  1
  C  417  1  0.51483200  0.78084600  0.52486400  1
  C  421  1  0.66774400  0.54445900  0.25860600  1
  C  422  1  0.68606800  0.57601300  0.23669000  1
  C  423  1  0.71574900  0.57557900  0.21548900  1
  C  425  1  0.73436300  0.60591400  0.19117800  1
  C  428  1  0.67203700  0.60569600  0.23608400  1
  C  430  1  0.46490900  0.24944900  0.52976500  1
  C  431  1  0.48151500  0.24278300  0.56092400  1
  C  432  1  0.47027900  0.21545600  0.59351200  1
  C  433  1  0.44157500  0.19289000  0.59420200  1
  C  434  1  0.42920000  0.16407900  0.62521300  1
  C  437  1  0.48865400  0.21253200  0.62269200  1
  C  438  1  0.47650700  0.27860800  0.49969900  1
  C  441  1  0.59167400  0.29577900  0.68198300  1
  C  442  1  0.56844100  0.28086700  0.66760200  1
  C  443  1  0.52244900  0.25066700  0.63909100  1
  C  444  1  0.53675700  0.23024700  0.67279400  1
  C  446  1  0.55967900  0.24531900  0.68736500  1
  C  450  1  0.53198200  0.28593700  0.62087500  1
  C  453  1  0.63727700  0.62088300  0.27444500  1
  C  454  1  0.62308600  0.60161900  0.30824700  1
  C  456  1  0.59161200  0.65047800  0.30381300  1
  C  457  1  0.60524400  0.67133900  0.26982100  1
  C  458  1  0.62798700  0.65625700  0.25514200  1
  C  460  1  0.56838500  0.66540000  0.31819400  1
  C  465  1  0.57108400  0.36339300  0.41338300  1
  C  466  1  0.58907600  0.33912600  0.44423000  1
  C  467  1  0.56809000  0.31221800  0.47029800  1
  C  469  1  0.59242000  0.39037000  0.38762500  1
  C  470  1  0.63584000  0.44417800  0.33727300  1
  C  471  1  0.65234900  0.41952400  0.36856000  1
  C  472  1  0.63088500  0.39229000  0.39376400  1
  C  478  1  0.52948100  0.30967300  0.46597900  1
  C  479  1  0.75730300  0.54315000  0.19694500  1
  C  480  1  0.77492000  0.57441500  0.17186000  1
  C  481  1  0.76252900  0.60542500  0.16965300  1
  C  482  1  0.72763800  0.54382000  0.21815900  1
  C  483  1  0.70933500  0.51250100  0.24188600  1
  C  484  1  0.67883200  0.51297100  0.26173400  1
  C  485  1  0.65668200  0.48449800  0.28165300  1
  C  488  1  0.42393000  0.19907900  0.56294300  1
  C  489  1  0.43564700  0.22762500  0.53082800  1
  C  490  1  0.39425800  0.17719600  0.56362600  1
  C  491  1  0.38239900  0.14809700  0.59538400  1
  C  492  1  0.40104700  0.14205400  0.62571300  1
  C  495  1  0.51299900  0.33448900  0.43457000  1
  C  499  1  0.59732700  0.44108700  0.33256100  1
  C  501  1  0.76904200  0.51103600  0.20051700  1
  C  502  1  0.80362500  0.57373700  0.14997500  1
  C  503  1  0.75140800  0.48041300  0.22533500  1
  C  504  1  0.72198700  0.48115200  0.24525600  1
  C  506  1  0.82196400  0.60293100  0.12370700  1
  C  507  1  0.41798500  0.23343800  0.50021100  1
  C  508  1  0.37591600  0.18480700  0.53231700  1
  C  509  1  0.35271300  0.12646100  0.59583200  1
  C  510  1  0.38854700  0.21279100  0.50096400  1
  C  512  1  0.33876600  0.09734100  0.62551800  1
  C  513  1  0.87010300  0.65301000  0.05591100  1
  C  516  1  0.29473000  0.02773400  0.67605500  1
  C  519  1  0.79830400  0.50998700  0.17974800  1
  C  520  1  0.81488200  0.54115400  0.15523600  1
  C  523  1  0.80989300  0.47994100  0.18061200  1
  C  525  1  0.09072100  0.17725400  0.21877300  1
  C  526  1  0.10244900  0.18083300  0.24731200  1
  C  527  1  0.13172200  0.16008100  0.26912500  1
  C  528  1  0.14829700  0.13555300  0.26248900  1
  C  529  1  0.13705400  0.13029300  0.23516300  1
  C  530  1  0.10835500  0.15217600  0.21259300  1
  C  531  1  0.08479500  0.20564700  0.25311600  1
  C  532  1  0.09597700  0.14996400  0.18378900  1
  C  534  1  0.06104300  0.19845300  0.19689100  1
  C  535  1  0.04271500  0.22216600  0.20449000  1
  C  536  1  0.01219100  0.24197900  0.18418200  1
  C  537  1  0.00111500  0.23885100  0.15582200  1
  C  538  1  0.01947100  0.21695300  0.14617700  1
  C  539  1  0.04917000  0.19577700  0.16780400  1
  C  540  1  0.05536100  0.22555000  0.23246100  1
  C  542  1  0.06781300  0.17148200  0.16176800  1
  C  547  1  0.15538200  0.10402200  0.23223700  1
  C  548  1  0.00549600  0.21636100  0.11707900  1
  C  549  1  0.99003599  0.26190500  0.19272400  1
  C  550  1  0.14328300  0.16093300  0.29832100  1
  C  555  1  0.34538000  0.16450500  0.53281600  1
  C  556  1  0.33434300  0.13611400  0.56429500  1
  C  559  1  0.32324800  0.17304100  0.50433700  1
  C  561  1  0.75731700  0.40313200  0.78884100  1
  C  562  1  0.76904800  0.43525000  0.78526000  1
  C  563  1  0.79831800  0.43631200  0.80601100  1
  C  564  1  0.81489300  0.40514800  0.83053600  1
  C  565  1  0.80364200  0.37255900  0.83580900  1
  C  566  1  0.77494300  0.37187300  0.81392800  1
  C  567  1  0.75139700  0.46587000  0.76044300  1
  C  568  1  0.76255900  0.34085700  0.81614300  1
  C  570  1  0.72765100  0.40245200  0.76763200  1
  C  571  1  0.70933600  0.43376500  0.74390700  1
  C  572  1  0.67882800  0.43328300  0.72407200  1
  C  573  1  0.66775200  0.40179300  0.72720600  1
  C  574  1  0.68610500  0.37024800  0.74910400  1
  C  575  1  0.71577500  0.37069000  0.77030800  1
  C  576  1  0.72198200  0.46512100  0.74052400  1
  C  578  1  0.73439700  0.34035800  0.79462200  1
  C  583  1  0.82199800  0.34337000  0.86207200  1
  C  584  1  0.67207100  0.34056400  0.74972200  1
  C  585  1  0.65666800  0.46175100  0.70415300  1
  C  586  1  0.80989600  0.46636700  0.80513600  1
  C  591  1  0.09070700  0.76904900  0.76701200  1
  C  592  1  0.10243200  0.76547900  0.73846800  1
  C  593  1  0.13169100  0.78624500  0.71664500  1
  C  594  1  0.14828000  0.81075300  0.72329900  1
  C  595  1  0.13703400  0.81601300  0.75062600  1
  C  596  1  0.10833300  0.79413100  0.77319100  1
  C  597  1  0.08478400  0.74066300  0.73266300  1
  C  598  1  0.09594900  0.79633500  0.80199900  1
  C  600  1  0.06104300  0.74783700  0.78890200  1
  C  601  1  0.04272700  0.72411700  0.78130800  1
  C  602  1  0.01222400  0.70427600  0.80163100  1
  C  603  1  0.00115400  0.70739800  0.82999700  1
  C  604  1  0.01949300  0.72930500  0.83963500  1
  C  605  1  0.04916800  0.75050400  0.81799300  1
  C  606  1  0.05536900  0.72074500  0.75332700  1
  C  608  1  0.06779100  0.77481300  0.82401900  1
  C  613  1  0.15537400  0.84228300  0.75354500  1
  C  614  1  0.00550200  0.72990800  0.86872200  1
  C  615  1  0.99005799  0.68436800  0.79307500  1
  C  616  1  0.14326600  0.78538800  0.68745400  1
  C  621  1  0.42396300  0.74722400  0.42285600  1
  C  622  1  0.43569100  0.71868300  0.45497000  1
  C  623  1  0.46496200  0.69686400  0.45603100  1
  C  624  1  0.48152900  0.70350500  0.42486300  1
  C  625  1  0.47028500  0.73083100  0.39228100  1
  C  626  1  0.44159200  0.75340400  0.39159600  1
  C  627  1  0.41804300  0.71287900  0.48559200  1
  C  628  1  0.42921700  0.78221100  0.36058200  1
  C  630  1  0.39429100  0.76910900  0.42217500  1
  C  631  1  0.37596600  0.76151000  0.45348800  1
  C  632  1  0.34544700  0.78182200  0.45299600  1
  C  633  1  0.33437400  0.81018900  0.42151000  1
  C  634  1  0.35273000  0.81983400  0.38996700  1
  C  635  1  0.38242100  0.79820200  0.39041400  1
  C  636  1  0.38861100  0.73353600  0.48484100  1
  C  638  1  0.40106100  0.80423700  0.36008300  1
  C  643  1  0.48861200  0.73376100  0.36308100  1
  C  644  1  0.33876100  0.84894000  0.36027800  1
  C  645  1  0.32329200  0.77328000  0.48146300  1
  C  646  1  0.47653900  0.66767300  0.48607700  1
  C  651  1  0.97078800  0.69153300  0.92228900  1
  C  652  1  0.95663500  0.65771600  0.93684700  1
  C  654  1  0.92505400  0.66218500  0.98120800  1
  C  655  1  0.93863600  0.69619600  0.96804900  1
  C  656  1  0.96140400  0.71086900  0.93830300  1
  C  658  1  0.90180700  0.64780900  0.01049400  1
  C  659  1  0.85577700  0.61931600  0.06918600  1
  C  662  1  0.89304100  0.66757400  0.02627600  1
  C  664  1  0.86531500  0.60109800  0.05213500  1
  C  668  1  0.30403000  0.90249200  0.34510900  1
  C  669  1  0.28985800  0.91704200  0.36436900  1
  C  671  1  0.25837200  0.96146400  0.31551500  1
  C  672  1  0.27198400  0.94832100  0.29465600  1
  C  673  1  0.29472400  0.91855600  0.30973900  1
  C  675  1  0.23515200  0.99077000  0.30059700  1
  C  676  1  0.18918100  0.04950200  0.27038100  1
  C  677  1  0.20352100  0.03623400  0.24995800  1
  C  680  1  0.22644200  0.00658700  0.26503600  1
  C  684  1  0.19864100  0.03240200  0.30566900  1
  C  688  1  0.63737400  0.32535100  0.71134900  1
  C  689  1  0.62323300  0.34460900  0.67752700  1
  C  691  1  0.60524700  0.27492700  0.71600100  1
  C  692  1  0.62799800  0.29000100  0.73068100  1
  C  696  1  0.97073000  0.25472800  0.06354500  1
  C  697  1  0.95655700  0.28854000  0.04899600  1
  C  699  1  0.92503700  0.28409600  0.00459600  1
  C  700  1  0.93865000  0.25009500  0.01773800  1
  C  701  1  0.96140700  0.23541700  0.04749000  1
  C  703  1  0.90180100  0.29847700  0.97530200  1
  C  704  1  0.85581400  0.32699000  0.91658500  1
  C  705  1  0.87014800  0.29329800  0.92985300  1
  C  708  1  0.89307800  0.27872800  0.95949600  1
  C  712  1  0.86529000  0.34518400  0.93367500  1
  C  716  1  0.30408600  0.04376700  0.64069900  1
  C  717  1  0.28992500  0.02921200  0.62143900  1
  C  719  1  0.25838800  0.98482200  0.67027900  1
  C  720  1  0.27198100  0.99797500  0.69113400  1
  C  721  1  0.23515800  0.95552400  0.68519400  1
  C  722  1  0.18916200  0.89681500  0.71540200  1
  C  723  1  0.20349600  0.91008400  0.73582200  1
  C  726  1  0.22642000  0.93972800  0.72074700  1
  C  729  1  0.19867400  0.91388000  0.68012600  1
  C  733  1  0.52240500  0.69561500  0.34670100  1
  C  734  1  0.53676300  0.71604100  0.31302200  1
  C  736  1  0.55968900  0.70096200  0.29845400  1
  C  738  1  0.53185100  0.66032300  0.36488700  1
  C  741  1  0.86286800  0.44618200  0.18332900  1
  C  742  1  0.84636300  0.41482900  0.18978400  1
  C  744  1  0.90448000  0.39359600  0.18219300  1
  C  745  1  0.92249800  0.42438500  0.17575500  1
  C  746  1  0.90150300  0.45045300  0.17659200  1
  C  748  1  0.92581800  0.36784800  0.18095700  1
  C  749  1  0.96923300  0.31753100  0.17743500  1
  C  750  1  0.98578300  0.34874700  0.17097200  1
  C  753  1  0.96431600  0.37393700  0.17302700  1
  C  757  1  0.93070100  0.31285100  0.18514800  1
  C  761  1  0.19622700  0.16363700  0.32939600  1
  C  762  1  0.17969700  0.17007800  0.35429600  1
  C  764  1  0.23779700  0.16249900  0.38314100  1
  C  765  1  0.25584100  0.15607800  0.35878700  1
  C  766  1  0.23486800  0.15692400  0.33186800  1
  C  768  1  0.25911600  0.16126400  0.41013500  1
  C  769  1  0.30250000  0.15778100  0.46397100  1
  C  770  1  0.31906700  0.15131100  0.43922800  1
  C  773  1  0.29761700  0.15335400  0.41197900  1
  C  777  1  0.26395200  0.16543600  0.46095200  1
  C  781  1  0.52950500  0.63661300  0.51983100  1
  C  782  1  0.51301200  0.61178300  0.55122600  1
  C  784  1  0.57110400  0.58289100  0.57243500  1
  C  785  1  0.58910600  0.60717200  0.54160200  1
  C  786  1  0.56812000  0.63408000  0.51552800  1
  C  788  1  0.59243500  0.55590700  0.59819200  1
  C  789  1  0.63583800  0.50206900  0.64852600  1
  C  790  1  0.65236800  0.52675500  0.61726500  1
  C  793  1  0.63090800  0.55399900  0.59206700  1
  C  797  1  0.59732700  0.50516900  0.65324100  1
  C  801  1  0.86286500  0.50010300  0.80246200  1
  C  802  1  0.84636300  0.53146500  0.79599500  1
  C  804  1  0.90448000  0.55268200  0.80360800  1
  C  805  1  0.92249300  0.52188400  0.81005700  1
  C  806  1  0.90149700  0.49582600  0.80921000  1
  C  808  1  0.92582100  0.57842800  0.80484100  1
  C  809  1  0.96925500  0.62875700  0.80832200  1
  C  810  1  0.98578600  0.59752100  0.81482300  1
  C  813  1  0.96431600  0.57232800  0.81277900  1
  C  817  1  0.93071500  0.63343000  0.80063400  1
  C  821  1  0.19622500  0.78265700  0.65640400  1
  C  822  1  0.17970200  0.77621200  0.63150400  1
  C  824  1  0.23781400  0.78378400  0.60267400  1
  C  825  1  0.25584700  0.79021000  0.62702600  1
  C  826  1  0.23486500  0.78937600  0.65393400  1
  C  828  1  0.25913800  0.78502000  0.57568300  1
  C  829  1  0.30252800  0.78854600  0.52182900  1
  C  830  1  0.31909500  0.79499200  0.54658600  1
  C  833  1  0.29764000  0.79293600  0.57384000  1
  C  837  1  0.26399100  0.78084600  0.52486400  1
  C  841  1  0.41690300  0.54445900  0.25860600  1
  C  842  1  0.43522700  0.57601300  0.23669000  1
  C  843  1  0.46490800  0.57557900  0.21548900  1
  C  845  1  0.48352200  0.60591400  0.19117800  1
  C  848  1  0.42119600  0.60569600  0.23608400  1
  C  850  1  0.21406800  0.24944900  0.52976500  1
  C  851  1  0.23067400  0.24278300  0.56092400  1
  C  852  1  0.21943800  0.21545600  0.59351200  1
  C  853  1  0.19073400  0.19289000  0.59420200  1
  C  854  1  0.17835900  0.16407900  0.62521300  1
  C  857  1  0.23781300  0.21253200  0.62269200  1
  C  858  1  0.22566600  0.27860800  0.49969900  1
  C  861  1  0.34083300  0.29577900  0.68198300  1
  C  862  1  0.31760000  0.28086700  0.66760200  1
  C  863  1  0.27160800  0.25066700  0.63909100  1
  C  864  1  0.28591600  0.23024700  0.67279400  1
  C  866  1  0.30883800  0.24531900  0.68736500  1
  C  870  1  0.28114100  0.28593700  0.62087500  1
  C  873  1  0.38643600  0.62088300  0.27444500  1
  C  874  1  0.37224500  0.60161900  0.30824700  1
  C  876  1  0.34077100  0.65047800  0.30381300  1
  C  877  1  0.35440300  0.67133900  0.26982100  1
  C  878  1  0.37714600  0.65625700  0.25514200  1
  C  880  1  0.31754400  0.66540000  0.31819400  1
  C  885  1  0.32024300  0.36339300  0.41338300  1
  C  886  1  0.33823500  0.33912600  0.44423000  1
  C  887  1  0.31724900  0.31221800  0.47029800  1
  C  889  1  0.34157900  0.39037000  0.38762500  1
  C  890  1  0.38499900  0.44417800  0.33727300  1
  C  891  1  0.40150800  0.41952400  0.36856000  1
  C  892  1  0.38004400  0.39229000  0.39376400  1
  C  898  1  0.27864000  0.30967300  0.46597900  1
  C  899  1  0.50646200  0.54315000  0.19694500  1
  C  900  1  0.52407900  0.57441500  0.17186000  1
  C  901  1  0.51168800  0.60542500  0.16965300  1
  C  902  1  0.47679700  0.54382000  0.21815900  1
  C  903  1  0.45849400  0.51250100  0.24188600  1
  C  904  1  0.42799100  0.51297100  0.26173400  1
  C  905  1  0.40584100  0.48449800  0.28165300  1
  C  908  1  0.17308900  0.19907900  0.56294300  1
  C  909  1  0.18480600  0.22762500  0.53082800  1
  C  910  1  0.14341700  0.17719600  0.56362600  1
  C  911  1  0.13155800  0.14809700  0.59538400  1
  C  912  1  0.15020600  0.14205400  0.62571300  1
  C  915  1  0.26215800  0.33448900  0.43457000  1
  C  919  1  0.34648600  0.44108700  0.33256100  1
  C  921  1  0.51820100  0.51103600  0.20051700  1
  C  922  1  0.55278400  0.57373700  0.14997500  1
  C  923  1  0.50056700  0.48041300  0.22533500  1
  C  924  1  0.47114600  0.48115200  0.24525600  1
  C  926  1  0.57112300  0.60293100  0.12370700  1
  C  927  1  0.16714400  0.23343800  0.50021100  1
  C  928  1  0.12507500  0.18480700  0.53231700  1
  C  929  1  0.10187200  0.12646100  0.59583200  1
  C  930  1  0.13770600  0.21279100  0.50096400  1
  C  932  1  0.08792500  0.09734100  0.62551800  1
  C  933  1  0.61926200  0.65301000  0.05591100  1
  C  936  1  0.04388900  0.02773400  0.67605500  1
  C  939  1  0.54746300  0.50998700  0.17974800  1
  C  940  1  0.56404100  0.54115400  0.15523600  1
  C  943  1  0.55905200  0.47994100  0.18061200  1
  C  945  1  0.83988000  0.17725400  0.21877300  1
  C  946  1  0.85160800  0.18083300  0.24731200  1
  C  947  1  0.88088100  0.16008100  0.26912500  1
  C  948  1  0.89745600  0.13555300  0.26248900  1
  C  949  1  0.88621300  0.13029300  0.23516300  1
  C  950  1  0.85751400  0.15217600  0.21259300  1
  C  951  1  0.83395400  0.20564700  0.25311600  1
  C  952  1  0.84513600  0.14996400  0.18378900  1
  C  954  1  0.81020200  0.19845300  0.19689100  1
  C  955  1  0.79187400  0.22216600  0.20449000  1
  C  956  1  0.76135000  0.24197900  0.18418200  1
  C  957  1  0.75027400  0.23885100  0.15582200  1
  C  958  1  0.76863000  0.21695300  0.14617700  1
  C  959  1  0.79832900  0.19577700  0.16780400  1
  C  960  1  0.80452000  0.22555000  0.23246100  1
  C  962  1  0.81697200  0.17148200  0.16176800  1
  C  967  1  0.90454100  0.10402200  0.23223700  1
  C  968  1  0.75465500  0.21636100  0.11707900  1
  C  969  1  0.73919500  0.26190500  0.19272400  1
  C  970  1  0.89244200  0.16093300  0.29832100  1
  C  975  1  0.09453900  0.16450500  0.53281600  1
  C  976  1  0.08350200  0.13611400  0.56429500  1
  C  979  1  0.07240700  0.17304100  0.50433700  1
  C  981  1  0.50647600  0.40313200  0.78884100  1
  C  982  1  0.51820700  0.43525000  0.78526000  1
  C  983  1  0.54747700  0.43631200  0.80601100  1
  C  984  1  0.56405200  0.40514800  0.83053600  1
  C  985  1  0.55280100  0.37255900  0.83580900  1
  C  986  1  0.52410200  0.37187300  0.81392800  1
  C  987  1  0.50055600  0.46587000  0.76044300  1
  C  988  1  0.51171800  0.34085700  0.81614300  1
  C  990  1  0.47681000  0.40245200  0.76763200  1
  C  991  1  0.45849500  0.43376500  0.74390700  1
  C  992  1  0.42798700  0.43328300  0.72407200  1
  C  993  1  0.41691100  0.40179300  0.72720600  1
  C  994  1  0.43526400  0.37024800  0.74910400  1
  C  995  1  0.46493400  0.37069000  0.77030800  1
  C  996  1  0.47114100  0.46512100  0.74052400  1
  C  998  1  0.48355600  0.34035800  0.79462200  1
  C  1003  1  0.57115700  0.34337000  0.86207200  1
  C  1004  1  0.42123000  0.34056400  0.74972200  1
  C  1005  1  0.40582700  0.46175100  0.70415300  1
  C  1006  1  0.55905500  0.46636700  0.80513600  1
  C  1011  1  0.83986600  0.76904900  0.76701200  1
  C  1012  1  0.85159100  0.76547900  0.73846800  1
  C  1013  1  0.88085000  0.78624500  0.71664500  1
  C  1014  1  0.89743900  0.81075300  0.72329900  1
  C  1015  1  0.88619300  0.81601300  0.75062600  1
  C  1016  1  0.85749200  0.79413100  0.77319100  1
  C  1017  1  0.83394300  0.74066300  0.73266300  1
  C  1018  1  0.84510800  0.79633500  0.80199900  1
  C  1020  1  0.81020200  0.74783700  0.78890200  1
  C  1021  1  0.79188600  0.72411700  0.78130800  1
  C  1022  1  0.76138300  0.70427600  0.80163100  1
  C  1023  1  0.75031300  0.70739800  0.82999700  1
  C  1024  1  0.76865200  0.72930500  0.83963500  1
  C  1025  1  0.79832700  0.75050400  0.81799300  1
  C  1026  1  0.80452800  0.72074500  0.75332700  1
  C  1028  1  0.81695000  0.77481300  0.82401900  1
  C  1033  1  0.90453300  0.84228300  0.75354500  1
  C  1034  1  0.75466100  0.72990800  0.86872200  1
  C  1035  1  0.73921700  0.68436800  0.79307500  1
  C  1036  1  0.89242500  0.78538800  0.68745400  1
  C  1041  1  0.17312200  0.74722400  0.42285600  1
  C  1042  1  0.18485000  0.71868300  0.45497000  1
  C  1043  1  0.21412100  0.69686400  0.45603100  1
  C  1044  1  0.23068800  0.70350500  0.42486300  1
  C  1045  1  0.21944400  0.73083100  0.39228100  1
  C  1046  1  0.19075100  0.75340400  0.39159600  1
  C  1047  1  0.16720200  0.71287900  0.48559200  1
  C  1048  1  0.17837600  0.78221100  0.36058200  1
  C  1050  1  0.14345000  0.76910900  0.42217500  1
  C  1051  1  0.12512500  0.76151000  0.45348800  1
  C  1052  1  0.09460600  0.78182200  0.45299600  1
  C  1053  1  0.08353300  0.81018900  0.42151000  1
  C  1054  1  0.10188900  0.81983400  0.38996700  1
  C  1055  1  0.13158000  0.79820200  0.39041400  1
  C  1056  1  0.13777000  0.73353600  0.48484100  1
  C  1058  1  0.15022000  0.80423700  0.36008300  1
  C  1063  1  0.23777100  0.73376100  0.36308100  1
  C  1064  1  0.08792000  0.84894000  0.36027800  1
  C  1065  1  0.07245100  0.77328000  0.48146300  1
  C  1066  1  0.22569800  0.66767300  0.48607700  1
  C  1071  1  0.71994700  0.69153300  0.92228900  1
  C  1072  1  0.70579400  0.65771600  0.93684700  1
  C  1074  1  0.67421300  0.66218500  0.98120800  1
  C  1075  1  0.68779500  0.69619600  0.96804900  1
  C  1076  1  0.71056300  0.71086900  0.93830300  1
  C  1078  1  0.65096600  0.64780900  0.01049400  1
  C  1079  1  0.60493600  0.61931600  0.06918600  1
  C  1082  1  0.64220000  0.66757400  0.02627600  1
  C  1084  1  0.61447400  0.60109800  0.05213500  1
  C  1088  1  0.05318900  0.90249200  0.34510900  1
  C  1089  1  0.03901700  0.91704200  0.36436900  1
  C  1091  1  0.00753100  0.96146400  0.31551500  1
  C  1092  1  0.02114300  0.94832100  0.29465600  1
  C  1093  1  0.04388300  0.91855600  0.30973900  1
  C  1095  1  0.98431100  0.99077000  0.30059700  1
  C  1096  1  0.93834000  0.04950200  0.27038100  1
  C  1097  1  0.95268000  0.03623400  0.24995800  1
  C  1100  1  0.97560100  0.00658700  0.26503600  1
  C  1104  1  0.94780000  0.03240200  0.30566900  1
  C  1108  1  0.38653300  0.32535100  0.71134900  1
  C  1109  1  0.37239200  0.34460900  0.67752700  1
  C  1111  1  0.35440600  0.27492700  0.71600100  1
  C  1112  1  0.37715700  0.29000100  0.73068100  1
  C  1116  1  0.71988900  0.25472800  0.06354500  1
  C  1117  1  0.70571600  0.28854000  0.04899600  1
  C  1119  1  0.67419600  0.28409600  0.00459600  1
  C  1120  1  0.68780900  0.25009500  0.01773800  1
  C  1121  1  0.71056600  0.23541700  0.04749000  1
  C  1123  1  0.65096000  0.29847700  0.97530200  1
  C  1124  1  0.60497300  0.32699000  0.91658500  1
  C  1125  1  0.61930700  0.29329800  0.92985300  1
  C  1128  1  0.64223700  0.27872800  0.95949600  1
  C  1132  1  0.61444900  0.34518400  0.93367500  1
  C  1136  1  0.05324500  0.04376700  0.64069900  1
  C  1137  1  0.03908400  0.02921200  0.62143900  1
  C  1139  1  0.00754700  0.98482200  0.67027900  1
  C  1140  1  0.02114000  0.99797500  0.69113400  1
  C  1141  1  0.98431700  0.95552400  0.68519400  1
  C  1142  1  0.93832100  0.89681500  0.71540200  1
  C  1143  1  0.95265500  0.91008400  0.73582200  1
  C  1146  1  0.97557900  0.93972800  0.72074700  1
  C  1149  1  0.94783300  0.91388000  0.68012600  1
  C  1153  1  0.27156400  0.69561500  0.34670100  1
  C  1154  1  0.28592200  0.71604100  0.31302200  1
  C  1156  1  0.30884800  0.70096200  0.29845400  1
  C  1158  1  0.28101000  0.66032300  0.36488700  1
  C  1161  1  0.61202700  0.44618200  0.18332900  1
  C  1162  1  0.59552200  0.41482900  0.18978400  1
  C  1164  1  0.65363900  0.39359600  0.18219300  1
  C  1165  1  0.67165700  0.42438500  0.17575500  1
  C  1166  1  0.65066200  0.45045300  0.17659200  1
  C  1168  1  0.67497700  0.36784800  0.18095700  1
  C  1169  1  0.71839200  0.31753100  0.17743500  1
  C  1170  1  0.73494200  0.34874700  0.17097200  1
  C  1173  1  0.71347500  0.37393700  0.17302700  1
  C  1177  1  0.67986000  0.31285100  0.18514800  1
  C  1181  1  0.94538600  0.16363700  0.32939600  1
  C  1182  1  0.92885600  0.17007800  0.35429600  1
  C  1184  1  0.98695600  0.16249900  0.38314100  1
  C  1185  1  0.00500000  0.15607800  0.35878700  1
  C  1186  1  0.98402700  0.15692400  0.33186800  1
  C  1188  1  0.00827500  0.16126400  0.41013500  1
  C  1189  1  0.05165900  0.15778100  0.46397100  1
  C  1190  1  0.06822600  0.15131100  0.43922800  1
  C  1193  1  0.04677600  0.15335400  0.41197900  1
  C  1197  1  0.01311100  0.16543600  0.46095200  1
  C  1201  1  0.27866400  0.63661300  0.51983100  1
  C  1202  1  0.26217100  0.61178300  0.55122600  1
  C  1204  1  0.32026300  0.58289100  0.57243500  1
  C  1205  1  0.33826500  0.60717200  0.54160200  1
  C  1206  1  0.31727900  0.63408000  0.51552800  1
  C  1208  1  0.34159400  0.55590700  0.59819200  1
  C  1209  1  0.38499700  0.50206900  0.64852600  1
  C  1210  1  0.40152700  0.52675500  0.61726500  1
  C  1213  1  0.38006700  0.55399900  0.59206700  1
  C  1217  1  0.34648600  0.50516900  0.65324100  1
  C  1221  1  0.61202400  0.50010300  0.80246200  1
  C  1222  1  0.59552200  0.53146500  0.79599500  1
  C  1224  1  0.65363900  0.55268200  0.80360800  1
  C  1225  1  0.67165200  0.52188400  0.81005700  1
  C  1226  1  0.65065600  0.49582600  0.80921000  1
  C  1228  1  0.67498000  0.57842800  0.80484100  1
  C  1229  1  0.71841400  0.62875700  0.80832200  1
  C  1230  1  0.73494500  0.59752100  0.81482300  1
  C  1233  1  0.71347500  0.57232800  0.81277900  1
  C  1237  1  0.67987400  0.63343000  0.80063400  1
  C  1241  1  0.94538400  0.78265700  0.65640400  1
  C  1242  1  0.92886100  0.77621200  0.63150400  1
  C  1244  1  0.98697300  0.78378400  0.60267400  1
  C  1245  1  0.00500600  0.79021000  0.62702600  1
  C  1246  1  0.98402400  0.78937600  0.65393400  1
  C  1248  1  0.00829700  0.78502000  0.57568300  1
  C  1249  1  0.05168700  0.78854600  0.52182900  1
  C  1250  1  0.06825400  0.79499200  0.54658600  1
  C  1253  1  0.04679900  0.79293600  0.57384000  1
  C  1257  1  0.01315000  0.78084600  0.52486400  1
  N  25  1  0.80513900  0.29965700  0.63532000  1
  N  27  1  0.82485100  0.22714000  0.71972200  1
  N  28  1  0.84621600  0.24109900  0.73323600  1
  N  32  1  0.75316700  0.23949100  0.62185700  1
  N  35  1  0.85189200  0.61663900  0.32157700  1
  N  42  1  0.82491800  0.71915200  0.26612000  1
  N  43  1  0.84627800  0.70518600  0.25260700  1
  N  44  1  0.90700800  0.60317300  0.26301500  1
  N  53  1  0.89671100  0.36792200  0.42407600  1
  N  54  1  0.87693900  0.34274200  0.44793400  1
  N  56  1  0.76210800  0.28404500  0.49190700  1
  N  57  1  0.90712100  0.47047500  0.31461600  1
  N  76  1  0.78479900  0.36008300  0.40975300  1
  N  78  1  0.82804300  0.41477900  0.35744900  1
  N  94  1  0.15822500  0.69992600  0.01210600  1
  N  98  1  0.51297300  0.98136900  0.72496700  1
  N  233  1  0.18540200  0.64439800  0.96517000  1
  N  241  1  0.13849200  0.61553700  0.02397700  1
  N  243  1  0.17960200  0.71343300  0.98464000  1
  N  246  1  0.24051700  0.70295900  0.89314700  1
  N  247  1  0.08645900  0.60209600  0.09757500  1
  N  250  1  0.51866700  0.94539400  0.34935300  1
  N  259  1  0.47180100  0.00423600  0.31939100  1
  N  261  1  0.49165400  0.99243100  0.24684900  1
  N  262  1  0.51300900  0.96494800  0.26081400  1
  N  266  1  0.57377100  0.87335700  0.36281600  1
  N  267  1  0.41983500  0.07787700  0.25921900  1
  N  270  1  0.85201500  0.32960500  0.66420100  1
  N  275  1  0.90706100  0.34307300  0.72278900  1
  N  278  1  0.18534900  0.30187000  0.02065600  1
  N  287  1  0.13845900  0.33074100  0.96183800  1
  N  289  1  0.15828900  0.24638800  0.97364700  1
  N  290  1  0.17965500  0.23287400  0.00112000  1
  N  294  1  0.24048700  0.24330600  0.09266800  1
  N  295  1  0.08648100  0.34420900  0.88820500  1
  N  298  1  0.51871100  0.00087800  0.63644700  1
  N  305  1  0.47183500  0.94204500  0.66640500  1
  N  307  1  0.49161200  0.95389300  0.73893100  1
  N  311  1  0.57378800  0.07292300  0.62297900  1
  N  312  1  0.41985200  0.86842000  0.72657300  1
  N  315  1  0.80501700  0.64659900  0.35044700  1
  N  320  1  0.75305800  0.70677700  0.36391400  1
  N  323  1  0.11816800  0.39001600  0.18900300  1
  N  332  1  0.16141600  0.33772900  0.18658700  1
  N  334  1  0.23016600  0.40419300  0.16722300  1
  N  335  1  0.21038900  0.42804300  0.16855900  1
  N  339  1  0.09548900  0.47212400  0.18299900  1
  N  340  1  0.24052600  0.29487000  0.17380900  1
  N  343  1  0.45148000  0.16929700  0.37990100  1
  N  352  1  0.49468600  0.16687400  0.43462700  1
  N  354  1  0.56349200  0.14756400  0.38752700  1
  N  355  1  0.54373700  0.14889900  0.36233300  1
  N  359  1  0.42887400  0.16331800  0.30377000  1
  N  360  1  0.57376800  0.15413600  0.49027700  1
  N  363  1  0.78481100  0.58618700  0.57604600  1
  N  372  1  0.82804900  0.53148400  0.62835300  1
  N  374  1  0.89674500  0.57838600  0.56177000  1
  N  375  1  0.87697600  0.60357100  0.53791300  1
  N  379  1  0.76213600  0.66222500  0.49388700  1
  N  380  1  0.90712600  0.47578300  0.67118900  1
  N  383  1  0.11817100  0.55627400  0.79677900  1
  N  392  1  0.16142400  0.60855400  0.79919800  1
  N  394  1  0.23016000  0.54206600  0.81860000  1
  N  395  1  0.21038000  0.51821700  0.81726700  1
  N  399  1  0.09549200  0.47417600  0.80276500  1
  N  400  1  0.24054500  0.65140200  0.81197300  1
  N  403  1  0.45149700  0.77698900  0.60590500  1
  N  412  1  0.49472000  0.77940600  0.55119000  1
  N  414  1  0.56350600  0.79872600  0.59829400  1
  N  415  1  0.54374000  0.79739100  0.62348600  1
  N  419  1  0.42886000  0.78299500  0.68201700  1
  N  420  1  0.57381300  0.79217500  0.49553600  1
  N  445  1  0.55429800  0.29965700  0.63532000  1
  N  447  1  0.57401000  0.22714000  0.71972200  1
  N  448  1  0.59537500  0.24109900  0.73323600  1
  N  452  1  0.50232600  0.23949100  0.62185700  1
  N  455  1  0.60105100  0.61663900  0.32157700  1
  N  462  1  0.57407700  0.71915200  0.26612000  1
  N  463  1  0.59543700  0.70518600  0.25260700  1
  N  464  1  0.65616700  0.60317300  0.26301500  1
  N  473  1  0.64587000  0.36792200  0.42407600  1
  N  474  1  0.62609800  0.34274200  0.44793400  1
  N  476  1  0.51126700  0.28404500  0.49190700  1
  N  477  1  0.65628000  0.47047500  0.31461600  1
  N  496  1  0.53395800  0.36008300  0.40975300  1
  N  498  1  0.57720200  0.41477900  0.35744900  1
  N  514  1  0.90738400  0.69992600  0.01210600  1
  N  518  1  0.26213200  0.98136900  0.72496700  1
  N  653  1  0.93456100  0.64439800  0.96517000  1
  N  661  1  0.88765100  0.61553700  0.02397700  1
  N  663  1  0.92876100  0.71343300  0.98464000  1
  N  666  1  0.98967600  0.70295900  0.89314700  1
  N  667  1  0.83561800  0.60209600  0.09757500  1
  N  670  1  0.26782600  0.94539400  0.34935300  1
  N  679  1  0.22096000  0.00423600  0.31939100  1
  N  681  1  0.24081300  0.99243100  0.24684900  1
  N  682  1  0.26216800  0.96494800  0.26081400  1
  N  686  1  0.32293000  0.87335700  0.36281600  1
  N  687  1  0.16899400  0.07787700  0.25921900  1
  N  690  1  0.60117400  0.32960500  0.66420100  1
  N  695  1  0.65622000  0.34307300  0.72278900  1
  N  698  1  0.93450800  0.30187000  0.02065600  1
  N  707  1  0.88761800  0.33074100  0.96183800  1
  N  709  1  0.90744800  0.24638800  0.97364700  1
  N  710  1  0.92881400  0.23287400  0.00112000  1
  N  714  1  0.98964600  0.24330600  0.09266800  1
  N  715  1  0.83564000  0.34420900  0.88820500  1
  N  718  1  0.26787000  0.00087800  0.63644700  1
  N  725  1  0.22099400  0.94204500  0.66640500  1
  N  727  1  0.24077100  0.95389300  0.73893100  1
  N  731  1  0.32294700  0.07292300  0.62297900  1
  N  732  1  0.16901100  0.86842000  0.72657300  1
  N  735  1  0.55417600  0.64659900  0.35044700  1
  N  740  1  0.50221700  0.70677700  0.36391400  1
  N  743  1  0.86732700  0.39001600  0.18900300  1
  N  752  1  0.91057500  0.33772900  0.18658700  1
  N  754  1  0.97932500  0.40419300  0.16722300  1
  N  755  1  0.95954800  0.42804300  0.16855900  1
  N  759  1  0.84464800  0.47212400  0.18299900  1
  N  760  1  0.98968500  0.29487000  0.17380900  1
  N  763  1  0.20063900  0.16929700  0.37990100  1
  N  772  1  0.24384500  0.16687400  0.43462700  1
  N  774  1  0.31265100  0.14756400  0.38752700  1
  N  775  1  0.29289600  0.14889900  0.36233300  1
  N  779  1  0.17803300  0.16331800  0.30377000  1
  N  780  1  0.32292700  0.15413600  0.49027700  1
  N  783  1  0.53397000  0.58618700  0.57604600  1
  N  792  1  0.57720800  0.53148400  0.62835300  1
  N  794  1  0.64590400  0.57838600  0.56177000  1
  N  795  1  0.62613500  0.60357100  0.53791300  1
  N  799  1  0.51129500  0.66222500  0.49388700  1
  N  800  1  0.65628500  0.47578300  0.67118900  1
  N  803  1  0.86733000  0.55627400  0.79677900  1
  N  812  1  0.91058300  0.60855400  0.79919800  1
  N  814  1  0.97931900  0.54206600  0.81860000  1
  N  815  1  0.95953900  0.51821700  0.81726700  1
  N  819  1  0.84465100  0.47417600  0.80276500  1
  N  820  1  0.98970400  0.65140200  0.81197300  1
  N  823  1  0.20065600  0.77698900  0.60590500  1
  N  832  1  0.24387900  0.77940600  0.55119000  1
  N  834  1  0.31266500  0.79872600  0.59829400  1
  N  835  1  0.29289900  0.79739100  0.62348600  1
  N  839  1  0.17801900  0.78299500  0.68201700  1
  N  840  1  0.32297200  0.79217500  0.49553600  1
  N  865  1  0.30345700  0.29965700  0.63532000  1
  N  867  1  0.32316900  0.22714000  0.71972200  1
  N  868  1  0.34453400  0.24109900  0.73323600  1
  N  872  1  0.25148500  0.23949100  0.62185700  1
  N  875  1  0.35021000  0.61663900  0.32157700  1
  N  882  1  0.32323600  0.71915200  0.26612000  1
  N  883  1  0.34459600  0.70518600  0.25260700  1
  N  884  1  0.40532600  0.60317300  0.26301500  1
  N  893  1  0.39502900  0.36792200  0.42407600  1
  N  894  1  0.37525700  0.34274200  0.44793400  1
  N  896  1  0.26042600  0.28404500  0.49190700  1
  N  897  1  0.40543900  0.47047500  0.31461600  1
  N  916  1  0.28311700  0.36008300  0.40975300  1
  N  918  1  0.32636100  0.41477900  0.35744900  1
  N  934  1  0.65654300  0.69992600  0.01210600  1
  N  938  1  0.01129100  0.98136900  0.72496700  1
  N  1073  1  0.68372000  0.64439800  0.96517000  1
  N  1081  1  0.63681000  0.61553700  0.02397700  1
  N  1083  1  0.67792000  0.71343300  0.98464000  1
  N  1086  1  0.73883500  0.70295900  0.89314700  1
  N  1087  1  0.58477700  0.60209600  0.09757500  1
  N  1090  1  0.01698500  0.94539400  0.34935300  1
  N  1099  1  0.97011900  0.00423600  0.31939100  1
  N  1101  1  0.98997200  0.99243100  0.24684900  1
  N  1102  1  0.01132700  0.96494800  0.26081400  1
  N  1106  1  0.07208900  0.87335700  0.36281600  1
  N  1107  1  0.91815300  0.07787700  0.25921900  1
  N  1110  1  0.35033300  0.32960500  0.66420100  1
  N  1115  1  0.40537900  0.34307300  0.72278900  1
  N  1118  1  0.68366700  0.30187000  0.02065600  1
  N  1127  1  0.63677700  0.33074100  0.96183800  1
  N  1129  1  0.65660700  0.24638800  0.97364700  1
  N  1130  1  0.67797300  0.23287400  0.00112000  1
  N  1134  1  0.73880500  0.24330600  0.09266800  1
  N  1135  1  0.58479900  0.34420900  0.88820500  1
  N  1138  1  0.01702900  0.00087800  0.63644700  1
  N  1145  1  0.97015300  0.94204500  0.66640500  1
  N  1147  1  0.98993000  0.95389300  0.73893100  1
  N  1151  1  0.07210600  0.07292300  0.62297900  1
  N  1152  1  0.91817000  0.86842000  0.72657300  1
  N  1155  1  0.30333500  0.64659900  0.35044700  1
  N  1160  1  0.25137600  0.70677700  0.36391400  1
  N  1163  1  0.61648600  0.39001600  0.18900300  1
  N  1172  1  0.65973400  0.33772900  0.18658700  1
  N  1174  1  0.72848400  0.40419300  0.16722300  1
  N  1175  1  0.70870700  0.42804300  0.16855900  1
  N  1179  1  0.59380700  0.47212400  0.18299900  1
  N  1180  1  0.73884400  0.29487000  0.17380900  1
  N  1183  1  0.94979800  0.16929700  0.37990100  1
  N  1192  1  0.99300397  0.16687400  0.43462700  1
  N  1194  1  0.06181000  0.14756400  0.38752700  1
  N  1195  1  0.04205500  0.14889900  0.36233300  1
  N  1199  1  0.92719200  0.16331800  0.30377000  1
  N  1200  1  0.07208600  0.15413600  0.49027700  1
  N  1203  1  0.28312900  0.58618700  0.57604600  1
  N  1212  1  0.32636700  0.53148400  0.62835300  1
  N  1214  1  0.39506300  0.57838600  0.56177000  1
  N  1215  1  0.37529400  0.60357100  0.53791300  1
  N  1219  1  0.26045400  0.66222500  0.49388700  1
  N  1220  1  0.40544400  0.47578300  0.67118900  1
  N  1223  1  0.61648900  0.55627400  0.79677900  1
  N  1232  1  0.65974200  0.60855400  0.79919800  1
  N  1234  1  0.72847800  0.54206600  0.81860000  1
  N  1235  1  0.70869800  0.51821700  0.81726700  1
  N  1239  1  0.59381000  0.47417600  0.80276500  1
  N  1240  1  0.73886300  0.65140200  0.81197300  1
  N  1243  1  0.94981500  0.77698900  0.60590500  1
  N  1252  1  0.99303797  0.77940600  0.55119000  1
  N  1254  1  0.06182400  0.79872600  0.59829400  1
  N  1255  1  0.04205800  0.79739100  0.62348600  1
  N  1259  1  0.92717800  0.78299500  0.68201700  1
  N  1260  1  0.07213100  0.79217500  0.49553600  1
