# generated using pymatgen
data_H5C8
_symmetry_space_group_name_H-M   'P 1'
_cell_length_a   41.11100000
_cell_length_b   75.26660000
_cell_length_c   75.26660000
_cell_angle_alpha   90.00000000
_cell_angle_beta   90.00000000
_cell_angle_gamma   90.00000000
_symmetry_Int_Tables_number   1
_chemical_formula_structural   H5C8
_chemical_formula_sum   'H480 C768'
_cell_volume   232896.32587735
_cell_formula_units_Z   96
loop_
 _symmetry_equiv_pos_site_id
 _symmetry_equiv_pos_as_xyz
  1  'x, y, z'
loop_
 _atom_site_type_symbol
 _atom_site_label
 _atom_site_symmetry_multiplicity
 _atom_site_fract_x
 _atom_site_fract_y
 _atom_site_fract_z
 _atom_site_occupancy
  H  25  1  0.13937000  0.11078400  0.29627500  1
  H  26  1  0.09189800  0.09246400  0.29657100  1
  H  27  1  0.09790400  0.14342600  0.33582800  1
  H  28  1  0.05105600  0.12503300  0.33642300  1
  H  29  1  0.96263000  0.12540400  0.33720100  1
  H  30  1  0.91564700  0.14374500  0.33660500  1
  H  31  1  0.92027100  0.09161000  0.29887500  1
  H  32  1  0.87283100  0.10991000  0.29850300  1
  H  33  1  0.96289500  0.04534100  0.30133000  1
  H  34  1  0.96222300  0.01376200  0.30186300  1
  H  35  1  0.05053700  0.01357400  0.33028100  1
  H  36  1  0.05027600  0.04514900  0.33085900  1
  H  37  1  0.05777100  0.07146400  0.31487300  1
  H  38  1  0.00623600  0.11938900  0.31560600  1
  H  39  1  0.95553400  0.07127200  0.31839500  1
  H  64  1  0.13928500  0.89152900  0.70648800  1
  H  65  1  0.09178800  0.90983300  0.70622700  1
  H  66  1  0.09780100  0.85890400  0.66692700  1
  H  67  1  0.05092800  0.87728100  0.66636600  1
  H  68  1  0.96251000  0.87685000  0.66565900  1
  H  69  1  0.91557900  0.85847100  0.66629800  1
  H  70  1  0.92015900  0.91062600  0.70400200  1
  H  71  1  0.87276800  0.89229400  0.70441500  1
  H  72  1  0.96273200  0.95692700  0.70153300  1
  H  73  1  0.96204800  0.98850500  0.70101600  1
  H  74  1  0.05031900  0.98871400  0.67255700  1
  H  75  1  0.05006600  0.95714100  0.67196500  1
  H  76  1  0.05761100  0.93083200  0.68794300  1
  H  77  1  0.00613900  0.88288900  0.68722300  1
  H  78  1  0.95536600  0.93098700  0.68447600  1
  H  103  1  0.14015700  0.70401000  0.11044100  1
  H  104  1  0.09287300  0.70360400  0.09201300  1
  H  105  1  0.09708000  0.66593400  0.14420200  1
  H  106  1  0.05027400  0.66529500  0.12573100  1
  H  107  1  0.96184900  0.66611500  0.12527400  1
  H  108  1  0.91483500  0.66666667  0.14354600  1
  H  109  1  0.92127300  0.70605000  0.09270000  1
  H  110  1  0.87365600  0.70630800  0.11090400  1
  H  111  1  0.96270700  0.67159300  0.04555200  1
  H  112  1  0.96214100  0.67221200  0.01398700  1
  H  113  1  0.05045900  0.70063000  0.01396300  1
  H  114  1  0.05009200  0.70111600  0.04555100  1
  H  115  1  0.05755100  0.68411000  0.07158100  1
  H  116  1  0.00679300  0.68693200  0.11969300  1
  H  117  1  0.95531500  0.68768800  0.07176300  1
  H  142  1  0.13931200  0.29602300  0.89178200  1
  H  143  1  0.09184200  0.29632500  0.91011000  1
  H  144  1  0.09789400  0.33561800  0.85917600  1
  H  145  1  0.05105100  0.33622200  0.87757300  1
  H  146  1  0.96258300  0.33700500  0.87719500  1
  H  147  1  0.91560800  0.33640400  0.85884600  1
  H  148  1  0.92025400  0.29864000  0.91095700  1
  H  149  1  0.87282400  0.29826300  0.89265300  1
  H  150  1  0.96285100  0.30106500  0.95722700  1
  H  151  1  0.96216700  0.30158100  0.98880700  1
  H  152  1  0.05046700  0.33001100  0.98901900  1
  H  153  1  0.05021900  0.33060500  0.95744500  1
  H  154  1  0.05773400  0.31462400  0.93112000  1
  H  155  1  0.00620600  0.31540300  0.88319300  1
  H  156  1  0.95549500  0.31815100  0.93131000  1
  H  181  1  0.87391100  0.89045100  0.29637200  1
  H  182  1  0.92105200  0.90904200  0.29664600  1
  H  183  1  0.91488600  0.85889500  0.33695800  1
  H  184  1  0.96142300  0.87753200  0.33748400  1
  H  185  1  0.04989600  0.87712600  0.33824700  1
  H  186  1  0.09648700  0.85847900  0.33764100  1
  H  187  1  0.09179200  0.90985400  0.29886000  1
  H  188  1  0.13881600  0.89123200  0.29843100  1
  H  189  1  0.04966300  0.95667400  0.30147900  1
  H  190  1  0.05034300  0.98825700  0.30191100  1
  H  191  1  0.96200700  0.98854100  0.33030700  1
  H  192  1  0.96226000  0.95697200  0.33098600  1
  H  193  1  0.95474400  0.93058600  0.31512000  1
  H  194  1  0.00626400  0.88266800  0.31629300  1
  H  195  1  0.05703600  0.93078800  0.31860500  1
  H  220  1  0.87383300  0.11187700  0.70660000  1
  H  221  1  0.92093800  0.09326100  0.70629000  1
  H  222  1  0.91481500  0.14345400  0.66603400  1
  H  223  1  0.96131400  0.12479100  0.66546800  1
  H  224  1  0.04978000  0.12513300  0.66463500  1
  H  225  1  0.09641200  0.14375000  0.66520200  1
  H  226  1  0.09169400  0.09238700  0.70400200  1
  H  227  1  0.13875900  0.11098200  0.70439500  1
  H  228  1  0.04951100  0.04559200  0.70139100  1
  H  229  1  0.05017900  0.01401200  0.70094200  1
  H  230  1  0.96178100  0.01375100  0.67260400  1
  H  231  1  0.96204100  0.04532200  0.67194100  1
  H  232  1  0.95459000  0.07171600  0.68780500  1
  H  233  1  0.00618000  0.11961300  0.68662100  1
  H  234  1  0.05687400  0.07147300  0.68426400  1
  H  259  1  0.87390200  0.29601300  0.11216900  1
  H  260  1  0.92101800  0.29632300  0.09355800  1
  H  261  1  0.91483200  0.33662000  0.14371600  1
  H  262  1  0.96134000  0.33718200  0.12505800  1
  H  263  1  0.04983000  0.33798100  0.12543200  1
  H  264  1  0.09646200  0.33741800  0.14404900  1
  H  265  1  0.09174300  0.29860100  0.09269900  1
  H  266  1  0.13880600  0.29821200  0.11129400  1
  H  267  1  0.04957600  0.30118400  0.04590700  1
  H  268  1  0.05027000  0.30162300  0.01432700  1
  H  269  1  0.96192200  0.33001000  0.01403600  1
  H  270  1  0.96216000  0.33068100  0.04560700  1
  H  271  1  0.95465900  0.31481600  0.07200100  1
  H  272  1  0.00621000  0.31601000  0.11991000  1
  H  273  1  0.05694800  0.31833100  0.07178200  1
  H  298  1  0.87303300  0.70403500  0.89141400  1
  H  299  1  0.91995500  0.70362200  0.91012400  1
  H  300  1  0.91564000  0.66487500  0.85871300  1
  H  301  1  0.96210700  0.66427800  0.87744800  1
  H  302  1  0.05055500  0.66519000  0.87783600  1
  H  303  1  0.09721900  0.66570500  0.85929100  1
  H  304  1  0.09068000  0.70608600  0.90936800  1
  H  305  1  0.13793300  0.70635700  0.89086700  1
  H  306  1  0.04982400  0.67155200  0.95715300  1
  H  307  1  0.05040300  0.67223700  0.98871200  1
  H  308  1  0.96198000  0.70055500  0.98869300  1
  H  309  1  0.96232800  0.70097900  0.95710100  1
  H  310  1  0.95486800  0.68391600  0.93112400  1
  H  311  1  0.00556900  0.68632500  0.88297400  1
  H  312  1  0.05714500  0.68753900  0.93086200  1
  H  337  1  0.63812500  0.61177100  0.79608800  1
  H  338  1  0.59094100  0.59322600  0.79646000  1
  H  339  1  0.59752100  0.64337300  0.83675100  1
  H  340  1  0.55093000  0.62477800  0.83737200  1
  H  341  1  0.46245700  0.62515100  0.83839100  1
  H  342  1  0.41590000  0.64382600  0.83789900  1
  H  343  1  0.42023800  0.59249800  0.79904300  1
  H  344  1  0.37324800  0.61115300  0.79873000  1
  H  345  1  0.46240900  0.54561900  0.80157900  1
  H  346  1  0.46176400  0.51403600  0.80200900  1
  H  347  1  0.55025100  0.51377700  0.83026900  1
  H  348  1  0.54997200  0.54534600  0.83094500  1
  H  349  1  0.55739300  0.57170800  0.81501900  1
  H  350  1  0.50590600  0.61963400  0.81630300  1
  H  351  1  0.45512600  0.57151900  0.81872700  1
  H  376  1  0.63853400  0.39035800  0.20656600  1
  H  377  1  0.59143500  0.40897600  0.20626700  1
  H  378  1  0.59757700  0.35883000  0.16595400  1
  H  379  1  0.55107800  0.37749700  0.16540000  1
  H  380  1  0.46259400  0.37717900  0.16457000  1
  H  381  1  0.41595900  0.35856700  0.16514100  1
  H  382  1  0.42073400  0.40989400  0.20398300  1
  H  383  1  0.37367300  0.39130400  0.20437900  1
  H  384  1  0.46299200  0.45670600  0.20138600  1
  H  385  1  0.46238700  0.48828800  0.20094600  1
  H  386  1  0.55072600  0.48850200  0.17254500  1
  H  387  1  0.55039700  0.45693300  0.17187800  1
  H  388  1  0.55784300  0.43054800  0.18776900  1
  H  389  1  0.50620700  0.38266800  0.18656200  1
  H  390  1  0.45555400  0.43082600  0.18424400  1
  H  415  1  0.63853900  0.20627900  0.61219200  1
  H  416  1  0.59143000  0.20598100  0.59357800  1
  H  417  1  0.59756700  0.16569000  0.64374300  1
  H  418  1  0.55106400  0.16513600  0.62508200  1
  H  419  1  0.46260600  0.16431700  0.62544500  1
  H  420  1  0.41598100  0.16487900  0.64406500  1
  H  421  1  0.42067300  0.20369300  0.59271500  1
  H  422  1  0.37362000  0.20408000  0.61131300  1
  H  423  1  0.46282500  0.20109900  0.54591800  1
  H  424  1  0.46212200  0.20065300  0.51433700  1
  H  425  1  0.55051400  0.17230600  0.51404600  1
  H  426  1  0.55028300  0.17163900  0.54561500  1
  H  427  1  0.55777000  0.18749900  0.57201600  1
  H  428  1  0.50621200  0.18630200  0.61992300  1
  H  429  1  0.45548100  0.18397100  0.57179400  1
  H  454  1  0.63838600  0.79609400  0.39073100  1
  H  455  1  0.59123300  0.79633500  0.40931200  1
  H  456  1  0.59738900  0.83670100  0.35920700  1
  H  457  1  0.55083500  0.83719200  0.37783300  1
  H  458  1  0.46235800  0.83791100  0.37741700  1
  H  459  1  0.41577400  0.83728900  0.35876700  1
  H  460  1  0.42048600  0.79852200  0.41015400  1
  H  461  1  0.37346900  0.79807900  0.39153000  1
  H  462  1  0.46268600  0.80117100  0.45700000  1
  H  463  1  0.46210000  0.80159900  0.48858500  1
  H  464  1  0.55042900  0.83000500  0.48879300  1
  H  465  1  0.55007900  0.83068900  0.45722700  1
  H  466  1  0.55755600  0.81480700  0.43086100  1
  H  467  1  0.50600300  0.81597300  0.38295800  1
  H  468  1  0.45526000  0.81826600  0.43109000  1
  H  493  1  0.37299700  0.39148900  0.79632400  1
  H  494  1  0.42045900  0.40982200  0.79662200  1
  H  495  1  0.41448000  0.35886000  0.83588100  1
  H  496  1  0.46131400  0.37726300  0.83648200  1
  H  497  1  0.54976200  0.37693500  0.83728000  1
  H  498  1  0.59674200  0.35858900  0.83667000  1
  H  499  1  0.59206000  0.41070800  0.79891900  1
  H  500  1  0.63950000  0.39240700  0.79853000  1
  H  501  1  0.54936800  0.45698100  0.80135200  1
  H  502  1  0.54997600  0.48856100  0.80186900  1
  H  503  1  0.46171100  0.48871000  0.83033300  1
  H  504  1  0.46203400  0.45713500  0.83092300  1
  H  505  1  0.45455400  0.43082200  0.81491800  1
  H  506  1  0.50614600  0.38291800  0.81567100  1
  H  507  1  0.55679200  0.43105600  0.81843800  1
  H  532  1  0.37342800  0.61063600  0.20677600  1
  H  533  1  0.42098700  0.59238100  0.20641800  1
  H  534  1  0.41456000  0.64332500  0.16715800  1
  H  535  1  0.46149700  0.62500000  0.16650400  1
  H  536  1  0.54993300  0.62540900  0.16554400  1
  H  537  1  0.59681500  0.64382900  0.16609900  1
  H  538  1  0.59258500  0.59168400  0.20382800  1
  H  539  1  0.63993500  0.61006000  0.20415700  1
  H  540  1  0.54997600  0.54533600  0.20144700  1
  H  541  1  0.55061100  0.51375500  0.20093400  1
  H  542  1  0.46219500  0.51357900  0.17260900  1
  H  543  1  0.46248400  0.54515200  0.17201500  1
  H  544  1  0.45503600  0.57143300  0.18805700  1
  H  545  1  0.50648000  0.61938400  0.18723300  1
  H  546  1  0.55725400  0.57128900  0.18436200  1
  H  571  1  0.37316300  0.79606900  0.61102200  1
  H  572  1  0.42068800  0.79630700  0.59273200  1
  H  573  1  0.41463600  0.83565100  0.64362700  1
  H  574  1  0.46153500  0.83618300  0.62527100  1
  H  575  1  0.54997900  0.83683800  0.62572400  1
  H  576  1  0.59690500  0.83617900  0.64410700  1
  H  577  1  0.59231500  0.79851600  0.59191900  1
  H  578  1  0.63970900  0.79808500  0.61025600  1
  H  579  1  0.54967700  0.80101300  0.54560600  1
  H  580  1  0.55027300  0.80152700  0.51402500  1
  H  581  1  0.46201700  0.83000200  0.51388700  1
  H  582  1  0.46236000  0.83059800  0.54545900  1
  H  583  1  0.45484600  0.81460100  0.57174400  1
  H  584  1  0.50633400  0.81529800  0.61967700  1
  H  585  1  0.55709400  0.81804300  0.57157200  1
  H  610  1  0.37303600  0.20625900  0.39178500  1
  H  611  1  0.42049800  0.20596100  0.41011800  1
  H  612  1  0.41451400  0.16669300  0.35916500  1
  H  613  1  0.46134600  0.16609500  0.37757000  1
  H  614  1  0.54977200  0.16534000  0.37718300  1
  H  615  1  0.59674200  0.16594400  0.35883100  1
  H  616  1  0.59212300  0.20368300  0.41096100  1
  H  617  1  0.63955600  0.20406000  0.39265000  1
  H  618  1  0.54953400  0.20124200  0.45723000  1
  H  619  1  0.55023900  0.20072300  0.48880700  1
  H  620  1  0.46192900  0.17230000  0.48903100  1
  H  621  1  0.46215800  0.17171000  0.45745700  1
  H  622  1  0.45463900  0.18767000  0.43112800  1
  H  623  1  0.50615600  0.18692600  0.38319700  1
  H  624  1  0.55688200  0.18416700  0.43130600  1
  H  649  1  0.18770200  0.12154000  0.31727100  1
  H  650  1  0.23247800  0.14180900  0.31596100  1
  H  651  1  0.12230900  0.16448100  0.31223800  1
  H  652  1  0.16678600  0.18465600  0.31123200  1
  H  653  1  0.20490800  0.22063400  0.28286800  1
  H  654  1  0.20490400  0.24205700  0.26000800  1
  H  655  1  0.30758200  0.21967400  0.28191100  1
  H  656  1  0.30758900  0.24254200  0.26049500  1
  H  657  1  0.34568800  0.19128800  0.31790600  1
  H  658  1  0.39014600  0.19028400  0.33809400  1
  H  659  1  0.32470800  0.18527200  0.38101600  1
  H  660  1  0.27995200  0.18657800  0.36073200  1
  H  661  1  0.25622300  0.16766000  0.33488000  1
  H  662  1  0.21395400  0.19070100  0.28970100  1
  H  663  1  0.29853100  0.21283200  0.31184500  1
  H  688  1  0.18759500  0.88081200  0.68545800  1
  H  689  1  0.23240000  0.86056000  0.68674000  1
  H  690  1  0.12226400  0.83784300  0.69049100  1
  H  691  1  0.16676800  0.81768600  0.69146800  1
  H  692  1  0.20498900  0.78170800  0.71983600  1
  H  693  1  0.20508500  0.76028700  0.74270300  1
  H  694  1  0.30766200  0.78279000  0.72077900  1
  H  695  1  0.30777600  0.75992600  0.74219700  1
  H  696  1  0.34564900  0.81114200  0.68485000  1
  H  697  1  0.39016300  0.81211600  0.66470100  1
  H  698  1  0.32485200  0.81708500  0.62171400  1
  H  699  1  0.28003400  0.81580300  0.64196000  1
  H  700  1  0.25618900  0.83472500  0.66781400  1
  H  701  1  0.21394700  0.81166200  0.71299400  1
  H  702  1  0.29854800  0.78956700  0.69084400  1
  H  727  1  0.18777900  0.68358800  0.12198100  1
  H  728  1  0.23237500  0.68538800  0.14229300  1
  H  729  1  0.12206700  0.68954600  0.16465600  1
  H  730  1  0.16639200  0.69098400  0.18489700  1
  H  731  1  0.20456000  0.71945900  0.22086600  1
  H  732  1  0.20456700  0.74238500  0.24222300  1
  H  733  1  0.30722900  0.72045100  0.21986300  1
  H  734  1  0.30725100  0.74192300  0.24266400  1
  H  735  1  0.34544700  0.68444300  0.19171900  1
  H  736  1  0.39007500  0.66436800  0.19071000  1
  H  737  1  0.32498800  0.62126500  0.18587300  1
  H  738  1  0.28006800  0.64143100  0.18719500  1
  H  739  1  0.25609700  0.66709400  0.16823100  1
  H  740  1  0.21352700  0.71234500  0.19097100  1
  H  741  1  0.29828700  0.69051600  0.21321400  1
  H  766  1  0.18766000  0.31699700  0.88103600  1
  H  767  1  0.23242900  0.31568100  0.86076200  1
  H  768  1  0.12224700  0.31201900  0.83809800  1
  H  769  1  0.16671700  0.31100500  0.81791900  1
  H  770  1  0.20483500  0.28259800  0.78193700  1
  H  771  1  0.20483800  0.25973100  0.76051800  1
  H  772  1  0.30750900  0.28163400  0.78291200  1
  H  773  1  0.30752300  0.26021200  0.76004900  1
  H  774  1  0.34561800  0.31761500  0.81127800  1
  H  775  1  0.39009000  0.33779400  0.81228900  1
  H  776  1  0.32468700  0.38073100  0.81731400  1
  H  777  1  0.27991500  0.36045900  0.81599800  1
  H  778  1  0.25617200  0.33460800  0.83491500  1
  H  779  1  0.21387000  0.28944100  0.81187200  1
  H  780  1  0.29846500  0.31156900  0.78974200  1
  H  805  1  0.82539400  0.88005700  0.31694800  1
  H  806  1  0.78085400  0.85969500  0.31566100  1
  H  807  1  0.89122800  0.83712100  0.31393700  1
  H  808  1  0.84688700  0.81681800  0.31301000  1
  H  809  1  0.79900000  0.77196600  0.29396400  1
  H  810  1  0.79843300  0.74925200  0.27202500  1
  H  811  1  0.71313000  0.79366000  0.27232000  1
  H  812  1  0.71353300  0.77167900  0.24964500  1
  H  813  1  0.66540800  0.81277400  0.31712100  1
  H  814  1  0.62106400  0.81370400  0.33742200  1
  H  815  1  0.68689600  0.81668300  0.38036300  1
  H  816  1  0.73143900  0.81539000  0.36000200  1
  H  817  1  0.75616400  0.83455100  0.33482900  1
  H  818  1  0.80113300  0.80953600  0.29128200  1
  H  819  1  0.71109600  0.79100400  0.30987600  1
  H  844  1  0.82530600  0.12232200  0.68604700  1
  H  845  1  0.78080500  0.14270700  0.68736000  1
  H  846  1  0.89121800  0.16521900  0.68909100  1
  H  847  1  0.84691600  0.18554600  0.69004600  1
  H  848  1  0.79914800  0.23040400  0.70911200  1
  H  849  1  0.79866100  0.25310600  0.73106200  1
  H  850  1  0.71317800  0.20880300  0.73072300  1
  H  851  1  0.71366000  0.23076800  0.75341100  1
  H  852  1  0.66542500  0.18970600  0.68585400  1
  H  853  1  0.62113500  0.18874900  0.66551900  1
  H  854  1  0.68707800  0.18572300  0.62263500  1
  H  855  1  0.73156500  0.18703800  0.64302900  1
  H  856  1  0.75617900  0.16787800  0.66820400  1
  H  857  1  0.80116200  0.19284800  0.71176700  1
  H  858  1  0.71117200  0.21144000  0.69316300  1
  H  883  1  0.82535000  0.31656300  0.12259600  1
  H  884  1  0.78085100  0.31523700  0.14298100  1
  H  885  1  0.89126700  0.31356300  0.16549600  1
  H  886  1  0.84696200  0.31259400  0.18582200  1
  H  887  1  0.79917700  0.29348900  0.23068000  1
  H  888  1  0.79868100  0.27153100  0.25337400  1
  H  889  1  0.71323700  0.27186700  0.20905000  1
  H  890  1  0.71371300  0.24917300  0.23100800  1
  H  891  1  0.66546400  0.31672000  0.18995400  1
  H  892  1  0.62116200  0.33704700  0.18899900  1
  H  893  1  0.68707800  0.37994600  0.18600300  1
  H  894  1  0.73157700  0.35956100  0.18731800  1
  H  895  1  0.75621300  0.33439900  0.16814900  1
  H  896  1  0.80122500  0.29084400  0.19311900  1
  H  897  1  0.71120600  0.30941600  0.21170000  1
  H  922  1  0.82519700  0.68399400  0.88020700  1
  H  923  1  0.78088500  0.68582000  0.85977700  1
  H  924  1  0.89144200  0.68797200  0.83754200  1
  H  925  1  0.84729800  0.68937600  0.81714500  1
  H  926  1  0.79962700  0.70863500  0.77230200  1
  H  927  1  0.79909900  0.73062200  0.74963800  1
  H  928  1  0.71357700  0.73014100  0.79391100  1
  H  929  1  0.71401500  0.75286300  0.77198300  1
  H  930  1  0.66566300  0.68535700  0.81279400  1
  H  931  1  0.62120100  0.66513200  0.81374100  1
  H  932  1  0.68679100  0.62207000  0.81655900  1
  H  933  1  0.73143900  0.64235000  0.81524400  1
  H  934  1  0.75627600  0.66730000  0.83447000  1
  H  935  1  0.80160700  0.71096000  0.80985300  1
  H  936  1  0.71146800  0.69270500  0.79112000  1
  H  961  1  0.82506600  0.88093400  0.68402600  1
  H  962  1  0.78027700  0.86075700  0.68582800  1
  H  963  1  0.89037400  0.83804900  0.68981500  1
  H  964  1  0.84585800  0.81793800  0.69123400  1
  H  965  1  0.80770800  0.78200000  0.71944900  1
  H  966  1  0.80782000  0.76060100  0.74232300  1
  H  967  1  0.70504400  0.78301200  0.72059600  1
  H  968  1  0.70513400  0.76015300  0.74201600  1
  H  969  1  0.66666667  0.81124700  0.68462900  1
  H  970  1  0.62212200  0.81265300  0.66452600  1
  H  971  1  0.68739400  0.81845600  0.62162700  1
  H  972  1  0.73220000  0.81667200  0.64179600  1
  H  973  1  0.75622300  0.83500100  0.66752300  1
  H  974  1  0.79878100  0.81189300  0.71256700  1
  H  975  1  0.71381100  0.78993900  0.69068400  1
  H  1000  1  0.82515600  0.12122000  0.31891600  1
  H  1001  1  0.78030900  0.14136400  0.31714300  1
  H  1002  1  0.89034200  0.16416200  0.31312200  1
  H  1003  1  0.84577000  0.18423800  0.31173500  1
  H  1004  1  0.80751600  0.22014600  0.28352400  1
  H  1005  1  0.80753700  0.24155200  0.26065500  1
  H  1006  1  0.70485200  0.21903100  0.28239900  1
  H  1007  1  0.70485000  0.24189800  0.26099000  1
  H  1008  1  0.66658700  0.19081000  0.31832100  1
  H  1009  1  0.62202500  0.18942700  0.33840400  1
  H  1010  1  0.68723400  0.18365100  0.38133800  1
  H  1011  1  0.73206900  0.18542000  0.36118700  1
  H  1012  1  0.75618100  0.16710100  0.33545700  1
  H  1013  1  0.79867600  0.19023700  0.29040500  1
  H  1014  1  0.71368400  0.21214500  0.31230900  1
  H  1039  1  0.82513900  0.31866100  0.88135400  1
  H  1040  1  0.78029400  0.31689000  0.86120800  1
  H  1041  1  0.89033000  0.31292200  0.83840700  1
  H  1042  1  0.84575800  0.31153400  0.81833000  1
  H  1043  1  0.80749100  0.28327800  0.78243100  1
  H  1044  1  0.80750600  0.26040100  0.76103400  1
  H  1045  1  0.70483000  0.28216200  0.78355000  1
  H  1046  1  0.70481600  0.26074700  0.76069000  1
  H  1047  1  0.66657000  0.31808300  0.81177600  1
  H  1048  1  0.62200600  0.33816300  0.81317500  1
  H  1049  1  0.68721400  0.38110000  0.81893300  1
  H  1050  1  0.73204900  0.36095200  0.81715000  1
  H  1051  1  0.75616900  0.33522200  0.83547400  1
  H  1052  1  0.79866600  0.29017500  0.81233500  1
  H  1053  1  0.71365500  0.31206800  0.79043900  1
  H  1078  1  0.82526500  0.68535600  0.12141100  1
  H  1079  1  0.78025800  0.68662700  0.14152500  1
  H  1080  1  0.89017200  0.69010700  0.16460800  1
  H  1081  1  0.84546400  0.69105700  0.18462800  1
  H  1082  1  0.80726700  0.71922000  0.22056300  1
  H  1083  1  0.80728900  0.74203100  0.24202600  1
  H  1084  1  0.70459700  0.72031300  0.21947600  1
  H  1085  1  0.70459700  0.74167100  0.24240200  1
  H  1086  1  0.66643900  0.68444200  0.19102400  1
  H  1087  1  0.62201500  0.66426700  0.18962600  1
  H  1088  1  0.68750900  0.62149000  0.18366200  1
  H  1089  1  0.73221000  0.64173500  0.18543300  1
  H  1090  1  0.75611300  0.66765800  0.16715900  1
  H  1091  1  0.79836000  0.71260700  0.19061600  1
  H  1092  1  0.71352600  0.69041000  0.21240100  1
  H  1117  1  0.18663800  0.12196600  0.68440100  1
  H  1118  1  0.23119700  0.14223000  0.68618600  1
  H  1119  1  0.12091900  0.16489800  0.68816300  1
  H  1120  1  0.16531300  0.18513100  0.68950400  1
  H  1121  1  0.21319700  0.22981300  0.70853800  1
  H  1122  1  0.21366700  0.25250500  0.73049800  1
  H  1123  1  0.29918500  0.20822300  0.73014200  1
  H  1124  1  0.29869800  0.23018800  0.75283000  1
  H  1125  1  0.34708000  0.18917400  0.68545700  1
  H  1126  1  0.39147200  0.18783600  0.66522100  1
  H  1127  1  0.32574200  0.18407500  0.62229200  1
  H  1128  1  0.28119000  0.18585800  0.64256000  1
  H  1129  1  0.25619400  0.16729200  0.66762600  1
  H  1130  1  0.21101100  0.19238700  0.71104100  1
  H  1131  1  0.30138100  0.21071200  0.69271000  1
  H  1156  1  0.18672300  0.88020700  0.31841400  1
  H  1157  1  0.23122900  0.85991000  0.31659600  1
  H  1158  1  0.12089300  0.83732800  0.31463800  1
  H  1159  1  0.16523600  0.81706300  0.31326300  1
  H  1160  1  0.21299300  0.77236100  0.29419400  1
  H  1161  1  0.21338700  0.74968200  0.27222000  1
  H  1162  1  0.29907100  0.79386500  0.27261900  1
  H  1163  1  0.29851100  0.77191800  0.24991700  1
  H  1164  1  0.34701100  0.81290800  0.31735100  1
  H  1165  1  0.39136900  0.81427500  0.33761100  1
  H  1166  1  0.32556200  0.81804700  0.38050100  1
  H  1167  1  0.28104600  0.81624100  0.36021200  1
  H  1168  1  0.25615000  0.83482500  0.33514900  1
  H  1169  1  0.21092400  0.80977600  0.29172200  1
  H  1170  1  0.30125700  0.79138700  0.31005000  1
  H  1195  1  0.18651300  0.68583600  0.88067400  1
  H  1196  1  0.23124900  0.68710400  0.86044700  1
  H  1197  1  0.12110300  0.68860400  0.83752400  1
  H  1198  1  0.16564600  0.68949200  0.81735500  1
  H  1199  1  0.21364100  0.70834200  0.77263200  1
  H  1200  1  0.21407000  0.73026600  0.74990100  1
  H  1201  1  0.29950400  0.73008400  0.79424000  1
  H  1202  1  0.29897100  0.75273500  0.77223500  1
  H  1203  1  0.34727200  0.68534000  0.81353100  1
  H  1204  1  0.39151000  0.66500600  0.81489200  1
  H  1205  1  0.32546700  0.62223900  0.81881600  1
  H  1206  1  0.28105600  0.64260800  0.81702500  1
  H  1207  1  0.25626000  0.66788600  0.83553300  1
  H  1208  1  0.21138300  0.71118300  0.81007000  1
  H  1209  1  0.30162900  0.69253300  0.79190100  1
  H  1234  1  0.18668400  0.31821800  0.12227300  1
  H  1235  1  0.23124100  0.31642900  0.14253700  1
  H  1236  1  0.12096200  0.31445300  0.16520300  1
  H  1237  1  0.16535700  0.31310700  0.18543700  1
  H  1238  1  0.21324700  0.29405000  0.23010700  1
  H  1239  1  0.21372400  0.27208200  0.25279200  1
  H  1240  1  0.29925300  0.27246800  0.20851600  1
  H  1241  1  0.29877400  0.24977400  0.23047500  1
  H  1242  1  0.34712600  0.31716700  0.18946700  1
  H  1243  1  0.39150300  0.33741000  0.18811400  1
  H  1244  1  0.32575000  0.38032800  0.18438100  1
  H  1245  1  0.28120700  0.36005400  0.18617700  1
  H  1246  1  0.25622600  0.33499600  0.16760700  1
  H  1247  1  0.21105800  0.29156800  0.19268700  1
  H  1248  1  0.30142800  0.30989600  0.21101500  1
  C  1  1  0.03660800  0.09685400  0.31594200  1
  C  2  1  0.03605000  0.07803800  0.31550700  1
  C  3  1  0.00661500  0.06811400  0.31613200  1
  C  4  1  0.97709300  0.07792100  0.31708200  1
  C  5  1  0.97631200  0.09673000  0.31712000  1
  C  6  1  0.00637200  0.10579900  0.31626700  1
  C  7  1  0.00661300  0.04888500  0.31609200  1
  C  8  1  0.03180200  0.03889200  0.32427800  1
  C  9  1  0.03193700  0.02015400  0.32408900  1
  C  10  1  0.00636200  0.01051600  0.31606700  1
  C  11  1  0.98092900  0.02026100  0.30804400  1
  C  12  1  0.98131800  0.03899600  0.30787800  1
  C  13  1  0.06632200  0.10690300  0.31638500  1
  C  14  1  0.09312300  0.10289100  0.30525500  1
  C  15  1  0.12115600  0.11373400  0.30505200  1
  C  16  1  0.12337700  0.12904800  0.31591300  1
  C  17  1  0.09712000  0.13269600  0.32748800  1
  C  18  1  0.06934800  0.12180000  0.32779200  1
  C  19  1  0.94648800  0.10662200  0.31800700  1
  C  20  1  0.94392400  0.12186900  0.32896100  1
  C  21  1  0.91611200  0.13274400  0.32862300  1
  C  22  1  0.88945200  0.12876100  0.31742500  1
  C  23  1  0.89129800  0.11310800  0.30703300  1
  C  24  1  0.91930500  0.10226300  0.30729600  1
  C  40  1  0.03647600  0.90543500  0.68687700  1
  C  41  1  0.03589600  0.92425000  0.68731800  1
  C  42  1  0.00644900  0.93416400  0.68671000  1
  C  43  1  0.97693500  0.92434500  0.68577300  1
  C  44  1  0.97617800  0.90553600  0.68573200  1
  C  45  1  0.00625300  0.89647900  0.68656500  1
  C  46  1  0.00643100  0.95339300  0.68675200  1
  C  47  1  0.03160300  0.96339300  0.67856000  1
  C  48  1  0.03174000  0.98213100  0.67876300  1
  C  49  1  0.00617000  0.99176300  0.68679600  1
  C  50  1  0.98074900  0.98201100  0.69482400  1
  C  51  1  0.98114300  0.96327600  0.69498200  1
  C  52  1  0.06620200  0.89539900  0.68641200  1
  C  53  1  0.09301500  0.89941400  0.69753100  1
  C  54  1  0.12106800  0.88858800  0.69770900  1
  C  55  1  0.12328300  0.87327700  0.68684100  1
  C  56  1  0.09701700  0.86962900  0.67527300  1
  C  57  1  0.06923000  0.88051400  0.67499000  1
  C  58  1  0.94636900  0.89563000  0.68485600  1
  C  59  1  0.94381000  0.88038000  0.67390200  1
  C  60  1  0.91603100  0.86947900  0.67427300  1
  C  61  1  0.88938600  0.87344700  0.68548600  1
  C  62  1  0.89120400  0.88911400  0.69585900  1
  C  63  1  0.91920600  0.89996400  0.69559200  1
  C  79  1  0.03675700  0.68539100  0.09704300  1
  C  80  1  0.03599400  0.68543400  0.07823000  1
  C  81  1  0.00646700  0.68637000  0.06841900  1
  C  82  1  0.97703700  0.68704100  0.07833700  1
  C  83  1  0.97646500  0.68662600  0.09714800  1
  C  84  1  0.00668400  0.68626700  0.10610300  1
  C  85  1  0.00639000  0.68637000  0.04919000  1
  C  86  1  0.03161500  0.69457800  0.03924500  1
  C  87  1  0.03182000  0.69443600  0.02050700  1
  C  88  1  0.00626700  0.68644800  0.01082200  1
  C  89  1  0.98079500  0.67840500  0.02052000  1
  C  90  1  0.98112600  0.67818000  0.03925500  1
  C  91  1  0.06654800  0.68447900  0.10697100  1
  C  92  1  0.09376200  0.69519000  0.10267200  1
  C  93  1  0.12166500  0.69548300  0.11360200  1
  C  94  1  0.12338200  0.68511300  0.12927400  1
  C  95  1  0.09671300  0.67389800  0.13318500  1
  C  96  1  0.06901000  0.67352600  0.12222700  1
  C  97  1  0.94672900  0.68620600  0.10716600  1
  C  98  1  0.94358800  0.67476000  0.12202400  1
  C  99  1  0.91572000  0.67503700  0.13284600  1
  C  100  1  0.88949600  0.68662100  0.12915700  1
  C  101  1  0.89185100  0.69753000  0.11388300  1
  C  102  1  0.91998700  0.69736500  0.10312600  1
  C  118  1  0.03657300  0.31571800  0.90573000  1
  C  119  1  0.03601400  0.31526300  0.92454500  1
  C  120  1  0.00657700  0.31588400  0.93446800  1
  C  121  1  0.97705400  0.31684600  0.92466000  1
  C  122  1  0.97627800  0.31689900  0.90585200  1
  C  123  1  0.00634000  0.31605700  0.89678300  1
  C  124  1  0.00657200  0.31582800  0.95369700  1
  C  125  1  0.03176100  0.32400600  0.96369600  1
  C  126  1  0.03189300  0.32380200  0.98243300  1
  C  127  1  0.00630300  0.31578400  0.99206500  1
  C  128  1  0.98087300  0.30776600  0.98231300  1
  C  129  1  0.98128200  0.30760000  0.96357800  1
  C  130  1  0.06628600  0.31615600  0.89568200  1
  C  131  1  0.09305500  0.30499600  0.89967200  1
  C  132  1  0.12108900  0.30479300  0.88883000  1
  C  133  1  0.12333300  0.31567500  0.87353200  1
  C  134  1  0.09709700  0.32726900  0.86989700  1
  C  135  1  0.06933000  0.32757800  0.88079700  1
  C  136  1  0.94645900  0.31778800  0.89595900  1
  C  137  1  0.94388800  0.32875300  0.88071900  1
  C  138  1  0.91608000  0.32841000  0.86983900  1
  C  139  1  0.88943800  0.31719800  0.87381000  1
  C  140  1  0.89129100  0.30679100  0.88945200  1
  C  141  1  0.91929600  0.30705400  0.90029900  1
  C  157  1  0.97594000  0.90522100  0.31641700  1
  C  158  1  0.97648000  0.92402900  0.31580700  1
  C  159  1  0.00592500  0.93395200  0.31636100  1
  C  160  1  0.03545400  0.92414700  0.31736400  1
  C  161  1  0.03618500  0.90534200  0.31757900  1
  C  162  1  0.00614300  0.89626600  0.31681500  1
  C  163  1  0.00592500  0.95318100  0.31623300  1
  C  164  1  0.98072700  0.96320300  0.32437600  1
  C  165  1  0.98060800  0.98194100  0.32413700  1
  C  166  1  0.00619500  0.99155000  0.31609400  1
  C  167  1  0.03163200  0.98177700  0.30810900  1
  C  168  1  0.03123100  0.96304100  0.30799500  1
  C  169  1  0.94630800  0.89514400  0.31695600  1
  C  170  1  0.91977500  0.89878000  0.30552500  1
  C  171  1  0.89196000  0.88777800  0.30533700  1
  C  172  1  0.88972700  0.87268700  0.31651500  1
  C  173  1  0.91570800  0.86943900  0.32838700  1
  C  174  1  0.94326300  0.88049200  0.32867300  1
  C  175  1  0.06591000  0.89540300  0.31854200  1
  C  176  1  0.06846400  0.88038000  0.32980000  1
  C  177  1  0.09601400  0.86931300  0.32943300  1
  C  178  1  0.12237800  0.87288100  0.31789700  1
  C  179  1  0.12057800  0.88834300  0.30721300  1
  C  180  1  0.09281500  0.89936900  0.30748700  1
  C  196  1  0.97581800  0.09707300  0.68650500  1
  C  197  1  0.97633200  0.07826500  0.68711000  1
  C  198  1  0.00576400  0.06832800  0.68654000  1
  C  199  1  0.03530400  0.07812200  0.68552100  1
  C  200  1  0.03606100  0.09692600  0.68531000  1
  C  201  1  0.00603400  0.10601400  0.68609300  1
  C  202  1  0.00574700  0.04909900  0.68666100  1
  C  203  1  0.98053500  0.03908400  0.67852400  1
  C  204  1  0.98039900  0.02034700  0.67876100  1
  C  205  1  0.00600200  0.01072900  0.68678000  1
  C  206  1  0.03146700  0.02049500  0.69474900  1
  C  207  1  0.03106600  0.03923100  0.69488100  1
  C  208  1  0.94620100  0.10716700  0.68598600  1
  C  209  1  0.91967000  0.10353300  0.69742200  1
  C  210  1  0.89187500  0.11455000  0.69763200  1
  C  211  1  0.88965600  0.12965400  0.68647300  1
  C  212  1  0.91562800  0.13290100  0.67459400  1
  C  213  1  0.94316800  0.12183500  0.67429000  1
  C  214  1  0.06580100  0.10684800  0.68433000  1
  C  215  1  0.06835700  0.12187200  0.67307300  1
  C  216  1  0.09593300  0.13292000  0.67341700  1
  C  217  1  0.12231100  0.12934200  0.68493900  1
  C  218  1  0.12048100  0.11389800  0.69564600  1
  C  219  1  0.09271500  0.10287500  0.69537600  1
  C  235  1  0.97586900  0.31612400  0.09736200  1
  C  236  1  0.97639700  0.31551200  0.07855500  1
  C  237  1  0.00583900  0.31606600  0.06862600  1
  C  238  1  0.03537200  0.31707300  0.07842500  1
  C  239  1  0.03611300  0.31730200  0.09723000  1
  C  240  1  0.00607800  0.31653400  0.10631100  1
  C  241  1  0.00583500  0.31593800  0.04939700  1
  C  242  1  0.98064700  0.32408700  0.03937500  1
  C  243  1  0.98052500  0.32384500  0.02063800  1
  C  244  1  0.00612400  0.31580800  0.01103000  1
  C  245  1  0.03156500  0.30782900  0.02080300  1
  C  246  1  0.03114800  0.30770400  0.03953900  1
  C  247  1  0.94624500  0.31664800  0.10744800  1
  C  248  1  0.91972400  0.30520500  0.10381600  1
  C  249  1  0.89193100  0.30499200  0.11483500  1
  C  250  1  0.88969800  0.31616300  0.12993000  1
  C  251  1  0.91565700  0.32805300  0.13316800  1
  C  252  1  0.94319700  0.32835700  0.12210500  1
  C  253  1  0.06584400  0.31827100  0.10716000  1
  C  254  1  0.06840900  0.32954500  0.12217100  1
  C  255  1  0.09598000  0.32919900  0.13322200  1
  C  256  1  0.12235900  0.31767500  0.12964700  1
  C  257  1  0.12052700  0.30696100  0.11420800  1
  C  258  1  0.09275200  0.30722000  0.10319200  1
  C  274  1  0.97567200  0.68497500  0.90566000  1
  C  275  1  0.97643100  0.68517700  0.92446900  1
  C  276  1  0.00598000  0.68620100  0.93425800  1
  C  277  1  0.03539900  0.68682400  0.92431900  1
  C  278  1  0.03590800  0.68624400  0.90551500  1
  C  279  1  0.00570100  0.68579800  0.89657300  1
  C  280  1  0.00609700  0.68628500  0.95348700  1
  C  281  1  0.98085300  0.69449300  0.96341800  1
  C  282  1  0.98065600  0.69438700  0.98215700  1
  C  283  1  0.00623300  0.68643600  0.99185500  1
  C  284  1  0.03174000  0.67841300  0.98216900  1
  C  285  1  0.03140200  0.67815100  0.96343600  1
  C  286  1  0.94595500  0.68396100  0.89571400  1
  C  287  1  0.91900400  0.69499600  0.89963400  1
  C  288  1  0.89131300  0.69527100  0.88855000  1
  C  289  1  0.88962000  0.68459600  0.87307800  1
  C  290  1  0.91602200  0.67307000  0.86955900  1
  C  291  1  0.94349800  0.67270800  0.88067900  1
  C  292  1  0.06554300  0.68574800  0.89544500  1
  C  293  1  0.06867900  0.67402000  0.88081100  1
  C  294  1  0.09631300  0.67429400  0.86981800  1
  C  295  1  0.12226400  0.68617600  0.87310700  1
  C  296  1  0.11992200  0.69737500  0.88817600  1
  C  297  1  0.09203800  0.69719400  0.89912200  1
  C  313  1  0.53621900  0.59707600  0.81635600  1
  C  314  1  0.53566600  0.57826900  0.81575800  1
  C  315  1  0.50622200  0.56834900  0.81638000  1
  C  316  1  0.47670200  0.57815700  0.81744500  1
  C  317  1  0.47598400  0.59696200  0.81766000  1
  C  318  1  0.50602500  0.60603400  0.81682200  1
  C  319  1  0.50622400  0.54912200  0.81626100  1
  C  320  1  0.53146600  0.53910800  0.82437300  1
  C  321  1  0.53161200  0.52037200  0.82412800  1
  C  322  1  0.50599600  0.51075400  0.81612200  1
  C  323  1  0.48050600  0.52051800  0.80817500  1
  C  324  1  0.48087800  0.53925500  0.80806500  1
  C  325  1  0.56586500  0.60714300  0.81682500  1
  C  326  1  0.59232500  0.60347100  0.80535300  1
  C  327  1  0.62016400  0.61445300  0.80510400  1
  C  328  1  0.62250700  0.62955200  0.81626300  1
  C  329  1  0.59661100  0.63282800  0.82818300  1
  C  330  1  0.56902000  0.62180200  0.82852300  1
  C  331  1  0.44627400  0.60690700  0.81869500  1
  C  332  1  0.44382500  0.62191700  0.82997800  1
  C  333  1  0.41629500  0.63299800  0.82968200  1
  C  334  1  0.38985200  0.62946400  0.81818800  1
  C  335  1  0.39156400  0.61402300  0.80747100  1
  C  336  1  0.41927900  0.60296000  0.80770100  1
  C  352  1  0.53658800  0.40520000  0.18646000  1
  C  353  1  0.53609400  0.42400800  0.18706700  1
  C  354  1  0.50667200  0.43395200  0.18650400  1
  C  355  1  0.47712000  0.42417000  0.18548600  1
  C  356  1  0.47634400  0.40536500  0.18526800  1
  C  357  1  0.50636500  0.39626800  0.18604700  1
  C  358  1  0.50672500  0.45318000  0.18663300  1
  C  359  1  0.53194000  0.46318200  0.17848300  1
  C  360  1  0.53212200  0.48191800  0.17872900  1
  C  361  1  0.50655300  0.49154900  0.18676400  1
  C  362  1  0.48109200  0.48179600  0.19475600  1
  C  363  1  0.48144000  0.46305900  0.19487000  1
  C  364  1  0.56619800  0.39510400  0.18593100  1
  C  365  1  0.59273600  0.39873600  0.19736400  1
  C  366  1  0.62052900  0.38771800  0.19756600  1
  C  367  1  0.62273300  0.37261400  0.18640500  1
  C  368  1  0.59676700  0.36938000  0.17451800  1
  C  369  1  0.56923200  0.38044600  0.17422100  1
  C  370  1  0.44659800  0.39545000  0.18428600  1
  C  371  1  0.44401700  0.38044400  0.17300800  1
  C  372  1  0.41644500  0.36939400  0.17336000  1
  C  373  1  0.39007800  0.37296800  0.18489100  1
  C  374  1  0.39190700  0.38841400  0.19559400  1
  C  375  1  0.41969300  0.39942400  0.19533600  1
  C  391  1  0.53655900  0.18618900  0.59737700  1
  C  392  1  0.53603100  0.18680000  0.57856900  1
  C  393  1  0.50659100  0.18623800  0.56863900  1
  C  394  1  0.47705900  0.18521600  0.57843700  1
  C  395  1  0.47631500  0.18500200  0.59724300  1
  C  396  1  0.50634800  0.18578000  0.60632400  1
  C  397  1  0.50659600  0.18637100  0.54940900  1
  C  398  1  0.53180400  0.17824000  0.53938400  1
  C  399  1  0.53191800  0.17847900  0.52064800  1
  C  400  1  0.50630000  0.18649400  0.51103800  1
  C  401  1  0.48085100  0.19446900  0.52081400  1
  C  402  1  0.48127200  0.19459800  0.53954900  1
  C  403  1  0.56618100  0.18566100  0.60746800  1
  C  404  1  0.59272400  0.19708500  0.60382400  1
  C  405  1  0.62050500  0.19730300  0.61485500  1
  C  406  1  0.62272600  0.18613600  0.62995300  1
  C  407  1  0.59675500  0.17425300  0.63319100  1
  C  408  1  0.56922200  0.17395100  0.62212300  1
  C  409  1  0.44658300  0.18402500  0.60717300  1
  C  410  1  0.44402900  0.17275800  0.62219000  1
  C  411  1  0.41645300  0.17309500  0.63323700  1
  C  412  1  0.39007300  0.18461700  0.62966300  1
  C  413  1  0.39188700  0.19532200  0.61421700  1
  C  414  1  0.41966600  0.19506900  0.60320400  1
  C  430  1  0.53633800  0.81610100  0.40550500  1
  C  431  1  0.53581500  0.81549200  0.42431100  1
  C  432  1  0.50637700  0.81604300  0.43424200  1
  C  433  1  0.47683800  0.81703900  0.42444500  1
  C  434  1  0.47609100  0.81725100  0.40563800  1
  C  435  1  0.50612900  0.81649400  0.39655700  1
  C  436  1  0.50641900  0.81592100  0.45347200  1
  C  437  1  0.53163800  0.82407000  0.46347300  1
  C  438  1  0.53183000  0.82381600  0.48220900  1
  C  439  1  0.50626800  0.81577600  0.49184000  1
  C  440  1  0.48079500  0.80779400  0.48208900  1
  C  441  1  0.48114300  0.80767900  0.46335200  1
  C  442  1  0.56596500  0.81665200  0.39542800  1
  C  443  1  0.59250800  0.80522500  0.39905900  1
  C  444  1  0.62033000  0.80505700  0.38806500  1
  C  445  1  0.62256300  0.81625300  0.37298800  1
  C  446  1  0.59657200  0.82812100  0.36974400  1
  C  447  1  0.56900500  0.82838400  0.38078900  1
  C  448  1  0.44636400  0.81820500  0.39569900  1
  C  449  1  0.44380300  0.82945600  0.38067000  1
  C  450  1  0.41625600  0.82907900  0.36960100  1
  C  451  1  0.38990300  0.81753400  0.37316700  1
  C  452  1  0.39172700  0.80684300  0.38862100  1
  C  453  1  0.41946600  0.80714700  0.39966600  1
  C  469  1  0.47574800  0.40544200  0.81599600  1
  C  470  1  0.47628300  0.42425600  0.81555100  1
  C  471  1  0.50570400  0.43419100  0.81617500  1
  C  472  1  0.53524300  0.42439700  0.81712500  1
  C  473  1  0.53604600  0.40558900  0.81717500  1
  C  474  1  0.50599600  0.39650800  0.81632900  1
  C  475  1  0.50567400  0.45342000  0.81613300  1
  C  476  1  0.48047400  0.46340100  0.82432100  1
  C  477  1  0.48031100  0.48213800  0.82413200  1
  C  478  1  0.50585400  0.49178800  0.81609300  1
  C  479  1  0.53129800  0.48205300  0.80806500  1
  C  480  1  0.53094000  0.46331900  0.80790200  1
  C  481  1  0.44604800  0.39538300  0.81643100  1
  C  482  1  0.41926200  0.39937500  0.80528400  1
  C  483  1  0.39123300  0.38853100  0.80508400  1
  C  484  1  0.38901200  0.37322400  0.81595600  1
  C  485  1  0.41526300  0.36958600  0.82753600  1
  C  486  1  0.44302500  0.38049000  0.82784400  1
  C  487  1  0.56587700  0.39570600  0.81806800  1
  C  488  1  0.56845800  0.38046600  0.82903300  1
  C  489  1  0.59626800  0.36958800  0.82868400  1
  C  490  1  0.62291100  0.37356700  0.81747300  1
  C  491  1  0.62106400  0.38922100  0.80708500  1
  C  492  1  0.59303500  0.40004900  0.80733200  1
  C  508  1  0.47615200  0.59683300  0.18695800  1
  C  509  1  0.47674300  0.57801900  0.18739100  1
  C  510  1  0.50619000  0.56811000  0.18670700  1
  C  511  1  0.53569600  0.57793000  0.18571300  1
  C  512  1  0.53644000  0.59673900  0.18566800  1
  C  513  1  0.50636800  0.60579300  0.18657200  1
  C  514  1  0.50620500  0.54888100  0.18673400  1
  C  515  1  0.48098300  0.53889300  0.17857500  1
  C  516  1  0.48082700  0.52015500  0.17877400  1
  C  517  1  0.50641900  0.51051500  0.18677600  1
  C  518  1  0.53190600  0.52025600  0.19475300  1
  C  519  1  0.53152600  0.53899100  0.19492200  1
  C  520  1  0.44641300  0.60686000  0.18657600  1
  C  521  1  0.41970200  0.60282800  0.19776000  1
  C  522  1  0.39161500  0.61362600  0.19799500  1
  C  523  1  0.38925600  0.62892200  0.18711800  1
  C  524  1  0.41544600  0.63260600  0.17550800  1
  C  525  1  0.44327000  0.62175100  0.17517100  1
  C  526  1  0.56623500  0.60665200  0.18472100  1
  C  527  1  0.56868900  0.62190000  0.17376000  1
  C  528  1  0.59644300  0.63282000  0.17407300  1
  C  529  1  0.62315400  0.62888200  0.18524800  1
  C  530  1  0.62144600  0.61321600  0.19562700  1
  C  531  1  0.59346800  0.60234600  0.19541600  1
  C  547  1  0.47599400  0.81565400  0.59713400  1
  C  548  1  0.47656500  0.81521800  0.57832000  1
  C  549  1  0.50600800  0.81582600  0.56840400  1
  C  550  1  0.53553000  0.81673600  0.57821700  1
  C  551  1  0.53629400  0.81678500  0.59702700  1
  C  552  1  0.50621900  0.81596200  0.60608800  1
  C  553  1  0.50599800  0.81580200  0.54917300  1
  C  554  1  0.48081000  0.82400500  0.53919400  1
  C  555  1  0.48062300  0.82380400  0.52045700  1
  C  556  1  0.50615400  0.81575800  0.51080600  1
  C  557  1  0.53161200  0.80773800  0.52053500  1
  C  558  1  0.53125600  0.80757000  0.53927100  1
  C  559  1  0.44626900  0.81611900  0.60716900  1
  C  560  1  0.41946600  0.80499100  0.60316000  1
  C  561  1  0.39140800  0.80482300  0.61398200  1
  C  562  1  0.38916600  0.81572200  0.62926700  1
  C  563  1  0.41543300  0.82728900  0.63291400  1
  C  564  1  0.44323600  0.82755500  0.62204100  1
  C  565  1  0.56610300  0.81764300  0.60693700  1
  C  566  1  0.56867000  0.82858800  0.62219400  1
  C  567  1  0.59644600  0.82820600  0.63309600  1
  C  568  1  0.62308100  0.81698800  0.62912500  1
  C  569  1  0.62124400  0.80661200  0.61346200  1
  C  570  1  0.59325400  0.80689700  0.60260500  1
  C  586  1  0.47579200  0.18659500  0.40573500  1
  C  587  1  0.47635900  0.18704100  0.42455100  1
  C  588  1  0.50580100  0.18642900  0.43447200  1
  C  589  1  0.53532100  0.18548900  0.42466000  1
  C  590  1  0.53609200  0.18543200  0.40585200  1
  C  591  1  0.50602500  0.18627300  0.39678700  1
  C  592  1  0.50581800  0.18647300  0.45370200  1
  C  593  1  0.48064200  0.17829000  0.46370500  1
  C  594  1  0.48052500  0.17848700  0.48244400  1
  C  595  1  0.50611200  0.18651000  0.49207200  1
  C  596  1  0.53154300  0.19452200  0.48231600  1
  C  597  1  0.53112300  0.19469500  0.46358200  1
  C  598  1  0.44608000  0.18614600  0.39568700  1
  C  599  1  0.41928600  0.19728800  0.39968200  1
  C  600  1  0.39125300  0.19748200  0.38884100  1
  C  601  1  0.38904200  0.18661800  0.37352700  1
  C  602  1  0.41529200  0.17503500  0.36989200  1
  C  603  1  0.44305600  0.17473100  0.38079600  1
  C  604  1  0.56591100  0.18454700  0.39595500  1
  C  605  1  0.56847500  0.17358300  0.38071300  1
  C  606  1  0.59628000  0.17392700  0.36983200  1
  C  607  1  0.62293200  0.18513300  0.37380600  1
  C  608  1  0.62109100  0.19552900  0.38945600  1
  C  609  1  0.59307900  0.19527500  0.40029600  1
  C  625  1  0.23068400  0.17765300  0.31265500  1
  C  626  1  0.25623000  0.17727800  0.32526100  1
  C  627  1  0.28178300  0.18987800  0.32489100  1
  C  628  1  0.28094900  0.20321600  0.31162200  1
  C  629  1  0.25624300  0.20403900  0.29850200  1
  C  630  1  0.23153100  0.19092000  0.29931900  1
  C  631  1  0.30822900  0.18908800  0.33725300  1
  C  632  1  0.30307900  0.18724100  0.35576600  1
  C  633  1  0.32945700  0.18670700  0.36775400  1
  C  634  1  0.36196800  0.18761200  0.36162700  1
  C  635  1  0.36707200  0.18936700  0.34311000  1
  C  636  1  0.34076000  0.19018000  0.33118700  1
  C  637  1  0.20422600  0.16529600  0.31344500  1
  C  638  1  0.20935600  0.14678500  0.31530100  1
  C  639  1  0.18296600  0.13480400  0.31582300  1
  C  640  1  0.15046200  0.14094000  0.31491800  1
  C  641  1  0.14537800  0.15945900  0.31315900  1
  C  642  1  0.17170200  0.17137400  0.31235000  1
  C  643  1  0.25624500  0.21760100  0.28494300  1
  C  644  1  0.22691400  0.22474000  0.27806900  1
  C  645  1  0.22691300  0.23784400  0.26470800  1
  C  646  1  0.25624700  0.24484700  0.25770700  1
  C  647  1  0.28558000  0.23784300  0.26470700  1
  C  648  1  0.28557500  0.22447900  0.27781000  1
  C  664  1  0.23065200  0.82471700  0.69003400  1
  C  665  1  0.25620100  0.82510500  0.67743100  1
  C  666  1  0.28177600  0.81251700  0.67780600  1
  C  667  1  0.28095100  0.79917500  0.69106800  1
  C  668  1  0.25625700  0.79834800  0.70419000  1
  C  669  1  0.23152100  0.81145000  0.70337300  1
  C  670  1  0.30824800  0.81332100  0.66546500  1
  C  671  1  0.30314700  0.81514900  0.64694700  1
  C  672  1  0.32956100  0.81566000  0.63498300  1
  C  673  1  0.36205100  0.81476300  0.64114100  1
  C  674  1  0.36710300  0.81303300  0.65966500  1
  C  675  1  0.34075800  0.81224000  0.67156400  1
  C  676  1  0.20417900  0.83706100  0.68925000  1
  C  677  1  0.20928400  0.85557500  0.68740300  1
  C  678  1  0.18287900  0.86754700  0.68690400  1
  C  679  1  0.15038500  0.86139600  0.68781300  1
  C  680  1  0.14532500  0.84287500  0.68956100  1
  C  681  1  0.17166500  0.83096900  0.69035300  1
  C  682  1  0.25631300  0.78479700  0.71775600  1
  C  683  1  0.22701300  0.77763300  0.72463900  1
  C  684  1  0.22707300  0.76452900  0.73800000  1
  C  685  1  0.25644200  0.75756300  0.74499200  1
  C  686  1  0.28574600  0.76460200  0.73799200  1
  C  687  1  0.28568000  0.77796000  0.72488600  1
  C  703  1  0.23039000  0.68933500  0.17806600  1
  C  704  1  0.25602900  0.67678200  0.17778100  1
  C  705  1  0.28159800  0.67729000  0.19036200  1
  C  706  1  0.28068900  0.69064400  0.20360700  1
  C  707  1  0.25590200  0.70372700  0.20434800  1
  C  708  1  0.23115600  0.70275900  0.19125400  1
  C  709  1  0.30814800  0.66499100  0.18961400  1
  C  710  1  0.30315200  0.64646200  0.18781500  1
  C  711  1  0.32963200  0.63454200  0.18728400  1
  C  712  1  0.36209000  0.64075700  0.18812600  1
  C  713  1  0.36704000  0.65929100  0.18983200  1
  C  714  1  0.34062900  0.67114800  0.19064500  1
  C  715  1  0.20398400  0.68838700  0.16567600  1
  C  716  1  0.20922500  0.68614300  0.14721500  1
  C  717  1  0.18292400  0.68531600  0.13519800  1
  C  718  1  0.15036400  0.68632100  0.14123400  1
  C  719  1  0.14516600  0.68850900  0.15970000  1
  C  720  1  0.17141000  0.68960400  0.17165300  1
  C  721  1  0.25589000  0.71738000  0.21782300  1
  C  722  1  0.22656700  0.72428000  0.22494300  1
  C  723  1  0.22657400  0.73768100  0.23801300  1
  C  724  1  0.25590900  0.74470900  0.24499100  1
  C  725  1  0.28523500  0.73770300  0.23798200  1
  C  726  1  0.28522000  0.72456300  0.22465600  1
  C  742  1  0.23061600  0.31239100  0.82492000  1
  C  743  1  0.25617000  0.32499000  0.82529500  1
  C  744  1  0.28172200  0.32461700  0.81269400  1
  C  745  1  0.28088100  0.31134900  0.79935600  1
  C  746  1  0.25616700  0.29823200  0.79853400  1
  C  747  1  0.23144800  0.29905800  0.81164700  1
  C  748  1  0.30817500  0.33697300  0.81348700  1
  C  749  1  0.30303800  0.35548400  0.81534200  1
  C  750  1  0.32942500  0.36746700  0.81586300  1
  C  751  1  0.36193000  0.36133200  0.81496600  1
  C  752  1  0.36702100  0.34281400  0.81321100  1
  C  753  1  0.34069900  0.33089600  0.81240000  1
  C  754  1  0.20416400  0.31318500  0.83727700  1
  C  755  1  0.20930400  0.31502300  0.85579000  1
  C  756  1  0.18291900  0.31556600  0.86777200  1
  C  757  1  0.15041200  0.31467800  0.86163700  1
  C  758  1  0.14531800  0.31293400  0.84311800  1
  C  759  1  0.17163800  0.31210700  0.83120200  1
  C  760  1  0.25617200  0.28467200  0.78497500  1
  C  761  1  0.22684300  0.27779700  0.77783400  1
  C  762  1  0.22684500  0.26443500  0.76473000  1
  C  763  1  0.25618200  0.25742800  0.75773600  1
  C  764  1  0.28551200  0.26442900  0.76474300  1
  C  765  1  0.28550500  0.27753400  0.77810400  1
  C  781  1  0.78276300  0.82389800  0.31328900  1
  C  782  1  0.75615200  0.82492800  0.32521300  1
  C  783  1  0.72952200  0.81301600  0.32420600  1
  C  784  1  0.72981600  0.79995400  0.31066200  1
  C  785  1  0.75611100  0.79837200  0.29868100  1
  C  786  1  0.78243000  0.81034000  0.30024200  1
  C  787  1  0.70298400  0.81402500  0.33647600  1
  C  788  1  0.70828200  0.81523400  0.35503100  1
  C  789  1  0.68201200  0.81572900  0.36707000  1
  C  790  1  0.64946100  0.81536900  0.36097200  1
  C  791  1  0.64419400  0.81424300  0.34241500  1
  C  792  1  0.67041100  0.81348500  0.33041900  1
  C  793  1  0.80930600  0.83616900  0.31427400  1
  C  794  1  0.80401300  0.85472500  0.31547900  1
  C  795  1  0.83028100  0.86676600  0.31598100  1
  C  796  1  0.86283200  0.86066900  0.31561400  1
  C  797  1  0.86809800  0.84211200  0.31447600  1
  C  798  1  0.84188100  0.83011500  0.31371600  1
  C  799  1  0.75607200  0.78499100  0.28531700  1
  C  800  1  0.78088000  0.77203500  0.28463900  1
  C  801  1  0.78055900  0.75867300  0.27153900  1
  C  802  1  0.75596700  0.75793400  0.25831500  1
  C  803  1  0.73141700  0.77117800  0.25906100  1
  C  804  1  0.73120000  0.78430800  0.27239400  1
  C  820  1  0.78277800  0.17850300  0.68975500  1
  C  821  1  0.75617400  0.17749700  0.67782300  1
  C  822  1  0.72956800  0.18942700  0.67882500  1
  C  823  1  0.72987500  0.20247900  0.69237800  1
  C  824  1  0.75616400  0.20404400  0.70436700  1
  C  825  1  0.78245900  0.19205700  0.70280600  1
  C  826  1  0.70305500  0.18843600  0.66653400  1
  C  827  1  0.70839400  0.18721900  0.64798200  1
  C  828  1  0.68215700  0.18669900  0.63592200  1
  C  829  1  0.64959000  0.18705900  0.64199300  1
  C  830  1  0.64427700  0.18821000  0.66054600  1
  C  831  1  0.67046200  0.18898700  0.67256100  1
  C  832  1  0.80929900  0.16621700  0.68876700  1
  C  833  1  0.80397100  0.14766400  0.68754400  1
  C  834  1  0.83021700  0.13561000  0.68702600  1
  C  835  1  0.86278000  0.14168700  0.68739400  1
  C  836  1  0.86808100  0.16024000  0.68855100  1
  C  837  1  0.84188600  0.17225200  0.68932100  1
  C  838  1  0.75616400  0.21742300  0.71773800  1
  C  839  1  0.78102600  0.23034900  0.71843400  1
  C  840  1  0.78076100  0.24370000  0.73154900  1
  C  841  1  0.75616200  0.24446800  0.74476600  1
  C  842  1  0.73156300  0.23124900  0.74400600  1
  C  843  1  0.73130000  0.21812600  0.73066300  1
  C  859  1  0.78282600  0.31285500  0.17877500  1
  C  860  1  0.75621300  0.32477900  0.17776700  1
  C  861  1  0.72960200  0.32376700  0.18969200  1
  C  862  1  0.72990600  0.31020500  0.20273500  1
  C  863  1  0.75621500  0.29823100  0.20430800  1
  C  864  1  0.78252500  0.29980800  0.19233400  1
  C  865  1  0.70308100  0.33605000  0.18870000  1
  C  866  1  0.70841100  0.35460200  0.18749100  1
  C  867  1  0.68216500  0.36665800  0.18697100  1
  C  868  1  0.64960200  0.36058000  0.18732400  1
  C  869  1  0.64429900  0.34202600  0.18846100  1
  C  870  1  0.67049400  0.33001500  0.18924100  1
  C  871  1  0.80934700  0.31385200  0.16649100  1
  C  872  1  0.80401800  0.31506800  0.14793800  1
  C  873  1  0.83026400  0.31559000  0.13588400  1
  C  874  1  0.86282700  0.31523800  0.14196200  1
  C  875  1  0.86812700  0.31409000  0.16051600  1
  C  876  1  0.84193500  0.31331300  0.17252700  1
  C  877  1  0.75621500  0.28485300  0.21768100  1
  C  878  1  0.78107500  0.28415400  0.23061000  1
  C  879  1  0.78079500  0.27104200  0.24396100  1
  C  880  1  0.75620100  0.25782000  0.24471800  1
  C  881  1  0.73162100  0.25857600  0.23149100  1
  C  882  1  0.73136100  0.27192100  0.21837100  1
  C  898  1  0.78305300  0.68888100  0.82403600  1
  C  899  1  0.75635700  0.67700200  0.82493300  1
  C  900  1  0.72975100  0.67816200  0.81302100  1
  C  901  1  0.73015700  0.69181800  0.80008200  1
  C  902  1  0.75654900  0.70375300  0.79860000  1
  C  903  1  0.78283400  0.70203800  0.81058000  1
  C  904  1  0.70313000  0.66593400  0.81394800  1
  C  905  1  0.70831300  0.64736600  0.81510000  1
  C  906  1  0.68197700  0.63537200  0.81562100  1
  C  907  1  0.64946100  0.64152800  0.81532200  1
  C  908  1  0.64430400  0.66009800  0.81423400  1
  C  909  1  0.67059100  0.67204900  0.81345500  1
  C  910  1  0.80952500  0.68770800  0.83635100  1
  C  911  1  0.80408100  0.68609100  0.85486400  1
  C  912  1  0.83023200  0.68527400  0.86696000  1
  C  913  1  0.86285300  0.68573100  0.86097400  1
  C  914  1  0.86827300  0.68731800  0.84246000  1
  C  915  1  0.84216300  0.68837700  0.83041000  1
  C  916  1  0.75662700  0.71721100  0.78529900  1
  C  917  1  0.78150300  0.71795500  0.77238300  1
  C  918  1  0.78120600  0.73108800  0.75904900  1
  C  919  1  0.75655600  0.74428000  0.75828300  1
  C  920  1  0.73196400  0.74348400  0.77150300  1
  C  921  1  0.73173100  0.73012100  0.78460600  1
  C  937  1  0.78192900  0.82496500  0.68965900  1
  C  938  1  0.75624200  0.82538600  0.67714500  1
  C  939  1  0.73058500  0.81285400  0.67758800  1
  C  940  1  0.73146100  0.79951700  0.69085800  1
  C  941  1  0.75630800  0.79863600  0.70390100  1
  C  942  1  0.78110900  0.81170200  0.70300300  1
  C  943  1  0.70404900  0.81375300  0.66527800  1
  C  944  1  0.70910200  0.81593700  0.64679400  1
  C  945  1  0.68267600  0.81676100  0.63486200  1
  C  946  1  0.65018100  0.81579500  0.64100600  1
  C  947  1  0.64517000  0.81365700  0.65949300  1
  C  948  1  0.67153700  0.81258000  0.67136400  1
  C  949  1  0.80845000  0.83728000  0.68873500  1
  C  950  1  0.80338000  0.85576200  0.68654600  1
  C  951  1  0.82979700  0.86770100  0.68572500  1
  C  952  1  0.86229900  0.86156300  0.68667900  1
  C  953  1  0.86732400  0.84307700  0.68881300  1
  C  954  1  0.84096600  0.83120000  0.68989300  1
  C  955  1  0.75636400  0.78506800  0.71746300  1
  C  956  1  0.78572100  0.77791200  0.72429100  1
  C  957  1  0.78578700  0.76481600  0.73766200  1
  C  958  1  0.75649000  0.75782800  0.74472500  1
  C  959  1  0.72712800  0.76484100  0.73776600  1
  C  960  1  0.72707000  0.77820100  0.72465600  1
  C  976  1  0.78186300  0.17715700  0.31332000  1
  C  977  1  0.75618100  0.17671700  0.32583700  1
  C  978  1  0.73049700  0.18923300  0.32539400  1
  C  979  1  0.73134900  0.20257500  0.31213100  1
  C  980  1  0.75617900  0.20346700  0.29908100  1
  C  981  1  0.78100900  0.19041700  0.29997500  1
  C  982  1  0.70395000  0.18831900  0.33769000  1
  C  983  1  0.70897800  0.18614800  0.35617800  1
  C  984  1  0.68253400  0.18534100  0.36810000  1
  C  985  1  0.65004900  0.18630000  0.36193900  1
  C  986  1  0.64506500  0.18842100  0.34344700  1
  C  987  1  0.67144700  0.18948500  0.33158800  1
  C  988  1  0.80841600  0.16486300  0.31423900  1
  C  989  1  0.80339700  0.14637700  0.31641900  1
  C  990  1  0.82984800  0.13445800  0.31721800  1
  C  991  1  0.86233000  0.14062400  0.31625700  1
  C  992  1  0.86730500  0.15911600  0.31413400  1
  C  993  1  0.84091500  0.17097100  0.31307300  1
  C  994  1  0.75618400  0.21702900  0.28551900  1
  C  995  1  0.78551400  0.22420800  0.27868300  1
  C  996  1  0.78552400  0.23730900  0.26531800  1
  C  997  1  0.75619400  0.24427200  0.25827100  1
  C  998  1  0.72686100  0.23722500  0.26522800  1
  C  999  1  0.72685800  0.22386400  0.27833300  1
  C  1015  1  0.78185300  0.31308900  0.82541400  1
  C  1016  1  0.75616700  0.32560300  0.82585700  1
  C  1017  1  0.73048000  0.32515800  0.81334400  1
  C  1018  1  0.73132700  0.31189300  0.80000300  1
  C  1019  1  0.75616200  0.29884600  0.79910900  1
  C  1020  1  0.78100400  0.29974700  0.81215200  1
  C  1021  1  0.70393000  0.33745400  0.81426400  1
  C  1022  1  0.70895800  0.35594000  0.81643700  1
  C  1023  1  0.68251500  0.36786200  0.81724600  1
  C  1024  1  0.65002700  0.36170000  0.81629600  1
  C  1025  1  0.64504600  0.34320800  0.81418100  1
  C  1026  1  0.67143000  0.33134900  0.81311400  1
  C  1027  1  0.80840600  0.31401100  0.83770700  1
  C  1028  1  0.80338300  0.31617900  0.85619500  1
  C  1029  1  0.82983300  0.31698800  0.86811200  1
  C  1030  1  0.86231600  0.31603400  0.86194600  1
  C  1031  1  0.86729300  0.31392400  0.84345400  1
  C  1032  1  0.84090300  0.31285500  0.83159900  1
  C  1033  1  0.75616200  0.28527800  0.78555100  1
  C  1034  1  0.78548700  0.27843800  0.77837100  1
  C  1035  1  0.78549200  0.26507300  0.76527100  1
  C  1036  1  0.75615900  0.25802300  0.75831300  1
  C  1037  1  0.72682900  0.26498600  0.76535800  1
  C  1038  1  0.72683400  0.27809200  0.77871900  1
  C  1054  1  0.78165600  0.68976000  0.17738600  1
  C  1055  1  0.75605500  0.67720200  0.17685100  1
  C  1056  1  0.73039000  0.67750900  0.18938700  1
  C  1057  1  0.73117800  0.69067800  0.20282600  1
  C  1058  1  0.75594100  0.70375900  0.20380400  1
  C  1059  1  0.78074900  0.70300500  0.19073800  1
  C  1060  1  0.70393000  0.66516100  0.18842000  1
  C  1061  1  0.70908500  0.64669200  0.18618600  1
  C  1062  1  0.68272400  0.63471300  0.18538900  1
  C  1063  1  0.65019500  0.64080200  0.18640300  1
  C  1064  1  0.64508700  0.65927700  0.18857200  1
  C  1065  1  0.67138900  0.67119000  0.18963300  1
  C  1066  1  0.80824800  0.68899900  0.16512100  1
  C  1067  1  0.80332200  0.68724300  0.14658400  1
  C  1068  1  0.82985000  0.68672600  0.13469900  1
  C  1069  1  0.86228200  0.68756800  0.14095800  1
  C  1070  1  0.86716100  0.68922800  0.15950100  1
  C  1071  1  0.84070100  0.69001900  0.17132300  1
  C  1072  1  0.75592800  0.71722800  0.21745100  1
  C  1073  1  0.78526100  0.72403300  0.22465500  1
  C  1074  1  0.78527600  0.73736600  0.23778400  1
  C  1075  1  0.75594500  0.74439200  0.24476300  1
  C  1076  1  0.72660500  0.73743600  0.23772000  1
  C  1077  1  0.72660100  0.72436900  0.22432300  1
  C  1093  1  0.22946600  0.17799300  0.68908300  1
  C  1094  1  0.25619600  0.17691300  0.67724500  1
  C  1095  1  0.28292600  0.18874900  0.67832100  1
  C  1096  1  0.28260100  0.20180500  0.69187200  1
  C  1097  1  0.25619600  0.20345400  0.70378000  1
  C  1098  1  0.22979300  0.19154600  0.70213500  1
  C  1099  1  0.30954200  0.18762400  0.66610000  1
  C  1100  1  0.30432200  0.18608100  0.64756200  1
  C  1101  1  0.33061900  0.18528800  0.63556500  1
  C  1102  1  0.36316500  0.18570500  0.64167400  1
  C  1103  1  0.36836100  0.18721200  0.66021300  1
  C  1104  1  0.34210800  0.18823900  0.67217000  1
  C  1105  1  0.20284700  0.16577300  0.68795700  1
  C  1106  1  0.20806500  0.14723400  0.68642200  1
  C  1107  1  0.18176400  0.13523800  0.68561900  1
  C  1108  1  0.14922100  0.14135000  0.68603400  1
  C  1109  1  0.14402700  0.15988900  0.68754600  1
  C  1110  1  0.17028400  0.17184400  0.68857500  1
  C  1111  1  0.25619600  0.21683600  0.71715400  1
  C  1112  1  0.23132500  0.22975900  0.71785800  1
  C  1113  1  0.23158900  0.24311100  0.73097100  1
  C  1114  1  0.25618900  0.24387900  0.74418700  1
  C  1115  1  0.28080100  0.23066900  0.74342000  1
  C  1116  1  0.28107100  0.21754900  0.73007600  1
  C  1132  1  0.22940900  0.82415200  0.31368500  1
  C  1133  1  0.25613600  0.82520800  0.32552600  1
  C  1134  1  0.28283900  0.81335200  0.32445100  1
  C  1135  1  0.28249300  0.80030500  0.31089100  1
  C  1136  1  0.25608500  0.79867500  0.29898000  1
  C  1137  1  0.22970700  0.81060200  0.30062900  1
  C  1138  1  0.30944000  0.81446100  0.33668500  1
  C  1139  1  0.30418800  0.81600400  0.35522100  1
  C  1140  1  0.33046400  0.81682100  0.36723200  1
  C  1141  1  0.36301900  0.81641300  0.36114000  1
  C  1142  1  0.36824900  0.81489600  0.34260500  1
  C  1143  1  0.34201500  0.81384600  0.33063400  1
  C  1144  1  0.20282000  0.83639100  0.31481600  1
  C  1145  1  0.20808500  0.85492500  0.31636400  1
  C  1146  1  0.18181500  0.86694000  0.31718600  1
  C  1147  1  0.14925600  0.86085400  0.31677800  1
  C  1148  1  0.14401400  0.84231900  0.31525300  1
  C  1149  1  0.17024100  0.83034500  0.31420900  1
  C  1150  1  0.25604300  0.78529700  0.28559700  1
  C  1151  1  0.23112000  0.77240400  0.28487400  1
  C  1152  1  0.23132600  0.75906700  0.27174300  1
  C  1153  1  0.25593600  0.75827200  0.25853300  1
  C  1154  1  0.28058900  0.77145900  0.25931200  1
  C  1155  1  0.28090800  0.78456700  0.27267000  1
  C  1171  1  0.22969300  0.68930200  0.82463600  1
  C  1172  1  0.25633700  0.67742200  0.82583000  1
  C  1173  1  0.28307200  0.67835000  0.81397900  1
  C  1174  1  0.28285300  0.69180200  0.80082000  1
  C  1175  1  0.25652000  0.70374100  0.79907000  1
  C  1176  1  0.23009900  0.70224100  0.81098000  1
  C  1177  1  0.30959300  0.66607500  0.81517300  1
  C  1178  1  0.30422700  0.64755300  0.81676600  1
  C  1179  1  0.33043900  0.63549700  0.81757100  1
  C  1180  1  0.36302900  0.64153000  0.81710900  1
  C  1181  1  0.36836600  0.66005400  0.81556000  1
  C  1182  1  0.34220000  0.67206700  0.81451800  1
  C  1183  1  0.20303000  0.68836000  0.83682800  1
  C  1184  1  0.20814300  0.68723500  0.85540400  1
  C  1185  1  0.18175700  0.68674600  0.86736400  1
  C  1186  1  0.14926800  0.68705100  0.86116600  1
  C  1187  1  0.14418300  0.68811000  0.84258900  1
  C  1188  1  0.17051800  0.68884500  0.83067000  1
  C  1189  1  0.25658800  0.71703100  0.78561300  1
  C  1190  1  0.23173400  0.71768200  0.77267900  1
  C  1191  1  0.23196800  0.73077500  0.75930900  1
  C  1192  1  0.25651000  0.74402100  0.75854300  1
  C  1193  1  0.28110700  0.74330700  0.77176400  1
  C  1194  1  0.28140600  0.72998400  0.78490500  1
  C  1210  1  0.22950900  0.31353100  0.17829700  1
  C  1211  1  0.25623300  0.32537200  0.17722100  1
  C  1212  1  0.28296500  0.32429100  0.18905600  1
  C  1213  1  0.28265600  0.31073000  0.20210000  1
  C  1214  1  0.25624700  0.29882500  0.20375000  1
  C  1215  1  0.22984600  0.30046900  0.19184100  1
  C  1216  1  0.30957600  0.33651700  0.18793500  1
  C  1217  1  0.30434200  0.35505500  0.18640500  1
  C  1218  1  0.33063400  0.36705700  0.18559500  1
  C  1219  1  0.36318200  0.36095200  0.18599900  1
  C  1220  1  0.36839000  0.34241500  0.18750600  1
  C  1221  1  0.34214400  0.33045300  0.18853900  1
  C  1222  1  0.20289000  0.31465800  0.16607900  1
  C  1223  1  0.20810900  0.31619600  0.14754100  1
  C  1224  1  0.18180900  0.31699300  0.13554400  1
  C  1225  1  0.14926600  0.31658300  0.14165700  1
  C  1226  1  0.14407100  0.31507200  0.16019500  1
  C  1227  1  0.17032800  0.31404400  0.17215100  1
  C  1228  1  0.25625000  0.28544300  0.21712700  1
  C  1229  1  0.23137300  0.28472900  0.23004600  1
  C  1230  1  0.23163400  0.27160700  0.24339000  1
  C  1231  1  0.25624700  0.25839900  0.24415900  1
  C  1232  1  0.28085600  0.25917100  0.23095000  1
  C  1233  1  0.28112200  0.27252100  0.21783400  1
