# generated using pymatgen
data_H9C13N4O
_symmetry_space_group_name_H-M   'P 1'
_cell_length_a   27.30230000
_cell_length_b   57.53180000
_cell_length_c   98.24480000
_cell_angle_alpha   90.00000000
_cell_angle_beta   90.00000000
_cell_angle_gamma   90.00000000
_symmetry_Int_Tables_number   1
_chemical_formula_structural   H9C13N4O
_chemical_formula_sum   'H576 C832 N256 O64'
_cell_volume   154318.06510110
_cell_formula_units_Z   64
loop_
 _symmetry_equiv_pos_site_id
 _symmetry_equiv_pos_as_xyz
  1  'x, y, z'
loop_
 _atom_site_type_symbol
 _atom_site_label
 _atom_site_symmetry_multiplicity
 _atom_site_fract_x
 _atom_site_fract_y
 _atom_site_fract_z
 _atom_site_occupancy
  H  4  1  0.25831100  0.25856300  0.34461400  1
  H  12  1  0.18069000  0.28910800  0.30593700  1
  H  13  1  0.12587000  0.21410300  0.29189700  1
  H  14  1  0.22498900  0.23352500  0.33128500  1
  H  21  1  0.52565300  0.26155800  0.43618800  1
  H  29  1  0.59829500  0.28888400  0.47575700  1
  H  30  1  0.65486500  0.21367700  0.48882100  1
  H  31  1  0.55265800  0.23405500  0.45006600  1
  H  38  1  0.75848300  0.25856100  0.84462900  1
  H  46  1  0.68092500  0.28912700  0.80595800  1
  H  47  1  0.62616800  0.21413400  0.79186500  1
  H  48  1  0.72521800  0.23351300  0.83128300  1
  H  55  1  0.02568100  0.26152700  0.93617100  1
  H  63  1  0.09827300  0.28887000  0.97574100  1
  H  64  1  0.15487400  0.21367300  0.98882000  1
  H  65  1  0.05268400  0.23402400  0.95005600  1
  H  69  1  0.76012000  0.02455500  0.43755100  1
  H  76  1  0.64724300  0.06544700  0.49391900  1
  H  77  1  0.73040100  0.04920200  0.45238600  1
  H  79  1  0.02328500  0.02180100  0.34370900  1
  H  86  1  0.13337100  0.06595000  0.28727400  1
  H  87  1  0.04781000  0.04873100  0.32839800  1
  H  95  1  0.27168900  0.27438900  0.68742200  1
  H  102  1  0.35068900  0.24033000  0.72436100  1
  H  103  1  0.19308600  0.19872700  0.67877800  1
  H  104  1  0.27967900  0.22333600  0.71830400  1
  H  116  1  0.35098200  0.04034300  0.55677700  1
  H  117  1  0.19335500  0.08250300  0.60229800  1
  H  118  1  0.27997800  0.05758000  0.56283100  1
  H  130  1  0.93435500  0.04018700  0.72545600  1
  H  131  1  0.09691300  0.07909400  0.67922400  1
  H  132  1  0.01134900  0.05444200  0.72119600  1
  H  142  1  0.00720600  0.27165300  0.59386900  1
  H  149  1  0.93349400  0.24044300  0.55592000  1
  H  150  1  0.09707500  0.20190200  0.60189300  1
  H  151  1  0.01068200  0.22639100  0.56003900  1
  H  155  1  0.26019200  0.02451300  0.93756700  1
  H  162  1  0.14727900  0.06543800  0.99392800  1
  H  163  1  0.23049500  0.04917700  0.95240200  1
  H  165  1  0.52404800  0.02155400  0.84403500  1
  H  172  1  0.62894400  0.06524400  0.78692400  1
  H  173  1  0.54844600  0.04854700  0.82878400  1
  H  181  1  0.77159900  0.27436000  0.18736700  1
  H  188  1  0.85045000  0.24030700  0.22433400  1
  H  189  1  0.69296800  0.19869700  0.17872800  1
  H  190  1  0.77945900  0.22333100  0.21826300  1
  H  202  1  0.85093000  0.04031700  0.05670500  1
  H  203  1  0.69340800  0.08254300  0.10224700  1
  H  204  1  0.78001200  0.05760500  0.06277200  1
  H  216  1  0.43277400  0.04020300  0.22503600  1
  H  217  1  0.59669400  0.07923900  0.17909800  1
  H  218  1  0.50996900  0.05458400  0.22091500  1
  H  228  1  0.50724400  0.27168300  0.09387000  1
  H  235  1  0.43353900  0.24044600  0.05592100  1
  H  236  1  0.59728400  0.20201400  0.10191600  1
  H  237  1  0.51070100  0.22639300  0.06005400  1
  H  247  1  0.15480200  0.11842900  0.69237000  1
  H  249  1  0.03791900  0.11966100  0.72918000  1
  H  250  1  0.07183000  0.13766700  0.74023600  1
  H  251  1  0.03022300  0.15015400  0.72844300  1
  H  253  1  0.15016300  0.20000300  0.71240800  1
  H  255  1  0.05779000  0.10714800  0.69693000  1
  H  262  1  0.15503400  0.16262800  0.58871900  1
  H  264  1  0.03788900  0.16129100  0.55198300  1
  H  265  1  0.07178500  0.14330400  0.54091300  1
  H  266  1  0.03027000  0.13079500  0.55272200  1
  H  268  1  0.15040500  0.08104200  0.56875000  1
  H  270  1  0.05792400  0.17377200  0.58423600  1
  H  277  1  0.65357200  0.11866400  0.19215100  1
  H  279  1  0.53807300  0.11952600  0.22928400  1
  H  280  1  0.57234800  0.13743400  0.24030800  1
  H  281  1  0.53035500  0.15002500  0.22866000  1
  H  283  1  0.64981800  0.19999700  0.21227800  1
  H  285  1  0.55739700  0.10731300  0.19677000  1
  H  292  1  0.65464900  0.16252200  0.08881200  1
  H  294  1  0.53816800  0.16144500  0.05190600  1
  H  295  1  0.57224900  0.14356400  0.04081900  1
  H  296  1  0.53065600  0.13093600  0.05256400  1
  H  298  1  0.65041100  0.08113500  0.06869200  1
  H  300  1  0.55822500  0.17385200  0.08430800  1
  H  307  1  0.04996000  0.26349100  0.24570400  1
  H  309  1  0.88370000  0.26939000  0.26445100  1
  H  310  1  0.90397300  0.28422900  0.27899900  1
  H  311  1  0.89816400  0.25354300  0.27921600  1
  H  313  1  0.05118100  0.25732400  0.29904900  1
  H  315  1  0.97138500  0.27927700  0.23680300  1
  H  322  1  0.73195800  0.26405100  0.53539000  1
  H  324  1  0.89760000  0.26897700  0.51615400  1
  H  325  1  0.87704100  0.28337000  0.50148600  1
  H  326  1  0.88242200  0.25266600  0.50161700  1
  H  328  1  0.72881900  0.25684100  0.48203700  1
  H  330  1  0.81084500  0.27935000  0.54410600  1
  H  337  1  0.55012700  0.26360900  0.74571600  1
  H  339  1  0.38390200  0.26946200  0.76448600  1
  H  340  1  0.40419700  0.28425500  0.77904800  1
  H  341  1  0.39837700  0.25356800  0.77923400  1
  H  343  1  0.55144500  0.25733800  0.79905800  1
  H  345  1  0.47150300  0.27940200  0.73683800  1
  H  352  1  0.23201400  0.26396200  0.03538300  1
  H  354  1  0.39760500  0.26899000  0.01614100  1
  H  355  1  0.37700500  0.28347800  0.00150600  1
  H  356  1  0.38245900  0.25277300  0.00156500  1
  H  358  1  0.22882700  0.25684100  0.98202900  1
  H  360  1  0.31085400  0.27931300  0.04409400  1
  H  361  1  0.40182000  0.02729100  0.50194000  1
  H  363  1  0.55747400  0.02493900  0.48342700  1
  H  364  1  0.37843400  0.02791300  0.27928800  1
  H  366  1  0.22219700  0.02512100  0.29748800  1
  H  371  1  0.79986800  0.01598600  0.78636100  1
  H  373  1  0.63584100  0.01940600  0.76613200  1
  H  374  1  0.65691600  0.03380300  0.75151400  1
  H  376  1  0.72006500  0.03060000  0.79455200  1
  H  377  1  0.90185600  0.02758700  0.00195800  1
  H  379  1  0.05746200  0.02495900  0.98339300  1
  H  386  1  0.05930900  0.13564800  0.33015800  1
  H  388  1  0.20839400  0.09033900  0.32224400  1
  H  389  1  0.24316900  0.11108700  0.31319800  1
  H  390  1  0.19599100  0.09605800  0.30475700  1
  H  392  1  0.19124100  0.18576700  0.30670000  1
  H  394  1  0.08037400  0.09188600  0.33279300  1
  H  401  1  0.71857400  0.13571600  0.45042700  1
  H  403  1  0.57029400  0.09039900  0.45953300  1
  H  404  1  0.53639200  0.11120700  0.46878500  1
  H  405  1  0.58449700  0.09630400  0.47689500  1
  H  407  1  0.58784900  0.18596700  0.47433500  1
  H  409  1  0.69738900  0.09189900  0.44812900  1
  H  416  1  0.55861000  0.13584800  0.82995500  1
  H  418  1  0.70863700  0.09072300  0.82308100  1
  H  419  1  0.74293500  0.11093000  0.81347200  1
  H  420  1  0.69575900  0.09516700  0.80551000  1
  H  422  1  0.69122900  0.18567700  0.80667600  1
  H  424  1  0.58020800  0.09201600  0.83302500  1
  H  431  1  0.21871000  0.13570500  0.95046500  1
  H  433  1  0.07035600  0.09039000  0.95947400  1
  H  434  1  0.03641900  0.11117700  0.96873400  1
  H  435  1  0.08448200  0.09624700  0.97684600  1
  H  437  1  0.08788300  0.18594100  0.97433200  1
  H  439  1  0.19750300  0.09188300  0.94813900  1
  H  445  1  0.39499300  0.24148700  0.40048700  1
  H  448  1  0.46601600  0.25421800  0.41493900  1
  H  454  1  0.89485300  0.24151700  0.90058500  1
  H  457  1  0.96563100  0.25409100  0.91499300  1
  H  460  1  0.89289300  0.04188000  0.38005000  1
  H  461  1  0.96443700  0.02934600  0.36569500  1
  H  468  1  0.13784800  0.29190300  0.63013200  1
  H  470  1  0.04580800  0.21985200  0.62590900  1
  H  471  1  0.09714500  0.20199400  0.62936100  1
  H  472  1  0.05704300  0.21055500  0.64264200  1
  H  474  1  0.21862000  0.22858200  0.66019800  1
  H  476  1  0.06629600  0.27930800  0.61579500  1
  H  482  1  0.04512500  0.06099400  0.65522700  1
  H  483  1  0.09610500  0.07903500  0.65170000  1
  H  484  1  0.05607000  0.07021200  0.63846200  1
  H  486  1  0.21814600  0.05273500  0.62094900  1
  H  490  1  0.39335200  0.04175100  0.88011300  1
  H  491  1  0.46452200  0.02924600  0.86579600  1
  H  498  1  0.63801300  0.29186800  0.13003300  1
  H  500  1  0.54535800  0.21998100  0.12591000  1
  H  501  1  0.59650000  0.20203300  0.12941600  1
  H  502  1  0.55643800  0.21076400  0.14266800  1
  H  504  1  0.71845000  0.22852600  0.16014100  1
  H  506  1  0.56673300  0.27943500  0.11572500  1
  H  512  1  0.54480800  0.06114700  0.15498800  1
  H  513  1  0.59585900  0.07916300  0.15149700  1
  H  514  1  0.55596100  0.07033700  0.13822800  1
  H  516  1  0.71834400  0.05271600  0.12090300  1
  H  522  1  0.33771300  0.33419100  0.35147000  1
  H  523  1  0.24846200  0.30781300  0.31277100  1
  H  531  1  0.25846800  0.52254800  0.43652000  1
  H  540  1  0.18123100  0.49162900  0.47514800  1
  H  541  1  0.33812000  0.44700700  0.42949900  1
  H  542  1  0.12547300  0.56635000  0.48935100  1
  H  543  1  0.24902900  0.47311600  0.46827400  1
  H  544  1  0.22489000  0.54747500  0.44991800  1
  H  555  1  0.52536300  0.51958100  0.34469900  1
  H  564  1  0.59758400  0.49184800  0.30517000  1
  H  565  1  0.43347700  0.45031500  0.35103400  1
  H  566  1  0.65514000  0.56674900  0.29190000  1
  H  567  1  0.52271100  0.47642700  0.30992500  1
  H  568  1  0.55272000  0.54697600  0.33074000  1
  H  577  1  0.43394200  0.33086900  0.42998900  1
  H  578  1  0.52344800  0.30455000  0.47103100  1
  H  586  1  0.77352200  0.50869500  0.59475500  1
  H  595  1  0.85105800  0.53955400  0.55619700  1
  H  596  1  0.69293900  0.58407400  0.60157200  1
  H  597  1  0.90249300  0.46470700  0.54145200  1
  H  598  1  0.78295700  0.55801500  0.56294400  1
  H  599  1  0.80698100  0.48372200  0.58135800  1
  H  610  1  0.50578600  0.51140400  0.68632700  1
  H  619  1  0.43352800  0.53914400  0.72585100  1
  H  620  1  0.59770200  0.58064600  0.67997800  1
  H  621  1  0.37596900  0.46423400  0.73911100  1
  H  622  1  0.50838700  0.55458100  0.72109000  1
  H  623  1  0.47841100  0.48401600  0.70028300  1
  H  632  1  0.83781000  0.33420700  0.85151500  1
  H  633  1  0.74874400  0.30781400  0.81278800  1
  H  641  1  0.75857500  0.52250400  0.93652100  1
  H  650  1  0.68127700  0.49159800  0.97514400  1
  H  651  1  0.83817600  0.44693900  0.92951500  1
  H  652  1  0.62553100  0.56632200  0.98934600  1
  H  653  1  0.74906300  0.47307800  0.96827500  1
  H  654  1  0.72496200  0.54743300  0.94991300  1
  H  665  1  0.02620500  0.51939600  0.84494400  1
  H  674  1  0.09890800  0.49167300  0.80551600  1
  H  675  1  0.93349800  0.45034100  0.85112000  1
  H  676  1  0.15234200  0.56671500  0.79169700  1
  H  677  1  0.02383100  0.47630200  0.81014600  1
  H  678  1  0.05362600  0.54680400  0.83100100  1
  H  687  1  0.93386800  0.33079100  0.92996000  1
  H  688  1  0.02337800  0.30450100  0.97101900  1
  H  696  1  0.27337800  0.50870500  0.09470800  1
  H  705  1  0.35103600  0.53956300  0.05616300  1
  H  706  1  0.19296100  0.58410000  0.10154800  1
  H  707  1  0.40248700  0.46470800  0.04143600  1
  H  708  1  0.28299300  0.55805300  0.06291600  1
  H  709  1  0.30694200  0.48374500  0.08133100  1
  H  720  1  0.00489900  0.51161500  0.18607300  1
  H  729  1  0.93216800  0.53931400  0.22550700  1
  H  730  1  0.09744200  0.58070200  0.17987400  1
  H  731  1  0.87874400  0.46424400  0.23929400  1
  H  732  1  0.00718800  0.55472700  0.22086400  1
  H  733  1  0.97749100  0.48420500  0.20001000  1
  H  740  1  0.38007500  0.31412900  0.74450400  1
  H  741  1  0.30141100  0.29901000  0.70230800  1
  H  745  1  0.90124100  0.31461400  0.53670500  1
  H  746  1  0.98231100  0.29854500  0.57853000  1
  H  750  1  0.88012900  0.31410600  0.24443300  1
  H  751  1  0.80148300  0.29898800  0.20222700  1
  H  755  1  0.40116800  0.31461200  0.03671400  1
  H  756  1  0.48229000  0.29856000  0.07853200  1
  H  764  1  0.37799400  0.41256700  0.33798400  1
  H  766  1  0.49287100  0.41079000  0.30070700  1
  H  767  1  0.45779400  0.39319300  0.28970500  1
  H  768  1  0.49942400  0.38022500  0.30131400  1
  H  770  1  0.37929500  0.33133700  0.31805600  1
  H  772  1  0.47509600  0.42296600  0.33310300  1
  H  779  1  0.37895800  0.36853400  0.44297800  1
  H  781  1  0.49332200  0.37027200  0.48037600  1
  H  782  1  0.45808300  0.38784800  0.49135000  1
  H  783  1  0.49986000  0.40083900  0.47979100  1
  H  785  1  0.37987000  0.44973800  0.46294100  1
  H  787  1  0.47594200  0.35813800  0.44793800  1
  H  792  1  0.65343300  0.61836100  0.69311500  1
  H  794  1  0.53784900  0.62029200  0.73022700  1
  H  795  1  0.57267400  0.63798800  0.74123400  1
  H  797  1  0.55604200  0.60801500  0.69790200  1
  H  803  1  0.57281300  0.64279800  0.53975400  1
  H  804  1  0.53118700  0.62994100  0.55140400  1
  H  806  1  0.65172600  0.58126100  0.56820300  1
  H  813  1  0.87785400  0.41283400  0.83786500  1
  H  815  1  0.99392500  0.41053100  0.80090300  1
  H  816  1  0.95925800  0.39274800  0.78990500  1
  H  817  1  0.00049200  0.37998000  0.80169700  1
  H  819  1  0.87963800  0.33136100  0.81819800  1
  H  821  1  0.97515800  0.42291400  0.83325600  1
  H  828  1  0.87915800  0.36854800  0.94296500  1
  H  830  1  0.99301000  0.37008100  0.98047800  1
  H  831  1  0.95775200  0.38770400  0.99141800  1
  H  832  1  0.99974900  0.40063800  0.97989900  1
  H  834  1  0.87995300  0.44967700  0.96288900  1
  H  836  1  0.97567400  0.35806300  0.94790900  1
  H  841  1  0.15226000  0.61859900  0.19289400  1
  H  843  1  0.03808200  0.62008700  0.23033000  1
  H  844  1  0.07325700  0.63768600  0.24130500  1
  H  845  1  0.03138100  0.65064700  0.22976400  1
  H  847  1  0.05573800  0.60812500  0.19774600  1
  H  853  1  0.07331800  0.64307600  0.03968400  1
  H  854  1  0.03160100  0.63009200  0.05126100  1
  H  856  1  0.15174900  0.58135000  0.06815800  1
  H  863  1  0.05445900  0.51633600  0.53569800  1
  H  865  1  0.88626000  0.51115100  0.51805000  1
  H  866  1  0.90498000  0.49622500  0.50337300  1
  H  867  1  0.90008300  0.52695100  0.50323500  1
  H  869  1  0.05125000  0.52292000  0.48240900  1
  H  871  1  0.97837000  0.50311500  0.54591600  1
  H  878  1  0.72713000  0.51548600  0.24517700  1
  H  880  1  0.89479100  0.51141700  0.26327700  1
  H  881  1  0.87584300  0.49704900  0.27811800  1
  H  882  1  0.88031600  0.52778700  0.27783300  1
  H  884  1  0.72860600  0.52337500  0.29847600  1
  H  886  1  0.80369200  0.50274100  0.23515200  1
  H  893  1  0.30386700  0.51524200  0.78583400  1
  H  895  1  0.13632400  0.51986900  0.76773900  1
  H  896  1  0.15544400  0.53436900  0.75295600  1
  H  897  1  0.15059700  0.50364000  0.75311100  1
  H  899  1  0.30250500  0.50765900  0.73253000  1
  H  901  1  0.22739700  0.52830100  0.79582400  1
  H  908  1  0.55446000  0.51633600  0.03568300  1
  H  910  1  0.38627600  0.51115100  0.01802400  1
  H  911  1  0.40501000  0.49621300  0.00335300  1
  H  912  1  0.40011700  0.52693800  0.00320600  1
  H  914  1  0.55129100  0.52290100  0.98239900  1
  H  916  1  0.47836300  0.50312200  0.04589800  1
  H  923  1  0.06021400  0.64540200  0.45059100  1
  H  925  1  0.19040900  0.59488000  0.47476600  1
  H  930  1  0.71793300  0.64531600  0.33071600  1
  H  932  1  0.58874300  0.59473400  0.30619600  1
  H  939  1  0.97058300  0.38566200  0.58035900  1
  H  941  1  0.82230600  0.34046600  0.57101500  1
  H  942  1  0.78886500  0.36124700  0.56161400  1
  H  943  1  0.83714000  0.34620900  0.55367600  1
  H  945  1  0.83921600  0.43615600  0.55653100  1
  H  947  1  0.94991100  0.34197100  0.58257900  1
  H  954  1  0.31286500  0.38575400  0.70044900  1
  H  956  1  0.46063200  0.34060000  0.71056800  1
  H  957  1  0.49334400  0.36140000  0.72015300  1
  H  958  1  0.44446900  0.34637600  0.72781300  1
  H  960  1  0.44245800  0.43624200  0.72481300  1
  H  962  1  0.33385400  0.34200900  0.69840200  1
  H  967  1  0.56000900  0.64534300  0.95067300  1
  H  969  1  0.69037500  0.59488000  0.97475900  1
  H  974  1  0.21751300  0.64533200  0.83081700  1
  H  976  1  0.08758400  0.59469700  0.80646500  1
  H  983  1  0.47056200  0.38567700  0.08034300  1
  H  985  1  0.32226400  0.34048300  0.07102200  1
  H  986  1  0.28882600  0.36125800  0.06161400  1
  H  987  1  0.33709300  0.34620700  0.05368100  1
  H  989  1  0.33919200  0.43616400  0.05651400  1
  H  991  1  0.44991200  0.34199200  0.08257000  1
  H  998  1  0.81323700  0.38576600  0.20036400  1
  H  1000  1  0.96089100  0.34054600  0.21050700  1
  H  1001  1  0.99359200  0.36132000  0.22011500  1
  H  1002  1  0.94462200  0.34631600  0.22774400  1
  H  1004  1  0.94366900  0.43627900  0.22452300  1
  H  1006  1  0.83399300  0.34202700  0.19834800  1
  H  1009  1  0.48490900  0.31402300  0.40534300  1
  H  1010  1  0.43292800  0.33162500  0.40219700  1
  H  1011  1  0.47297900  0.32381400  0.38874600  1
  H  1012  1  0.31341700  0.30529400  0.37064400  1
  H  1019  1  0.39500800  0.53973300  0.38054500  1
  H  1021  1  0.48450200  0.46709800  0.37559900  1
  H  1022  1  0.43245900  0.44955000  0.37876900  1
  H  1023  1  0.47264600  0.45730600  0.39220000  1
  H  1025  1  0.31329100  0.47594600  0.41038000  1
  H  1027  1  0.46590300  0.52695400  0.36605500  1
  H  1034  1  0.63650400  0.49137200  0.65061400  1
  H  1036  1  0.54597700  0.56374900  0.65541300  1
  H  1037  1  0.59774900  0.58145100  0.65219900  1
  H  1038  1  0.55768700  0.57346200  0.63878600  1
  H  1040  1  0.71759600  0.55529100  0.62074900  1
  H  1042  1  0.56577700  0.50392200  0.66505600  1
  H  1045  1  0.98543500  0.31389100  0.90530600  1
  H  1046  1  0.93364800  0.33158700  0.90209800  1
  H  1047  1  0.97367000  0.32358500  0.88867800  1
  H  1048  1  0.81362100  0.30531000  0.87068600  1
  H  1055  1  0.89533300  0.53963900  0.88055800  1
  H  1057  1  0.98514600  0.46706700  0.87572800  1
  H  1058  1  0.93317600  0.44947900  0.87891000  1
  H  1059  1  0.97326800  0.45734000  0.89234200  1
  H  1061  1  0.81355200  0.47587400  0.91039400  1
  H  1063  1  0.96597900  0.52696300  0.86612600  1
  H  1070  1  0.13614400  0.49144700  0.15054500  1
  H  1072  1  0.04567500  0.56385900  0.15523500  1
  H  1073  1  0.09751100  0.58153400  0.15205100  1
  H  1074  1  0.05755600  0.57354900  0.13861200  1
  H  1076  1  0.21770100  0.55526200  0.12072800  1
  H  1078  1  0.06524400  0.50404300  0.16491100  1
  H  1090  1  0.77268700  0.77244400  0.68639300  1
  H  1099  1  0.85023000  0.74192200  0.72508900  1
  H  1100  1  0.69324300  0.69682500  0.67954600  1
  H  1101  1  0.90509700  0.81692900  0.73910500  1
  H  1102  1  0.78247700  0.72321300  0.71824500  1
  H  1103  1  0.80600300  0.79749000  0.69971800  1
  H  1114  1  0.50550400  0.76945300  0.59477700  1
  H  1123  1  0.43294600  0.74212400  0.55520500  1
  H  1124  1  0.59714500  0.70011100  0.60099400  1
  H  1125  1  0.37630600  0.81731900  0.54212100  1
  H  1126  1  0.50782300  0.72646300  0.55993400  1
  H  1127  1  0.47852800  0.79696700  0.58089300  1
  H  1138  1  0.27254400  0.77243900  0.18636300  1
  H  1147  1  0.34999600  0.74191200  0.22505700  1
  H  1148  1  0.19319400  0.69680500  0.17948500  1
  H  1149  1  0.40472800  0.81691700  0.23913500  1
  H  1150  1  0.28215300  0.72322600  0.21822700  1
  H  1151  1  0.30572600  0.79750700  0.19971400  1
  H  1162  1  0.00552900  0.76947900  0.09480000  1
  H  1171  1  0.93298200  0.74212400  0.05523200  1
  H  1172  1  0.09731800  0.70021100  0.10104700  1
  H  1173  1  0.87640400  0.81731500  0.04212400  1
  H  1174  1  0.00785400  0.72646100  0.05997200  1
  H  1175  1  0.97854600  0.79698200  0.08091000  1
  H  1186  1  0.75930400  0.75663200  0.34359300  1
  H  1195  1  0.68022600  0.79071600  0.30667500  1
  H  1196  1  0.83789800  0.83230900  0.35223900  1
  H  1197  1  0.65091300  0.71693800  0.28650300  1
  H  1198  1  0.75124200  0.80770500  0.31272300  1
  H  1199  1  0.72955900  0.73201800  0.32870500  1
  H  1212  1  0.68150800  0.99067500  0.47466600  1
  H  1213  1  0.83770700  0.94868400  0.42879700  1
  H  1214  1  0.75213900  0.97352100  0.46844400  1
  H  1226  1  0.09664600  0.99083200  0.30559100  1
  H  1227  1  0.93424100  0.95189000  0.35184800  1
  H  1228  1  0.01966700  0.97657700  0.30986100  1
  H  1238  1  0.02386000  0.75932000  0.43714900  1
  H  1247  1  0.09772900  0.79059400  0.47504900  1
  H  1248  1  0.93395900  0.82904800  0.42910500  1
  H  1249  1  0.12975600  0.71646300  0.49434600  1
  H  1250  1  0.02049400  0.80463200  0.47095700  1
  H  1251  1  0.04862500  0.73245100  0.45252500  1
  H  1256  1  0.27173800  0.00673600  0.59382500  1
  H  1263  1  0.37904200  0.96634400  0.53673600  1
  H  1264  1  0.30110700  0.98198600  0.57901700  1
  H  1266  1  0.00775900  0.00921800  0.68735000  1
  H  1273  1  0.89757800  0.96506700  0.74376500  1
  H  1274  1  0.98322300  0.98228500  0.70265600  1
  H  1282  1  0.25941300  0.75666000  0.84364000  1
  H  1291  1  0.18044100  0.79076100  0.80671100  1
  H  1292  1  0.33802300  0.83233500  0.85229000  1
  H  1293  1  0.15087600  0.71700400  0.78655300  1
  H  1294  1  0.25145100  0.80772600  0.81276600  1
  H  1295  1  0.22949600  0.73204800  0.82877000  1
  H  1308  1  0.18149000  0.99065600  0.97466800  1
  H  1309  1  0.33773000  0.94861700  0.92884000  1
  H  1310  1  0.25215900  0.97350400  0.96847200  1
  H  1322  1  0.59819200  0.99081800  0.80600500  1
  H  1323  1  0.43415800  0.95182400  0.85192600  1
  H  1324  1  0.52098300  0.97645900  0.81012800  1
  H  1333  1  0.52385000  0.75930400  0.93714000  1
  H  1342  1  0.59768300  0.79053700  0.97506300  1
  H  1343  1  0.43389500  0.82899900  0.92910300  1
  H  1344  1  0.62974600  0.71637500  0.99432100  1
  H  1345  1  0.52044400  0.80458000  0.97096400  1
  H  1346  1  0.54860700  0.73242300  0.95250700  1
  H  1351  1  0.77160300  0.00676400  0.09376300  1
  H  1358  1  0.87912500  0.96626600  0.03673900  1
  H  1359  1  0.80105100  0.98200500  0.07898700  1
  H  1361  1  0.50693600  0.00948900  0.18700600  1
  H  1368  1  0.40207300  0.96576500  0.24411000  1
  H  1369  1  0.48256500  0.98248700  0.20225200  1
  H  1373  1  0.53120900  0.65084700  0.72954000  1
  H  1375  1  0.65165300  0.69970900  0.71296000  1
  H  1378  1  0.65273400  0.66270500  0.58792500  1
  H  1379  1  0.53772500  0.66049900  0.55069300  1
  H  1381  1  0.55528000  0.67284600  0.58302100  1
  H  1385  1  0.15127400  0.69968800  0.21283300  1
  H  1388  1  0.15231500  0.66258200  0.08805100  1
  H  1389  1  0.03802800  0.66066300  0.05063800  1
  H  1391  1  0.05554800  0.67291300  0.08312200  1
  H  1398  1  0.87656500  0.91245900  0.33877700  1
  H  1400  1  0.99274200  0.91147000  0.30179700  1
  H  1401  1  0.95858400  0.89358300  0.29073200  1
  H  1402  1  0.00036800  0.88096700  0.30243000  1
  H  1404  1  0.88076200  0.83104300  0.31859400  1
  H  1406  1  0.97324900  0.92384300  0.33413000  1
  H  1413  1  0.87631200  0.86852700  0.44227700  1
  H  1415  1  0.99347500  0.86958600  0.47901500  1
  H  1416  1  0.95965700  0.88752200  0.49013200  1
  H  1417  1  0.00113700  0.90008300  0.47833200  1
  H  1419  1  0.88125700  0.94999300  0.46242500  1
  H  1421  1  0.97318700  0.85720300  0.44672700  1
  H  1428  1  0.37654800  0.91270400  0.83866100  1
  H  1430  1  0.49380500  0.91118000  0.80197100  1
  H  1431  1  0.46002100  0.89311300  0.79091900  1
  H  1432  1  0.50142000  0.88068700  0.80279000  1
  H  1434  1  0.38109300  0.83105200  0.81874700  1
  H  1436  1  0.47341500  0.92374300  0.83427300  1
  H  1443  1  0.37679300  0.86863100  0.94222400  1
  H  1445  1  0.49292300  0.86933200  0.97921000  1
  H  1446  1  0.45891800  0.88726800  0.99028300  1
  H  1447  1  0.50077900  0.89982300  0.97858500  1
  H  1449  1  0.38134900  0.94993900  0.96238800  1
  H  1451  1  0.47298300  0.85713900  0.94673200  1
  H  1458  1  0.98101800  0.76781200  0.78533500  1
  H  1460  1  0.14715500  0.76140400  0.76659600  1
  H  1461  1  0.12672400  0.74643100  0.75211100  1
  H  1462  1  0.13283300  0.77710100  0.75176500  1
  H  1464  1  0.97973600  0.77366600  0.73198800  1
  H  1466  1  0.05952800  0.75174600  0.79420500  1
  H  1473  1  0.29911100  0.76714800  0.49560300  1
  H  1475  1  0.13360000  0.76181700  0.51483800  1
  H  1476  1  0.15431100  0.74723600  0.52943000  1
  H  1477  1  0.14863600  0.77793200  0.52946200  1
  H  1479  1  0.30239600  0.77407000  0.54895900  1
  H  1481  1  0.22026400  0.75159700  0.48693000  1
  H  1488  1  0.48073700  0.76734500  0.28531400  1
  H  1490  1  0.64699000  0.76161900  0.26654200  1
  H  1491  1  0.62672800  0.74690900  0.25195000  1
  H  1492  1  0.63249700  0.77760000  0.25182800  1
  H  1494  1  0.47943700  0.77371200  0.23196400  1
  H  1496  1  0.55946700  0.75163000  0.29418900  1
  H  1503  1  0.79919000  0.76686800  0.99558500  1
  H  1505  1  0.63360300  0.76195500  0.01484600  1
  H  1506  1  0.65419100  0.74759600  0.02952400  1
  H  1507  1  0.64878900  0.77830200  0.02937100  1
  H  1509  1  0.80245400  0.77416400  0.04893200  1
  H  1511  1  0.72024100  0.75155200  0.98689600  1
  H  1517  1  0.55061400  0.01561800  0.53624800  1
  H  1519  1  0.38585100  0.01126000  0.51652400  1
  H  1520  1  0.40656700  0.99655900  0.50197200  1
  H  1522  1  0.47109300  0.00048900  0.54462000  1
  H  1527  1  0.23111800  0.01503600  0.24466200  1
  H  1529  1  0.39512900  0.01154000  0.26489700  1
  H  1530  1  0.37402400  0.99717100  0.27952100  1
  H  1532  1  0.31092000  0.00039200  0.23648000  1
  H  1533  1  0.65256100  0.00306000  0.75173300  1
  H  1535  1  0.80875400  0.00590500  0.73353600  1
  H  1541  1  0.05064000  0.01539700  0.03620900  1
  H  1543  1  0.88578000  0.01141500  0.01647900  1
  H  1544  1  0.90640500  0.99684700  0.00187300  1
  H  1546  1  0.97108800  0.00050500  0.04461800  1
  H  1550  1  0.20829900  0.69053500  0.46031300  1
  H  1551  1  0.24162700  0.66962300  0.46964100  1
  H  1552  1  0.19327400  0.68454900  0.47761600  1
  H  1554  1  0.08094800  0.68907100  0.44847800  1
  H  1558  1  0.57048800  0.69043600  0.32014000  1
  H  1559  1  0.53795900  0.66952000  0.31059800  1
  H  1560  1  0.58703200  0.68441800  0.30294800  1
  H  1562  1  0.69707400  0.68903500  0.33260600  1
  H  1569  1  0.97167400  0.89538500  0.70084900  1
  H  1571  1  0.82261700  0.94067800  0.70881300  1
  H  1572  1  0.78785400  0.91991900  0.71785400  1
  H  1573  1  0.83504500  0.93493700  0.72629600  1
  H  1575  1  0.83974000  0.84524600  0.72430300  1
  H  1577  1  0.95057700  0.93915100  0.69823800  1
  H  1584  1  0.31153800  0.89506000  0.58035700  1
  H  1586  1  0.46070200  0.94030800  0.57224500  1
  H  1587  1  0.49422700  0.91998900  0.56251100  1
  H  1588  1  0.44617900  0.93552800  0.55479900  1
  H  1590  1  0.44297100  0.84516100  0.55660900  1
  H  1592  1  0.33328400  0.93896500  0.58310100  1
  H  1596  1  0.70833300  0.69047400  0.96011600  1
  H  1597  1  0.74174500  0.66961800  0.96946600  1
  H  1598  1  0.69350700  0.68462200  0.97744600  1
  H  1600  1  0.58079800  0.68901900  0.94846500  1
  H  1604  1  0.07023800  0.69050000  0.82012800  1
  H  1605  1  0.03777900  0.66959200  0.81056000  1
  H  1606  1  0.08698900  0.68445700  0.80295500  1
  H  1608  1  0.19687400  0.68904400  0.83264900  1
  H  1615  1  0.47235700  0.89518500  0.20104800  1
  H  1617  1  0.32235800  0.94031200  0.20794200  1
  H  1618  1  0.28805700  0.92010200  0.21754900  1
  H  1619  1  0.33524000  0.93585700  0.22551100  1
  H  1621  1  0.33970400  0.84535700  0.22431900  1
  H  1623  1  0.45069900  0.93902900  0.19798400  1
  H  1630  1  0.81131400  0.89504300  0.08024600  1
  H  1632  1  0.96069700  0.94028400  0.07245000  1
  H  1633  1  0.99434600  0.92002900  0.06270000  1
  H  1634  1  0.94643800  0.93564800  0.05497600  1
  H  1636  1  0.94299500  0.84518500  0.05662200  1
  H  1638  1  0.83307800  0.93895200  0.08308300  1
  H  1645  1  0.63594400  0.78951700  0.63053600  1
  H  1647  1  0.54626600  0.71692600  0.62562500  1
  H  1648  1  0.59829500  0.69935100  0.62876500  1
  H  1649  1  0.55820700  0.70711900  0.64221700  1
  H  1651  1  0.71760400  0.72569800  0.66037100  1
  H  1653  1  0.56501600  0.77676200  0.61605900  1
  H  1660  1  0.13616700  0.78948500  0.13043500  1
  H  1662  1  0.04579800  0.71706100  0.12567300  1
  H  1663  1  0.09762700  0.69938900  0.12887300  1
  H  1664  1  0.05758800  0.70735200  0.14229700  1
  H  1666  1  0.21757900  0.72567900  0.16030300  1
  H  1668  1  0.06543300  0.77688900  0.11601700  1
  H  1675  1  0.89302900  0.73908600  0.40091000  1
  H  1677  1  0.98539800  0.81104700  0.40510400  1
  H  1678  1  0.93414600  0.82895200  0.40163500  1
  H  1679  1  0.97423500  0.82033100  0.38836400  1
  H  1681  1  0.81255200  0.80243100  0.37081400  1
  H  1683  1  0.96464600  0.75163000  0.41524200  1
  H  1689  1  0.98531100  0.96993900  0.37585800  1
  H  1690  1  0.93410200  0.95203000  0.37936700  1
  H  1691  1  0.97427800  0.96068300  0.39261000  1
  H  1693  1  0.81264700  0.97861600  0.41023600  1
  H  1697  1  0.13835800  0.98927600  0.65110700  1
  H  1698  1  0.06706700  0.00159100  0.66543900  1
  H  1705  1  0.39290500  0.73914500  0.90101800  1
  H  1707  1  0.48586800  0.81095200  0.90509100  1
  H  1708  1  0.43479600  0.82893500  0.90156900  1
  H  1709  1  0.47484000  0.82015000  0.88832700  1
  H  1711  1  0.31274400  0.80247700  0.87086900  1
  H  1713  1  0.46424400  0.75153900  0.91531500  1
  H  1719  1  0.48573600  0.96978200  0.87600500  1
  H  1720  1  0.43450300  0.95188300  0.87949500  1
  H  1721  1  0.47456900  0.96056300  0.89275700  1
  H  1723  1  0.31274500  0.97853100  0.91027900  1
  H  1727  1  0.63806100  0.98941000  0.15102800  1
  H  1728  1  0.56658300  0.00178700  0.16527200  1
  C  1  1  0.24625100  0.27988500  0.32708500  1
  C  2  1  0.26838400  0.27347000  0.33978500  1
  C  3  1  0.30367900  0.28711800  0.34669100  1
  C  5  1  0.21027100  0.26467300  0.32008700  1
  C  6  1  0.20399400  0.24079700  0.32385900  1
  C  7  1  0.17060800  0.22555000  0.31742700  1
  C  8  1  0.14178100  0.23404800  0.30662300  1
  C  9  1  0.14456500  0.25760200  0.30251700  1
  C  10  1  0.17926800  0.27226300  0.30913800  1
  C  18  1  0.53144300  0.27983700  0.45504300  1
  C  19  1  0.51215200  0.27505100  0.44177200  1
  C  20  1  0.47450300  0.28842000  0.43563200  1
  C  22  1  0.56827500  0.26466100  0.46158500  1
  C  23  1  0.57439900  0.24098500  0.45747000  1
  C  24  1  0.60836700  0.22565100  0.46360600  1
  C  25  1  0.63791400  0.23394600  0.47433700  1
  C  26  1  0.63523700  0.25737300  0.47870800  1
  C  27  1  0.59984800  0.27209500  0.47243100  1
  C  35  1  0.74647700  0.27988900  0.82710100  1
  C  36  1  0.76856300  0.27347500  0.83980700  1
  C  37  1  0.80381600  0.28712700  0.84672800  1
  C  39  1  0.71052400  0.26467100  0.82009200  1
  C  40  1  0.70424900  0.24078700  0.82385100  1
  C  41  1  0.67090400  0.22553600  0.81740300  1
  C  42  1  0.64208200  0.23405300  0.80660000  1
  C  43  1  0.64484000  0.25761800  0.80251200  1
  C  44  1  0.67952300  0.27227400  0.80914600  1
  C  52  1  0.03143200  0.27980200  0.95502700  1
  C  53  1  0.01215400  0.27501700  0.94175300  1
  C  54  1  0.97448000  0.28837300  0.93561300  1
  C  56  1  0.06827500  0.26463600  0.96157200  1
  C  57  1  0.07441500  0.24095900  0.95746100  1
  C  58  1  0.10838500  0.22563000  0.96360200  1
  C  59  1  0.13792100  0.23393500  0.97433300  1
  C  60  1  0.13523000  0.25736400  0.97870100  1
  C  61  1  0.09983600  0.27207700  0.97241900  1
  C  70  1  0.71412800  0.01691200  0.46222000  1
  C  71  1  0.70964500  0.04137700  0.45967700  1
  C  72  1  0.67850400  0.05621100  0.46729300  1
  C  73  1  0.65175900  0.04658900  0.47817500  1
  C  74  1  0.65050700  0.02235500  0.48049000  1
  C  80  1  0.06429000  0.01691500  0.31816500  1
  C  81  1  0.06902300  0.04121000  0.32107300  1
  C  82  1  0.10076700  0.05613000  0.31370100  1
  C  83  1  0.12800900  0.04670400  0.30283700  1
  C  84  1  0.12902600  0.02253800  0.30025400  1
  C  89  1  0.28297600  0.25185900  0.70441900  1
  C  90  1  0.26150800  0.25906200  0.69178900  1
  C  91  1  0.22678200  0.24567300  0.68445400  1
  C  92  1  0.21192100  0.22409700  0.69000000  1
  C  93  1  0.23135800  0.21581500  0.70243800  1
  C  94  1  0.26683900  0.22962800  0.70927700  1
  C  97  1  0.31790000  0.26665400  0.71203800  1
  C  98  1  0.32216300  0.29114900  0.70958600  1
  C  99  1  0.37907900  0.29628700  0.72830700  1
  C  100  1  0.38142300  0.27196800  0.73037700  1
  C  101  1  0.34976300  0.25774800  0.72243400  1
  C  108  1  0.28310500  0.02913600  0.57677100  1
  C  109  1  0.26162700  0.02204300  0.58942200  1
  C  110  1  0.22695500  0.03549800  0.59673300  1
  C  111  1  0.21217600  0.05705000  0.59114000  1
  C  112  1  0.23165400  0.06524700  0.57868500  1
  C  113  1  0.26709100  0.05136100  0.57187100  1
  C  115  1  0.34976700  0.02293400  0.55872900  1
  C  122  1  0.00251100  0.02891200  0.70569400  1
  C  123  1  0.02110500  0.02329400  0.69246600  1
  C  124  1  0.05781300  0.03661100  0.68582300  1
  C  125  1  0.07530400  0.05696900  0.69224600  1
  C  126  1  0.05712500  0.06408000  0.70507400  1
  C  127  1  0.02214800  0.04962400  0.71165200  1
  C  129  1  0.93472900  0.02283000  0.72329200  1
  C  136  1  0.00179300  0.25189900  0.57555500  1
  C  137  1  0.02057100  0.25758300  0.58875100  1
  C  138  1  0.05749300  0.24433600  0.59534900  1
  C  139  1  0.07506700  0.22400700  0.58891300  1
  C  140  1  0.05677000  0.21684700  0.57610800  1
  C  141  1  0.02155200  0.23122900  0.56957300  1
  C  144  1  0.96584000  0.26664400  0.56838700  1
  C  145  1  0.96117000  0.29096800  0.57120900  1
  C  146  1  0.90317400  0.29634100  0.55272900  1
  C  147  1  0.90126300  0.27207900  0.55038500  1
  C  148  1  0.93378000  0.25782300  0.55802600  1
  C  156  1  0.21417900  0.01689100  0.96223400  1
  C  157  1  0.20972600  0.04135800  0.95969100  1
  C  158  1  0.17858600  0.05619800  0.96730500  1
  C  159  1  0.15181800  0.04658000  0.97818400  1
  C  160  1  0.15053400  0.02234500  0.98049500  1
  C  166  1  0.56534900  0.01679400  0.81853000  1
  C  167  1  0.56962300  0.04110200  0.82142400  1
  C  168  1  0.60052200  0.05617600  0.81390200  1
  C  169  1  0.62735500  0.04688900  0.80292200  1
  C  170  1  0.62980500  0.02265000  0.80052800  1
  C  175  1  0.78283600  0.25184200  0.20436900  1
  C  176  1  0.76139900  0.25903600  0.19173400  1
  C  177  1  0.72668400  0.24564500  0.18439400  1
  C  178  1  0.71178400  0.22407800  0.18994500  1
  C  179  1  0.73116700  0.21580200  0.20239100  1
  C  180  1  0.76665100  0.22961700  0.20923100  1
  C  183  1  0.81779300  0.26663400  0.21198600  1
  C  184  1  0.82217700  0.29112300  0.20951700  1
  C  185  1  0.87907400  0.29624300  0.22824400  1
  C  186  1  0.88130100  0.27192800  0.23033200  1
  C  187  1  0.84959600  0.25772200  0.22239300  1
  C  194  1  0.78305600  0.02915700  0.07671000  1
  C  195  1  0.76153400  0.02207200  0.08935600  1
  C  196  1  0.72686700  0.03554200  0.09665800  1
  C  197  1  0.71214600  0.05710300  0.09106800  1
  C  198  1  0.73166800  0.06529200  0.07861700  1
  C  199  1  0.76709000  0.05139000  0.07180800  1
  C  201  1  0.84972500  0.02291500  0.05867400  1
  C  208  1  0.50136900  0.02912800  0.20536200  1
  C  209  1  0.52021300  0.02354100  0.19216000  1
  C  210  1  0.55714100  0.03683300  0.18560100  1
  C  211  1  0.57460500  0.05714500  0.19207700  1
  C  212  1  0.55615900  0.06424000  0.20488000  1
  C  213  1  0.52095000  0.04980200  0.21137900  1
  C  215  1  0.43342200  0.02283500  0.22289900  1
  C  222  1  0.50182700  0.25191800  0.07556000  1
  C  223  1  0.52061600  0.25761400  0.08875300  1
  C  224  1  0.55758800  0.24439200  0.09534900  1
  C  225  1  0.57518300  0.22406400  0.08891400  1
  C  226  1  0.55684800  0.21688400  0.07611700  1
  C  227  1  0.52159100  0.23124600  0.06958400  1
  C  230  1  0.46584800  0.26665300  0.06839300  1
  C  231  1  0.46114900  0.29097700  0.07121200  1
  C  232  1  0.40313500  0.29633400  0.05273600  1
  C  233  1  0.40126000  0.27207400  0.05038900  1
  C  234  1  0.43379900  0.25782600  0.05803000  1
  C  241  1  0.09711200  0.13872300  0.71995100  1
  C  242  1  0.10781900  0.12236600  0.70949600  1
  C  243  1  0.14652300  0.12860100  0.70059300  1
  C  245  1  0.15999600  0.16482600  0.71191400  1
  C  248  1  0.05691600  0.13627700  0.72996200  1
  C  252  1  0.17575900  0.18785800  0.71113800  1
  C  254  1  0.07528800  0.10469200  0.70570600  1
  C  256  1  0.09717400  0.14226100  0.56118800  1
  C  257  1  0.10793200  0.15864200  0.57162700  1
  C  258  1  0.14676700  0.15245000  0.58049800  1
  C  260  1  0.16025200  0.11621700  0.56918000  1
  C  263  1  0.05692100  0.14468600  0.55119300  1
  C  267  1  0.17603600  0.09318500  0.56996900  1
  C  269  1  0.07533300  0.17627100  0.57545100  1
  C  271  1  0.59695400  0.13866900  0.21996200  1
  C  272  1  0.60729000  0.12237300  0.20944600  1
  C  273  1  0.64570900  0.12870100  0.20046100  1
  C  275  1  0.65965200  0.16483200  0.21186700  1
  C  278  1  0.55709300  0.13613500  0.23006800  1
  C  282  1  0.67544200  0.18785400  0.21105100  1
  C  284  1  0.57447600  0.10483800  0.20560700  1
  C  286  1  0.59742300  0.14240300  0.06111200  1
  C  287  1  0.60792400  0.15868600  0.07161700  1
  C  288  1  0.64662400  0.15245500  0.08052600  1
  C  290  1  0.66043300  0.11629000  0.06912100  1
  C  293  1  0.55726900  0.14486100  0.05109000  1
  C  297  1  0.67611300  0.09324700  0.06989300  1
  C  299  1  0.57527500  0.17629000  0.07546500  1
  C  301  1  0.96095400  0.26609100  0.26907300  1
  C  302  1  0.98050100  0.26485000  0.25561100  1
  C  303  1  0.03252700  0.26387200  0.25491900  1
  C  305  1  0.04199000  0.26532600  0.27901900  1
  C  308  1  0.90878200  0.26843400  0.27299000  1
  C  312  1  0.06944100  0.26298200  0.29091300  1
  C  314  1  0.95437500  0.26901000  0.24347400  1
  C  316  1  0.82015900  0.26575900  0.51177200  1
  C  317  1  0.80110200  0.26496800  0.52530200  1
  C  318  1  0.74908100  0.26413600  0.52612600  1
  C  320  1  0.73874500  0.26490400  0.50204200  1
  C  323  1  0.87222100  0.26780200  0.50769300  1
  C  327  1  0.71081700  0.26244800  0.49022700  1
  C  329  1  0.82777400  0.26920900  0.53735700  1
  C  331  1  0.46116000  0.26614000  0.76909900  1
  C  332  1  0.48068600  0.26492500  0.75563500  1
  C  333  1  0.53271100  0.26395500  0.75493400  1
  C  335  1  0.54221200  0.26537200  0.77903400  1
  C  338  1  0.40899200  0.26847800  0.77302300  1
  C  342  1  0.56968900  0.26301300  0.79092300  1
  C  344  1  0.45453800  0.26910900  0.74350300  1
  C  346  1  0.32017200  0.26576600  0.01175400  1
  C  347  1  0.30114800  0.26492800  0.02528400  1
  C  348  1  0.24912400  0.26408700  0.02611800  1
  C  350  1  0.23873900  0.26493000  0.00203100  1
  C  353  1  0.37222600  0.26786400  0.00767600  1
  C  357  1  0.21081800  0.26246000  0.99021500  1
  C  359  1  0.32779600  0.26918000  0.03734100  1
  C  362  1  0.57406200  0.01735800  0.49130400  1
  C  365  1  0.20581900  0.01766200  0.28954100  1
  C  367  1  0.71363700  0.01674500  0.76218000  1
  C  368  1  0.73152900  0.01618200  0.77583500  1
  C  369  1  0.78349600  0.01585500  0.77699400  1
  C  372  1  0.66181700  0.01833800  0.75780400  1
  C  375  1  0.70385000  0.02035400  0.78772200  1
  C  378  1  0.07402300  0.01733400  0.99125700  1
  C  380  1  0.17039100  0.12180400  0.31819700  1
  C  381  1  0.12202200  0.11728900  0.32305400  1
  C  382  1  0.09429100  0.13725500  0.32655400  1
  C  384  1  0.15808000  0.16303300  0.31970500  1
  C  387  1  0.20649100  0.10376200  0.31442200  1
  C  391  1  0.17392200  0.18480000  0.31561100  1
  C  393  1  0.10147600  0.09507300  0.32477000  1
  C  395  1  0.60858700  0.12192600  0.46316200  1
  C  396  1  0.65660100  0.11739500  0.45804300  1
  C  397  1  0.68387400  0.13733900  0.45423300  1
  C  399  1  0.62042900  0.16313700  0.46128300  1
  C  402  1  0.57295300  0.10390000  0.46729100  1
  C  406  1  0.60470800  0.18494300  0.46535900  1
  C  408  1  0.67709400  0.09517000  0.45630000  1
  C  410  1  0.67014200  0.12177000  0.81841200  1
  C  411  1  0.62157500  0.11736500  0.82314600  1
  C  412  1  0.59373800  0.13738900  0.82645200  1
  C  414  1  0.65791600  0.16303000  0.81970400  1
  C  417  1  0.70636700  0.10359000  0.81494500  1
  C  421  1  0.67395500  0.18475900  0.81559300  1
  C  423  1  0.60100500  0.09518000  0.82493800  1
  C  425  1  0.10864500  0.12190400  0.96314400  1
  C  426  1  0.15668900  0.11737800  0.95804700  1
  C  427  1  0.18398600  0.13732600  0.95425500  1
  C  429  1  0.12049300  0.16311700  0.96128300  1
  C  432  1  0.07298600  0.10387100  0.96724600  1
  C  436  1  0.10475600  0.18492000  0.96535700  1
  C  438  1  0.17719200  0.09515500  0.95630700  1
  C  440  1  0.42469400  0.29720300  0.39507500  1
  C  441  1  0.42682600  0.27521800  0.40175200  1
  C  442  1  0.39553900  0.25778500  0.39633800  1
  C  444  1  0.36191700  0.28357500  0.37984900  1
  C  446  1  0.32939800  0.28982400  0.36964500  1
  C  447  1  0.45708300  0.27064200  0.41301000  1
  C  449  1  0.92509200  0.29713100  0.89505900  1
  C  450  1  0.92704100  0.27518200  0.90178100  1
  C  451  1  0.89553000  0.25779500  0.89641100  1
  C  453  1  0.86208600  0.28356900  0.87988500  1
  C  455  1  0.82955400  0.28983100  0.86968600  1
  C  456  1  0.95752900  0.27057900  0.91300000  1
  C  458  1  0.89416400  0.02573800  0.38439000  1
  C  462  1  0.10631000  0.23659400  0.63609400  1
  C  463  1  0.10487400  0.25839300  0.62919000  1
  C  464  1  0.13672100  0.27574200  0.63445000  1
  C  466  1  0.16947000  0.25020400  0.65121900  1
  C  469  1  0.07470100  0.21622700  0.63324300  1
  C  473  1  0.20225000  0.24392100  0.66136600  1
  C  475  1  0.07479100  0.26288600  0.61786900  1
  C  477  1  0.10585200  0.04442300  0.64505100  1
  C  478  1  0.10479800  0.02266000  0.65199800  1
  C  479  1  0.16928800  0.03099600  0.62995700  1
  C  481  1  0.07389400  0.06468200  0.64786600  1
  C  485  1  0.20193300  0.03735300  0.61979200  1
  C  487  1  0.07457300  0.01808500  0.66329400  1
  C  488  1  0.39454600  0.02560800  0.88445400  1
  C  492  1  0.60598300  0.23665400  0.13607800  1
  C  493  1  0.60471600  0.25842400  0.12914200  1
  C  494  1  0.63675300  0.27572600  0.13437100  1
  C  496  1  0.66938400  0.25017800  0.15115300  1
  C  499  1  0.57418300  0.21633800  0.13326300  1
  C  503  1  0.70214000  0.24388100  0.16130300  1
  C  505  1  0.57440300  0.26295400  0.11785900  1
  C  507  1  0.60562400  0.04453900  0.14487300  1
  C  508  1  0.60447800  0.02279500  0.15183900  1
  C  509  1  0.66918600  0.03104500  0.12984400  1
  C  511  1  0.57366700  0.06481400  0.14764900  1
  C  515  1  0.70204800  0.03736100  0.11972700  1
  C  517  1  0.57414700  0.01827300  0.16311700  1
  C  518  1  0.31834500  0.30834300  0.34070200  1
  C  519  1  0.29814300  0.31599600  0.32821500  1
  C  520  1  0.26213900  0.30187100  0.32177900  1
  C  525  1  0.24657700  0.50111100  0.45400700  1
  C  526  1  0.26863400  0.50762000  0.44131300  1
  C  527  1  0.30394900  0.49403300  0.43436800  1
  C  528  1  0.31874000  0.47279300  0.44031600  1
  C  529  1  0.29865400  0.46506300  0.45280000  1
  C  530  1  0.26261900  0.47912100  0.45927100  1
  C  533  1  0.21046600  0.51621700  0.46103400  1
  C  534  1  0.20394000  0.54010800  0.45732400  1
  C  535  1  0.17038400  0.55523800  0.46379300  1
  C  536  1  0.14160300  0.54656900  0.47456700  1
  C  537  1  0.14470200  0.52300000  0.47862300  1
  C  538  1  0.17957900  0.50848200  0.47197000  1
  C  549  1  0.53098500  0.50118900  0.32587900  1
  C  550  1  0.51178200  0.50606300  0.33914900  1
  C  551  1  0.47412900  0.49274300  0.34533000  1
  C  552  1  0.45648600  0.47287400  0.33845600  1
  C  553  1  0.47548800  0.46629400  0.32562300  1
  C  554  1  0.51125800  0.48088900  0.31946400  1
  C  557  1  0.56795300  0.51624900  0.31930000  1
  C  558  1  0.57437000  0.53994200  0.32334800  1
  C  559  1  0.60850300  0.55514700  0.31715900  1
  C  560  1  0.63795500  0.54666500  0.30645200  1
  C  561  1  0.63492600  0.52321700  0.30213900  1
  C  562  1  0.59937500  0.50865100  0.30846300  1
  C  573  1  0.45698800  0.30827500  0.44254200  1
  C  574  1  0.47612900  0.31479500  0.45537100  1
  C  575  1  0.51188100  0.30013800  0.46149400  1
  C  580  1  0.78544800  0.53008400  0.57725300  1
  C  581  1  0.76327400  0.52358000  0.58993100  1
  C  582  1  0.72771300  0.53711200  0.59681400  1
  C  583  1  0.71279100  0.55829100  0.59081600  1
  C  584  1  0.73300900  0.56603000  0.57834800  1
  C  585  1  0.76928800  0.55202400  0.57194200  1
  C  588  1  0.82162800  0.51497100  0.57025700  1
  C  589  1  0.82791000  0.49105700  0.57393800  1
  C  590  1  0.86091800  0.47582200  0.56734500  1
  C  591  1  0.88943600  0.48441900  0.55649500  1
  C  592  1  0.88723800  0.50812300  0.55259100  1
  C  593  1  0.85265500  0.52268200  0.55934500  1
  C  604  1  0.50013800  0.52980500  0.70514300  1
  C  605  1  0.51936400  0.52492400  0.69187600  1
  C  606  1  0.55703800  0.53823500  0.68569700  1
  C  607  1  0.57467400  0.55810700  0.69256900  1
  C  608  1  0.55564300  0.56470000  0.70539600  1
  C  609  1  0.51985800  0.55011000  0.71155400  1
  C  612  1  0.46316700  0.51474700  0.71172000  1
  C  613  1  0.45675300  0.49105000  0.70767300  1
  C  614  1  0.42261700  0.47584700  0.71386000  1
  C  615  1  0.39315100  0.48432900  0.72456500  1
  C  616  1  0.39618300  0.50777700  0.72887800  1
  C  617  1  0.43173700  0.52234300  0.72255600  1
  C  628  1  0.81850000  0.30835300  0.84074200  1
  C  629  1  0.79836600  0.31600800  0.82824600  1
  C  630  1  0.76238400  0.30187700  0.82180100  1
  C  635  1  0.74663800  0.50106900  0.95400500  1
  C  636  1  0.76871300  0.50757300  0.94131300  1
  C  637  1  0.80401800  0.49397700  0.93436900  1
  C  638  1  0.81878900  0.47273700  0.94032100  1
  C  639  1  0.79869600  0.46501300  0.95280600  1
  C  640  1  0.76265900  0.47907600  0.95927200  1
  C  643  1  0.71053500  0.51618300  0.96103200  1
  C  644  1  0.70401500  0.54007200  0.95732000  1
  C  645  1  0.67046800  0.55520600  0.96379000  1
  C  646  1  0.64168000  0.54654300  0.97456400  1
  C  647  1  0.64476700  0.52297200  0.97861900  1
  C  648  1  0.67963600  0.50845100  0.97196800  1
  C  659  1  0.03203000  0.50101700  0.82612800  1
  C  660  1  0.01261600  0.50590700  0.83937100  1
  C  661  1  0.97470300  0.49266300  0.84548800  1
  C  662  1  0.95700900  0.47284300  0.83857500  1
  C  663  1  0.97622000  0.46623300  0.82577100  1
  C  664  1  0.01224600  0.48076400  0.81967400  1
  C  667  1  0.06908100  0.51607700  0.81958600  1
  C  668  1  0.07526900  0.53979400  0.82360100  1
  C  669  1  0.10889100  0.55509800  0.81729300  1
  C  670  1  0.13810200  0.54668600  0.80651200  1
  C  671  1  0.13591800  0.52310100  0.80235100  1
  C  672  1  0.10064900  0.50849600  0.80877800  1
  C  683  1  0.95693200  0.30821900  0.94252600  1
  C  684  1  0.97605900  0.31473600  0.95535600  1
  C  685  1  0.01182800  0.30009300  0.96148000  1
  C  690  1  0.28540200  0.53010700  0.07721600  1
  C  691  1  0.26317600  0.52360100  0.08988600  1
  C  692  1  0.22761800  0.53714000  0.09676500  1
  C  693  1  0.21275500  0.55833300  0.09077300  1
  C  694  1  0.23301700  0.56607500  0.07831200  1
  C  695  1  0.26929100  0.55205800  0.07190800  1
  C  698  1  0.32159100  0.51498800  0.07022600  1
  C  699  1  0.32787300  0.49107600  0.07391000  1
  C  700  1  0.36088600  0.47583800  0.06732300  1
  C  701  1  0.38941500  0.48443000  0.05647400  1
  C  702  1  0.38722400  0.50813100  0.05256600  1
  C  703  1  0.35263100  0.52269200  0.05931500  1
  C  714  1  0.99903800  0.52999900  0.20488700  1
  C  715  1  0.01846100  0.52511300  0.19164500  1
  C  716  1  0.05633900  0.53837400  0.18552500  1
  C  717  1  0.07399100  0.55820800  0.19243300  1
  C  718  1  0.05477300  0.56481300  0.20523600  1
  C  719  1  0.01878000  0.55026600  0.21133600  1
  C  722  1  0.96200800  0.51492600  0.21142800  1
  C  723  1  0.95584000  0.49120900  0.20741100  1
  C  724  1  0.92221700  0.47589500  0.21371300  1
  C  725  1  0.89298800  0.48429900  0.22449200  1
  C  726  1  0.89517100  0.50787900  0.22865900  1
  C  727  1  0.93043600  0.52249400  0.22223900  1
  C  738  1  0.35270500  0.30598600  0.71737700  1
  C  743  1  0.92994900  0.30587100  0.56365500  1
  C  748  1  0.85276800  0.30595100  0.21730300  1
  C  753  1  0.42991000  0.30587300  0.06366000  1
  C  758  1  0.43337100  0.39215200  0.31006900  1
  C  759  1  0.42386200  0.40846500  0.32063200  1
  C  760  1  0.38539300  0.40246500  0.32966800  1
  C  762  1  0.36977500  0.36650000  0.31822600  1
  C  765  1  0.47320600  0.39434700  0.29993100  1
  C  769  1  0.35368700  0.34353700  0.31909700  1
  C  771  1  0.45734700  0.42575600  0.32439900  1
  C  773  1  0.43392800  0.38891400  0.47096100  1
  C  774  1  0.42459100  0.37261700  0.46038000  1
  C  775  1  0.38623200  0.37862400  0.45130700  1
  C  777  1  0.37043100  0.41456700  0.46275100  1
  C  780  1  0.47363500  0.38671200  0.48113900  1
  C  784  1  0.35430300  0.43752500  0.46188000  1
  C  786  1  0.45815600  0.35534300  0.45663700  1
  C  788  1  0.59745600  0.63891300  0.72089900  1
  C  789  1  0.60720600  0.62253800  0.71038100  1
  C  790  1  0.64585500  0.62851400  0.70139800  1
  C  793  1  0.55744500  0.63675400  0.73098900  1
  C  796  1  0.57372500  0.60524500  0.70661900  1
  C  798  1  0.59723300  0.64195700  0.56012300  1
  C  800  1  0.66092700  0.61645400  0.56833500  1
  C  802  1  0.55739700  0.64405100  0.54997600  1
  C  805  1  0.67721500  0.59351700  0.56925500  1
  C  807  1  0.93412100  0.39202500  0.81021000  1
  C  808  1  0.92424600  0.40853400  0.82064400  1
  C  809  1  0.88544700  0.40263500  0.82960400  1
  C  811  1  0.87016300  0.36653500  0.81829100  1
  C  814  1  0.97431100  0.39407100  0.80016600  1
  C  818  1  0.85403600  0.34357700  0.81920200  1
  C  820  1  0.95789200  0.42571400  0.82448100  1
  C  822  1  0.93385000  0.38880900  0.97100600  1
  C  823  1  0.92452400  0.37249200  0.96043000  1
  C  824  1  0.88627100  0.37856800  0.95133300  1
  C  826  1  0.87055100  0.41451000  0.96277000  1
  C  829  1  0.97341800  0.38654600  0.98122100  1
  C  833  1  0.85438700  0.43745600  0.96184500  1
  C  835  1  0.95824700  0.35529900  0.95666400  1
  C  837  1  0.09734600  0.63881700  0.22091000  1
  C  838  1  0.10674400  0.62251500  0.21033100  1
  C  839  1  0.14508700  0.62860600  0.20126400  1
  C  842  1  0.05768200  0.63654700  0.23109700  1
  C  846  1  0.07302600  0.60534400  0.20652000  1
  C  848  1  0.09749300  0.64210300  0.06007200  1
  C  850  1  0.16110900  0.61652500  0.06830400  1
  C  852  1  0.05777100  0.64423700  0.04989400  1
  C  855  1  0.17729700  0.59357600  0.06920300  1
  C  857  1  0.96325000  0.51392300  0.51298700  1
  C  858  1  0.98398100  0.51493500  0.52632700  1
  C  859  1  0.03608600  0.51591300  0.52662500  1
  C  861  1  0.04340700  0.51470700  0.50247500  1
  C  864  1  0.91072000  0.51195700  0.50938000  1
  C  868  1  0.07003000  0.51726900  0.49045200  1
  C  870  1  0.95917000  0.51138500  0.53877900  1
  C  872  1  0.81762500  0.51416100  0.26812500  1
  C  873  1  0.79734100  0.51463200  0.25472000  1
  C  874  1  0.74522000  0.51542300  0.25429700  1
  C  876  1  0.73710400  0.51504900  0.27843900  1
  C  879  1  0.87006700  0.51251200  0.27187700  1
  C  883  1  0.71004000  0.51773700  0.29039400  1
  C  885  1  0.82268700  0.51096500  0.24234700  1
  C  887  1  0.21344800  0.51697700  0.76287800  1
  C  888  1  0.23367500  0.51626400  0.77628500  1
  C  889  1  0.28579100  0.51540200  0.77671200  1
  C  891  1  0.29396500  0.51594300  0.75257000  1
  C  894  1  0.16102800  0.51881400  0.75913100  1
  C  898  1  0.32106600  0.51326400  0.74062300  1
  C  900  1  0.20838500  0.52002600  0.78865500  1
  C  902  1  0.46326900  0.51391600  0.01296600  1
  C  903  1  0.48399300  0.51493300  0.02630700  1
  C  904  1  0.53609500  0.51591000  0.02660800  1
  C  906  1  0.54343900  0.51469300  0.00246000  1
  C  909  1  0.41074300  0.51195000  0.00935700  1
  C  913  1  0.57007400  0.51723200  0.99043600  1
  C  915  1  0.45916700  0.51138900  0.03875800  1
  C  917  1  0.79585700  0.01637900  0.75298200  1
  C  919  1  0.09469100  0.64374000  0.45454400  1
  C  921  1  0.15765500  0.61784300  0.46181100  1
  C  924  1  0.17336800  0.59598400  0.46582000  1
  C  926  1  0.68368000  0.64365000  0.32661500  1
  C  928  1  0.62091900  0.61774000  0.31922200  1
  C  931  1  0.60532700  0.59586200  0.31520700  1
  C  933  1  0.86094700  0.37190200  0.56740100  1
  C  934  1  0.90881900  0.36733300  0.57261500  1
  C  935  1  0.93598900  0.38728500  0.57648000  1
  C  937  1  0.87275600  0.41313900  0.56931200  1
  C  940  1  0.82533100  0.35390000  0.56322600  1
  C  944  1  0.85692200  0.43502600  0.56537400  1
  C  946  1  0.92923500  0.34508900  0.57446300  1
  C  948  1  0.42172000  0.37203800  0.71392500  1
  C  949  1  0.37411900  0.36746100  0.70852700  1
  C  950  1  0.34724700  0.38739300  0.70447000  1
  C  952  1  0.41020100  0.41325500  0.71180200  1
  C  955  1  0.45701400  0.35405000  0.71832900  1
  C  959  1  0.42585500  0.43513000  0.71580300  1
  C  961  1  0.35381800  0.34520800  0.70664500  1
  C  963  1  0.59456300  0.64369500  0.95457500  1
  C  965  1  0.65767500  0.61780500  0.96177300  1
  C  968  1  0.67338400  0.59596100  0.96580600  1
  C  970  1  0.18327800  0.64367700  0.82670300  1
  C  972  1  0.12044700  0.61777200  0.81933800  1
  C  975  1  0.10477000  0.59586000  0.81538700  1
  C  977  1  0.36091000  0.37191400  0.06739700  1
  C  978  1  0.40878700  0.36734500  0.07260800  1
  C  979  1  0.43596400  0.38729900  0.07646600  1
  C  981  1  0.37272700  0.41315100  0.06930000  1
  C  984  1  0.32528900  0.35390900  0.06322800  1
  C  988  1  0.35689400  0.43503800  0.06535800  1
  C  990  1  0.42920300  0.34510000  0.07445700  1
  C  992  1  0.92203700  0.37200100  0.21384900  1
  C  993  1  0.87441900  0.36744000  0.20845800  1
  C  994  1  0.84762200  0.38738600  0.20438300  1
  C  996  1  0.91070100  0.41323400  0.21166700  1
  C  999  1  0.95725400  0.35399000  0.21827000  1
  C  1003  1  0.92649100  0.43513700  0.21560000  1
  C  1005  1  0.85403200  0.34519500  0.20658100  1
  C  1008  1  0.45572400  0.31769400  0.39810600  1
  C  1013  1  0.42444100  0.48397400  0.38590700  1
  C  1014  1  0.42665700  0.50596700  0.37924100  1
  C  1015  1  0.39549100  0.52342600  0.38468300  1
  C  1017  1  0.36181900  0.49764300  0.40117100  1
  C  1020  1  0.45535100  0.46345200  0.38285200  1
  C  1024  1  0.32928200  0.49141000  0.41137900  1
  C  1026  1  0.45688500  0.51053700  0.36797400  1
  C  1028  1  0.60629400  0.54700400  0.64514400  1
  C  1029  1  0.60434900  0.52503900  0.65184900  1
  C  1030  1  0.63583400  0.50766000  0.64645600  1
  C  1032  1  0.66929600  0.53347900  0.62995600  1
  C  1035  1  0.57507000  0.56744100  0.64815000  1
  C  1039  1  0.70179900  0.53977700  0.61975500  1
  C  1041  1  0.57387600  0.52041300  0.66307100  1
  C  1044  1  0.95632000  0.31757400  0.89804800  1
  C  1049  1  0.92496400  0.48392700  0.88599300  1
  C  1050  1  0.92714700  0.50590100  0.87930300  1
  C  1051  1  0.89583800  0.52334200  0.88470700  1
  C  1053  1  0.86207900  0.49756700  0.90118300  1
  C  1056  1  0.95598700  0.46342600  0.88297900  1
  C  1060  1  0.82956500  0.49133700  0.91139600  1
  C  1062  1  0.95771200  0.51048500  0.86809700  1
  C  1064  1  0.10605100  0.54707700  0.14501400  1
  C  1065  1  0.10399800  0.52512000  0.15172800  1
  C  1066  1  0.13550600  0.50772300  0.14636900  1
  C  1068  1  0.16915000  0.53349800  0.12987500  1
  C  1071  1  0.07484000  0.56753000  0.14799000  1
  C  1075  1  0.20184900  0.53976800  0.11971400  1
  C  1077  1  0.07341200  0.52052600  0.16292900  1
  C  1081  1  0.23511300  0.01463100  0.27804000  1
  C  1084  1  0.78471200  0.75113400  0.70392800  1
  C  1085  1  0.76259600  0.75754300  0.69122400  1
  C  1086  1  0.72730300  0.74389700  0.68431800  1
  C  1087  1  0.71261900  0.72267700  0.69031000  1
  C  1088  1  0.73280400  0.71502600  0.70279900  1
  C  1089  1  0.76880800  0.72915200  0.70923600  1
  C  1092  1  0.82069400  0.76634700  0.71092500  1
  C  1093  1  0.82699000  0.79021900  0.70714700  1
  C  1094  1  0.86037900  0.80546600  0.71357600  1
  C  1095  1  0.88919400  0.79697200  0.72438500  1
  C  1096  1  0.88638100  0.77342300  0.72849900  1
  C  1097  1  0.85167300  0.75876200  0.72187900  1
  C  1108  1  0.49976500  0.75117400  0.57592100  1
  C  1109  1  0.51901200  0.75595400  0.58919800  1
  C  1110  1  0.55662400  0.74257700  0.59534800  1
  C  1111  1  0.57415800  0.72272100  0.58844300  1
  C  1112  1  0.55507500  0.71620600  0.57560800  1
  C  1113  1  0.51934900  0.73086700  0.56947600  1
  C  1116  1  0.46295800  0.76635700  0.56937100  1
  C  1117  1  0.45681900  0.79003800  0.57348100  1
  C  1118  1  0.42287000  0.80537600  0.56733500  1
  C  1119  1  0.39333000  0.79706600  0.55660500  1
  C  1120  1  0.39601500  0.77363500  0.55224300  1
  C  1121  1  0.43140000  0.75891600  0.55852500  1
  C  1132  1  0.28447800  0.75113400  0.20390400  1
  C  1133  1  0.26243200  0.75753600  0.19119000  1
  C  1134  1  0.22718500  0.74388100  0.18426800  1
  C  1135  1  0.21247300  0.72266300  0.19025700  1
  C  1136  1  0.23257200  0.71501900  0.20276000  1
  C  1137  1  0.26854100  0.72915400  0.20920900  1
  C  1140  1  0.32041900  0.76635700  0.21091300  1
  C  1141  1  0.32669100  0.79023800  0.20714900  1
  C  1142  1  0.36002900  0.80549600  0.21359700  1
  C  1143  1  0.38884000  0.79698600  0.22440200  1
  C  1144  1  0.38608500  0.77342500  0.22849500  1
  C  1145  1  0.35140600  0.75876200  0.22186400  1
  C  1156  1  0.99980000  0.75118800  0.07595000  1
  C  1157  1  0.01905300  0.75598200  0.08922500  1
  C  1158  1  0.05670100  0.74262400  0.09537700  1
  C  1159  1  0.07425800  0.72277100  0.08847300  1
  C  1160  1  0.05514900  0.71623400  0.07564400  1
  C  1161  1  0.01939600  0.73088000  0.06951100  1
  C  1164  1  0.96298300  0.76636600  0.06939500  1
  C  1165  1  0.95684400  0.79005000  0.07349800  1
  C  1166  1  0.92290900  0.80538600  0.06734500  1
  C  1167  1  0.89337300  0.79706900  0.05661600  1
  C  1168  1  0.89604300  0.77363300  0.05226000  1
  C  1169  1  0.93142900  0.75892000  0.05854800  1
  C  1180  1  0.74797100  0.77917500  0.32660400  1
  C  1181  1  0.76946000  0.77196600  0.33923100  1
  C  1182  1  0.80419000  0.78535600  0.34656500  1
  C  1183  1  0.81903100  0.80693800  0.34102200  1
  C  1184  1  0.79957100  0.81522300  0.32858700  1
  C  1185  1  0.76409100  0.80140900  0.32174800  1
  C  1188  1  0.71304700  0.76438100  0.31898500  1
  C  1189  1  0.70879900  0.73988300  0.32142900  1
  C  1190  1  0.67826600  0.72505000  0.31363400  1
  C  1191  1  0.65188800  0.73475900  0.30270700  1
  C  1192  1  0.64951400  0.75908000  0.30064700  1
  C  1193  1  0.68116700  0.77329400  0.30859400  1
  C  1204  1  0.74889400  0.00206400  0.45457000  1
  C  1205  1  0.77020000  0.00920400  0.44190400  1
  C  1206  1  0.80462600  0.99573000  0.43451000  1
  C  1207  1  0.81933900  0.97411400  0.44003300  1
  C  1208  1  0.80006200  0.96588700  0.45250300  1
  C  1209  1  0.76488200  0.97978900  0.45940100  1
  C  1211  1  0.68243100  0.00806900  0.47267500  1
  C  1218  1  0.02852500  0.00210500  0.32536400  1
  C  1219  1  0.00994600  0.00772100  0.33859500  1
  C  1220  1  0.97328600  0.99439000  0.34524600  1
  C  1221  1  0.95580400  0.97402500  0.33882600  1
  C  1222  1  0.97394500  0.96692300  0.32599200  1
  C  1223  1  0.00888700  0.98139000  0.31940800  1
  C  1225  1  0.09627400  0.00818900  0.30775600  1
  C  1232  1  0.02931800  0.77910300  0.45545100  1
  C  1233  1  0.01051000  0.77339700  0.44226200  1
  C  1234  1  0.97356800  0.78663300  0.43566700  1
  C  1235  1  0.95601300  0.80697300  0.44209700  1
  C  1236  1  0.97435900  0.81415000  0.45489300  1
  C  1237  1  0.00959100  0.79978100  0.46142800  1
  C  1240  1  0.06526300  0.76437100  0.46262400  1
  C  1241  1  0.06982700  0.74003600  0.45983000  1
  C  1242  1  0.10101100  0.72514000  0.46739600  1
  C  1243  1  0.12786200  0.73468600  0.47830200  1
  C  1244  1  0.12987400  0.75895300  0.48061600  1
  C  1245  1  0.09738400  0.77320800  0.47296400  1
  C  1257  1  0.31782100  0.01421200  0.56916200  1
  C  1258  1  0.32181600  0.98973300  0.57168800  1
  C  1259  1  0.35205700  0.97474700  0.56391600  1
  C  1260  1  0.37837200  0.98423900  0.55291800  1
  C  1261  1  0.38115900  0.00853800  0.55080000  1
  C  1267  1  0.96672600  0.01410200  0.71288600  1
  C  1268  1  0.96199400  0.98980800  0.70997700  1
  C  1269  1  0.93023400  0.97488700  0.71734500  1
  C  1270  1  0.90297700  0.98431500  0.72820500  1
  C  1271  1  0.90196200  0.00848100  0.73078900  1
  C  1276  1  0.24811100  0.77920100  0.82665100  1
  C  1277  1  0.26958300  0.77199300  0.83928000  1
  C  1278  1  0.30430000  0.78538300  0.84662000  1
  C  1279  1  0.31917300  0.80695900  0.84107400  1
  C  1280  1  0.29976500  0.81524300  0.82863300  1
  C  1281  1  0.26427400  0.80143200  0.82179400  1
  C  1284  1  0.21315300  0.76441400  0.81903200  1
  C  1285  1  0.20879200  0.73992000  0.82148500  1
  C  1286  1  0.17820900  0.72510000  0.81369100  1
  C  1287  1  0.15189700  0.73482700  0.80275700  1
  C  1288  1  0.14962800  0.75914700  0.80068900  1
  C  1289  1  0.18132200  0.77334100  0.80863700  1
  C  1300  1  0.24893600  0.00203200  0.95459000  1
  C  1301  1  0.27025500  0.00916200  0.94192300  1
  C  1302  1  0.30466800  0.99567400  0.93453500  1
  C  1303  1  0.31936700  0.97406200  0.94006500  1
  C  1304  1  0.30008600  0.96584700  0.95253700  1
  C  1305  1  0.26490600  0.97975900  0.95942800  1
  C  1307  1  0.18244800  0.00805300  0.97268200  1
  C  1314  1  0.52960500  0.00191200  0.82568000  1
  C  1315  1  0.51075600  0.00750600  0.83888300  1
  C  1316  1  0.47379600  0.99422800  0.84544100  1
  C  1317  1  0.45631000  0.97392400  0.83896000  1
  C  1318  1  0.47475900  0.96682100  0.82616000  1
  C  1319  1  0.50999800  0.98124600  0.81966200  1
  C  1321  1  0.59756200  0.00818500  0.80813900  1
  C  1327  1  0.52929300  0.77906900  0.95545000  1
  C  1328  1  0.51048900  0.77337600  0.94225800  1
  C  1329  1  0.47352500  0.78660700  0.93566600  1
  C  1330  1  0.45595900  0.80693800  0.94210400  1
  C  1331  1  0.47430100  0.81410300  0.95490200  1
  C  1332  1  0.50954800  0.79973500  0.96143200  1
  C  1335  1  0.56523900  0.76433100  0.96262000  1
  C  1336  1  0.56980300  0.74000000  0.95981600  1
  C  1337  1  0.60098700  0.72509500  0.96737600  1
  C  1338  1  0.62783500  0.73462500  0.97828800  1
  C  1339  1  0.62983800  0.75888800  0.98061500  1
  C  1340  1  0.59734600  0.77315400  0.97296900  1
  C  1352  1  0.81777500  0.01421500  0.06911200  1
  C  1353  1  0.82177100  0.98974200  0.07165700  1
  C  1354  1  0.85203600  0.97474000  0.06390200  1
  C  1355  1  0.87838200  0.98420700  0.05290300  1
  C  1356  1  0.88114000  0.00850200  0.05076300  1
  C  1362  1  0.46564300  0.01423400  0.21251000  1
  C  1363  1  0.46137900  0.98992600  0.20961100  1
  C  1364  1  0.43048800  0.97484400  0.21713100  1
  C  1365  1  0.40365500  0.98412600  0.22811300  1
  C  1366  1  0.40118700  0.00836300  0.23050800  1
  C  1371  1  0.66108500  0.66453400  0.71278100  1
  C  1374  1  0.67723300  0.68749700  0.71191700  1
  C  1376  1  0.60677400  0.65840000  0.57062000  1
  C  1377  1  0.64536400  0.65251400  0.57964600  1
  C  1380  1  0.57310600  0.67565100  0.57433100  1
  C  1382  1  0.16073900  0.66452800  0.21273300  1
  C  1384  1  0.17689200  0.68748400  0.21183100  1
  C  1386  1  0.10675900  0.65844000  0.07063900  1
  C  1387  1  0.14520000  0.65251100  0.07970500  1
  C  1390  1  0.07303400  0.67566300  0.07437400  1
  C  1392  1  0.93366600  0.89236600  0.31104700  1
  C  1393  1  0.92318700  0.90864100  0.32155900  1
  C  1394  1  0.88467000  0.90235400  0.33051200  1
  C  1396  1  0.87084000  0.86620500  0.31910500  1
  C  1399  1  0.97368900  0.89487400  0.30099000  1
  C  1403  1  0.85513400  0.84316900  0.31986100  1
  C  1405  1  0.95569800  0.92631800  0.32536400  1
  C  1407  1  0.93418300  0.88868500  0.46986800  1
  C  1408  1  0.92341100  0.87238900  0.45939100  1
  C  1409  1  0.88464900  0.87865700  0.45051300  1
  C  1411  1  0.87121000  0.91483400  0.46190900  1
  C  1414  1  0.97447300  0.88619400  0.47984400  1
  C  1418  1  0.85557000  0.93788700  0.46118200  1
  C  1420  1  0.95583300  0.85471700  0.45552200  1
  C  1422  1  0.43443700  0.89221700  0.81117800  1
  C  1423  1  0.42363900  0.90868200  0.82156500  1
  C  1424  1  0.38481400  0.90250500  0.83044900  1
  C  1426  1  0.37123300  0.86622900  0.81917300  1
  C  1429  1  0.47478500  0.89456800  0.80120700  1
  C  1433  1  0.35546900  0.84319800  0.81997300  1
  C  1435  1  0.45636500  0.92623300  0.82543400  1
  C  1437  1  0.43398200  0.88854900  0.96996900  1
  C  1438  1  0.42337500  0.87227800  0.95946200  1
  C  1439  1  0.38485100  0.87865500  0.95052500  1
  C  1441  1  0.37130300  0.91479000  0.96195800  1
  C  1444  1  0.47399700  0.88596100  0.98002300  1
  C  1448  1  0.35564600  0.93783000  0.96117000  1
  C  1450  1  0.45599500  0.85469300  0.95558400  1
  C  1452  1  0.06993200  0.76481200  0.76196500  1
  C  1453  1  0.05045600  0.76628600  0.77542700  1
  C  1454  1  0.99843000  0.76733100  0.77611700  1
  C  1456  1  0.98890700  0.76570600  0.75202500  1
  C  1459  1  0.12207600  0.76230700  0.75805300  1
  C  1463  1  0.96145900  0.76805700  0.74013500  1
  C  1465  1  0.07653700  0.76206200  0.78756200  1
  C  1467  1  0.21101200  0.76512500  0.51923200  1
  C  1468  1  0.22998400  0.76613800  0.50570000  1
  C  1469  1  0.28201000  0.76699500  0.50486900  1
  C  1471  1  0.29242700  0.76607800  0.52895200  1
  C  1474  1  0.15897400  0.76291100  0.52330700  1
  C  1478  1  0.32039400  0.76848000  0.54076500  1
  C  1480  1  0.20336300  0.76179500  0.49365400  1
  C  1482  1  0.56972900  0.76494300  0.26193400  1
  C  1483  1  0.55018200  0.76609300  0.27540100  1
  C  1484  1  0.49816000  0.76703000  0.27609500  1
  C  1486  1  0.48869200  0.76571100  0.25199700  1
  C  1489  1  0.62190100  0.76264800  0.25800700  1
  C  1493  1  0.46120700  0.76806900  0.24011000  1
  C  1495  1  0.57639200  0.76193700  0.28752400  1
  C  1497  1  0.71104700  0.76519500  0.01921900  1
  C  1498  1  0.73006800  0.76597200  0.00568500  1
  C  1499  1  0.78208900  0.76679500  0.00485200  1
  C  1501  1  0.79248400  0.76606400  0.02893600  1
  C  1504  1  0.65898900  0.76315200  0.02330600  1
  C  1508  1  0.82044900  0.76853700  0.04074400  1
  C  1510  1  0.70335900  0.76172200  0.99363800  1
  C  1512  1  0.46346700  0.01404500  0.51232200  1
  C  1513  1  0.48191300  0.01499400  0.52591500  1
  C  1514  1  0.53389700  0.01548100  0.52692700  1
  C  1516  1  0.54529200  0.01437300  0.50289400  1
  C  1518  1  0.41150800  0.01219400  0.50811400  1
  C  1521  1  0.45478300  0.01089500  0.53789000  1
  C  1523  1  0.31733600  0.01424100  0.26884800  1
  C  1524  1  0.29944800  0.01481300  0.25519100  1
  C  1525  1  0.24748200  0.01515600  0.25403100  1
  C  1528  1  0.36914900  0.01263200  0.27322400  1
  C  1531  1  0.32712900  0.01065400  0.24330300  1
  C  1534  1  0.82514100  0.01338600  0.74147400  1
  C  1536  1  0.96341900  0.01413900  0.01228700  1
  C  1537  1  0.98192600  0.01489100  0.02587600  1
  C  1538  1  0.03390700  0.01534700  0.02689100  1
  C  1540  1  0.04525200  0.01436800  0.00285000  1
  C  1542  1  0.91144500  0.01240800  0.00807400  1
  C  1545  1  0.95477100  0.01085000  0.03785600  1
  C  1547  1  0.16960200  0.65905100  0.46375500  1
  C  1548  1  0.12186900  0.66366500  0.45845600  1
  C  1549  1  0.20518500  0.67699500  0.46803600  1
  C  1553  1  0.10156400  0.68592700  0.45660300  1
  C  1555  1  0.60942900  0.65894000  0.31699100  1
  C  1556  1  0.65688000  0.66355900  0.32248000  1
  C  1557  1  0.57425700  0.67688200  0.31244900  1
  C  1561  1  0.67713500  0.68582600  0.32435900  1
  C  1563  1  0.86062500  0.90920900  0.71284300  1
  C  1564  1  0.90898700  0.91373000  0.70798000  1
  C  1565  1  0.93669500  0.89377000  0.70445500  1
  C  1567  1  0.87293200  0.86798600  0.71130600  1
  C  1570  1  0.82452900  0.92724600  0.71663000  1
  C  1574  1  0.85706800  0.84621600  0.71539300  1
  C  1576  1  0.92952400  0.93595100  0.70626800  1
  C  1578  1  0.42201300  0.90912200  0.56804800  1
  C  1579  1  0.37378200  0.91353000  0.57304400  1
  C  1580  1  0.34641600  0.89351700  0.57666700  1
  C  1582  1  0.41029600  0.86786500  0.56971600  1
  C  1585  1  0.45776100  0.92729300  0.56420800  1
  C  1589  1  0.42624000  0.84611300  0.56560600  1
  C  1591  1  0.35324900  0.93571900  0.57486500  1
  C  1593  1  0.66963700  0.65902900  0.96366700  1
  C  1594  1  0.62181700  0.66362800  0.95842500  1
  C  1595  1  0.70529300  0.67699100  0.96787500  1
  C  1599  1  0.60148900  0.68588400  0.95657800  1
  C  1601  1  0.10914300  0.65898200  0.81702700  1
  C  1602  1  0.15657700  0.66359300  0.82253100  1
  C  1603  1  0.07407300  0.67693700  0.81244500  1
  C  1607  1  0.17690100  0.68585600  0.82440600  1
  C  1609  1  0.36084100  0.90925900  0.21260600  1
  C  1610  1  0.40941300  0.91366200  0.20787400  1
  C  1611  1  0.43722800  0.89364000  0.20454900  1
  C  1613  1  0.37305300  0.86800200  0.21129600  1
  C  1616  1  0.32462700  0.92744100  0.21607700  1
  C  1620  1  0.35698200  0.84627500  0.21540200  1
  C  1622  1  0.42998300  0.93585000  0.20608400  1
  C  1624  1  0.92203700  0.90914100  0.06812700  1
  C  1625  1  0.87371500  0.91353300  0.07305500  1
  C  1626  1  0.84626700  0.89351100  0.07661000  1
  C  1628  1  0.91028700  0.86787300  0.06973000  1
  C  1631  1  0.95786200  0.92733300  0.06437400  1
  C  1635  1  0.92625700  0.84612900  0.06561700  1
  C  1637  1  0.85314600  0.93571800  0.07486600  1
  C  1639  1  0.60642600  0.73376800  0.63590500  1
  C  1640  1  0.60423600  0.75576300  0.62924100  1
  C  1641  1  0.63545300  0.77320900  0.63467300  1
  C  1643  1  0.66914300  0.74741100  0.65114600  1
  C  1646  1  0.57545400  0.71326300  0.63286200  1
  C  1650  1  0.70162300  0.74117100  0.66136100  1
  C  1652  1  0.57398600  0.76034000  0.61798200  1
  C  1654  1  0.10610100  0.73384000  0.13592800  1
  C  1655  1  0.10408600  0.75580000  0.12921800  1
  C  1656  1  0.13552800  0.77320200  0.13460100  1
  C  1658  1  0.16910800  0.74741000  0.15109700  1
  C  1661  1  0.07492300  0.71338500  0.13292900  1
  C  1665  1  0.20167200  0.74116400  0.16129400  1
  C  1667  1  0.07358500  0.76040400  0.11800100  1
  C  1669  1  0.92484300  0.79435100  0.39492200  1
  C  1670  1  0.92616500  0.77256100  0.40183400  1
  C  1671  1  0.89424100  0.75523800  0.39658300  1
  C  1673  1  0.86164700  0.78078200  0.37979300  1
  C  1676  1  0.95653600  0.81469100  0.39776400  1
  C  1680  1  0.82893500  0.78709200  0.36963900  1
  C  1682  1  0.95622100  0.76805600  0.41316000  1
  C  1684  1  0.92481400  0.98664300  0.38606400  1
  C  1685  1  0.92606600  0.00841300  0.37912900  1
  C  1686  1  0.86174600  0.00023700  0.40123000  1
  C  1688  1  0.95650300  0.96630300  0.38321700  1
  C  1692  1  0.82903800  0.99395200  0.41139900  1
  C  1694  1  0.95604900  0.01291700  0.36778400  1
  C  1695  1  0.13696500  0.00541500  0.64676700  1
  C  1699  1  0.42519600  0.79431100  0.89492700  1
  C  1700  1  0.42636000  0.77255400  0.90188100  1
  C  1701  1  0.39423100  0.75527700  0.89666900  1
  C  1703  1  0.36179700  0.78080200  0.87984700  1
  C  1706  1  0.45706500  0.81460600  0.89773400  1
  C  1710  1  0.32907700  0.78712500  0.86969600  1
  C  1712  1  0.45664400  0.76802300  0.91316900  1
  C  1714  1  0.42515500  0.98650900  0.88616400  1
  C  1715  1  0.42649200  0.00827200  0.87922100  1
  C  1716  1  0.36186600  0.00011000  0.90125300  1
  C  1718  1  0.45687400  0.96616300  0.88335000  1
  C  1722  1  0.32920000  0.99385600  0.91143400  1
  C  1724  1  0.45681600  0.01277100  0.86793700  1
  C  1725  1  0.63668400  0.00552600  0.14665800  1
  N  15  1  0.11675000  0.26424000  0.29178000  1
  N  16  1  0.16272600  0.20378800  0.32185000  1
  N  17  1  0.32651500  0.27941100  0.35802000  1
  N  32  1  0.66349800  0.26383500  0.48940800  1
  N  33  1  0.61584700  0.20391500  0.45908700  1
  N  34  1  0.45462900  0.28456300  0.42337600  1
  N  49  1  0.61700000  0.26427300  0.79178500  1
  N  50  1  0.66293100  0.20377800  0.82182700  1
  N  51  1  0.82663500  0.27941800  0.85806100  1
  N  66  1  0.16349600  0.26383700  0.98939900  1
  N  67  1  0.11588300  0.20389400  0.95908500  1
  N  68  1  0.95460600  0.28450500  0.92335300  1
  N  78  1  0.66935900  0.07871200  0.46488700  1
  N  88  1  0.10975500  0.07858800  0.31624600  1
  N  105  1  0.40930700  0.26387300  0.74078900  1
  N  106  1  0.21785100  0.19425100  0.70638300  1
  N  107  1  0.20426200  0.25381600  0.67316800  1
  N  119  1  0.40960000  0.01646400  0.54045200  1
  N  120  1  0.21817100  0.08679900  0.57470000  1
  N  121  1  0.20435900  0.02738500  0.60801800  1
  N  133  1  0.87232000  0.01599600  0.74095100  1
  N  134  1  0.07397800  0.08373100  0.71102200  1
  N  135  1  0.07699500  0.03229300  0.67352700  1
  N  152  1  0.87315100  0.26409800  0.53997900  1
  N  153  1  0.07374500  0.19723400  0.57013900  1
  N  154  1  0.07682000  0.24869700  0.60762000  1
  N  164  1  0.16944400  0.07869800  0.96489500  1
  N  174  1  0.60919900  0.07866200  0.81643100  1
  N  191  1  0.90911900  0.26382600  0.24075500  1
  N  192  1  0.71761500  0.19424200  0.20634700  1
  N  193  1  0.70419500  0.25378700  0.17310100  1
  N  205  1  0.90957000  0.01639800  0.04040500  1
  N  206  1  0.71823000  0.08684900  0.07462900  1
  N  207  1  0.70423500  0.02744200  0.10793600  1
  N  219  1  0.37243800  0.01614700  0.24084100  1
  N  220  1  0.57304100  0.08384300  0.21087800  1
  N  221  1  0.57659000  0.03250300  0.17333800  1
  N  238  1  0.37317400  0.26408700  0.03997700  1
  N  239  1  0.57380600  0.19725800  0.07015600  1
  N  240  1  0.57693800  0.24876900  0.10761800  1
  N  244  1  0.17028200  0.14933500  0.70185100  1
  N  246  1  0.12268300  0.15913500  0.72048600  1
  N  259  1  0.17056500  0.13172700  0.57923300  1
  N  261  1  0.12283200  0.12187400  0.56063600  1
  N  274  1  0.66949400  0.14942900  0.20171900  1
  N  276  1  0.62259700  0.15906000  0.22050300  1
  N  289  1  0.67042100  0.13173500  0.07923700  1
  N  291  1  0.62312400  0.12202800  0.06055200  1
  N  304  1  0.06114800  0.26390300  0.26629000  1
  N  306  1  0.99228800  0.26594000  0.27990600  1
  N  319  1  0.72003600  0.26392700  0.51483600  1
  N  321  1  0.78842900  0.26538200  0.50102400  1
  N  334  1  0.56134900  0.26397600  0.76630200  1
  N  336  1  0.49251200  0.26597700  0.77992700  1
  N  349  1  0.22006300  0.26389600  0.01482900  1
  N  351  1  0.28842500  0.26541900  0.00101000  1
  N  370  1  0.81347500  0.01569700  0.76590000  1
  N  383  1  0.11222100  0.15909900  0.32458200  1
  N  385  1  0.18552300  0.14417600  0.31649600  1
  N  398  1  0.66593400  0.15919500  0.45616100  1
  N  400  1  0.59339100  0.14430300  0.46479100  1
  N  413  1  0.61183200  0.15919100  0.82444100  1
  N  415  1  0.68544500  0.14411200  0.81666800  1
  N  428  1  0.16603100  0.15918000  0.95618200  1
  N  430  1  0.09343600  0.14428000  0.96477100  1
  N  443  1  0.36434700  0.26229200  0.38580600  1
  N  452  1  0.86432100  0.26231400  0.88588400  1
  N  459  1  0.86322500  0.02130800  0.39499700  1
  N  465  1  0.16779300  0.27130700  0.64502500  1
  N  467  1  0.13865300  0.23352700  0.64649400  1
  N  480  1  0.13816400  0.04757200  0.63465000  1
  N  489  1  0.36347000  0.02118800  0.89503000  1
  N  495  1  0.66785700  0.27126200  0.14493600  1
  N  497  1  0.63836800  0.23355300  0.14646600  1
  N  510  1  0.63804600  0.04764800  0.13449600  1
  N  524  1  0.31153300  0.33739300  0.32393000  1
  N  545  1  0.11731200  0.51621000  0.48940600  1
  N  546  1  0.16246600  0.57706500  0.45946000  1
  N  547  1  0.31213400  0.44365900  0.45705400  1
  N  548  1  0.32665600  0.50177700  0.42302500  1
  N  569  1  0.66274400  0.51657500  0.29139200  1
  N  570  1  0.61607700  0.57694400  0.32159200  1
  N  571  1  0.45869100  0.44692300  0.31935800  1
  N  572  1  0.45436200  0.49664000  0.35759700  1
  N  579  1  0.45944200  0.33416100  0.46166100  1
  N  600  1  0.91343000  0.51517600  0.54159900  1
  N  601  1  0.86863500  0.45394000  0.57162800  1
  N  602  1  0.71943100  0.58741100  0.57406600  1
  N  603  1  0.70489000  0.52934900  0.60813700  1
  N  624  1  0.36836500  0.51441000  0.73962700  1
  N  625  1  0.41503500  0.45405000  0.70942900  1
  N  626  1  0.57242900  0.58407600  0.71165800  1
  N  627  1  0.57683100  0.53432000  0.67343300  1
  N  634  1  0.81178300  0.33740800  0.82396200  1
  N  655  1  0.61735900  0.51618300  0.98939900  1
  N  656  1  0.66254600  0.57703100  0.95945000  1
  N  657  1  0.81216000  0.44360900  0.95706500  1
  N  658  1  0.82677800  0.50171900  0.92303300  1
  N  679  1  0.16260600  0.51617000  0.79141100  1
  N  680  1  0.11626800  0.57694700  0.82168000  1
  N  681  1  0.95934600  0.44690600  0.81947300  1
  N  682  1  0.95471600  0.49660200  0.85772500  1
  N  689  1  0.95933100  0.33409000  0.96165100  1
  N  710  1  0.41342400  0.51518000  0.04157500  1
  N  711  1  0.36860000  0.45395600  0.07160900  1
  N  712  1  0.21948400  0.58746100  0.07403000  1
  N  713  1  0.20475800  0.52938400  0.10808000  1
  N  734  1  0.86849200  0.51478200  0.23960700  1
  N  735  1  0.91485800  0.45404600  0.20932600  1
  N  736  1  0.07161600  0.58415200  0.21152900  1
  N  737  1  0.07632900  0.53443700  0.17328900  1
  N  742  1  0.36152200  0.32857800  0.71512500  1
  N  747  1  0.92115500  0.32842200  0.56603800  1
  N  752  1  0.86168700  0.32854000  0.21504700  1
  N  757  1  0.42110800  0.32842500  0.06604000  1
  N  761  1  0.36079300  0.38195200  0.32841300  1
  N  763  1  0.40695500  0.37198100  0.30955900  1
  N  776  1  0.36159500  0.39912900  0.45254800  1
  N  778  1  0.40749700  0.40908000  0.47145500  1
  N  791  1  0.67040200  0.64904100  0.70264300  1
  N  799  1  0.67002500  0.63200600  0.57845700  1
  N  801  1  0.62371400  0.62180100  0.55965500  1
  N  810  1  0.86084100  0.38211800  0.82838200  1
  N  812  1  0.90766900  0.37186600  0.80970400  1
  N  825  1  0.86173500  0.39910500  0.95255000  1
  N  827  1  0.90748500  0.40899500  0.97150300  1
  N  840  1  0.16962700  0.64913700  0.20250900  1
  N  849  1  0.16986400  0.63200600  0.07849200  1
  N  851  1  0.12401800  0.62196100  0.05959700  1
  N  860  1  0.06366900  0.51599100  0.51506800  1
  N  862  1  0.99362900  0.51416500  0.50193500  1
  N  875  1  0.71724100  0.51579100  0.26578300  1
  N  877  1  0.78688000  0.51466900  0.27910000  1
  N  890  1  0.31379100  0.51506100  0.76522900  1
  N  892  1  0.24420000  0.51647500  0.75190300  1
  N  905  1  0.56369000  0.51598100  0.01505400  1
  N  907  1  0.49365900  0.51415100  0.00191600  1
  N  918  1  0.74625300  0.01642500  0.75162800  1
  N  920  1  0.11244000  0.62185500  0.45651200  1
  N  922  1  0.18459900  0.63664800  0.46542100  1
  N  927  1  0.66587900  0.62176100  0.32468600  1
  N  929  1  0.59435400  0.63653900  0.31538400  1
  N  936  1  0.91810700  0.40915300  0.57453300  1
  N  938  1  0.84580600  0.39429500  0.56576300  1
  N  951  1  0.36510600  0.40926600  0.70641400  1
  N  953  1  0.43686100  0.39442900  0.71554100  1
  N  964  1  0.61234900  0.62181600  0.95654300  1
  N  966  1  0.68465400  0.63662900  0.96533400  1
  N  971  1  0.16539600  0.62179600  0.82480900  1
  N  973  1  0.09397900  0.63658000  0.81545800  1
  N  980  1  0.41808300  0.40916500  0.07451700  1
  N  982  1  0.34576900  0.39430700  0.06575600  1
  N  995  1  0.86558000  0.40925000  0.20629100  1
  N  997  1  0.93728200  0.39439100  0.21542900  1
  N  1007  1  0.39223100  0.30033500  0.38471500  1
  N  1016  1  0.36433200  0.51893600  0.39522700  1
  N  1018  1  0.39202600  0.48085900  0.39627900  1
  N  1031  1  0.66703600  0.51220700  0.63593100  1
  N  1033  1  0.63878200  0.55018100  0.63479600  1
  N  1043  1  0.89259700  0.30028600  0.88470900  1
  N  1052  1  0.86457700  0.51884700  0.89522600  1
  N  1054  1  0.89243200  0.48080400  0.89633700  1
  N  1067  1  0.16682800  0.51224200  0.13586800  1
  N  1069  1  0.13863500  0.55022500  0.13468600  1
  N  1079  1  0.65853900  0.01486400  0.79019100  1
  N  1080  1  0.49565500  0.01420300  0.50167300  1
  N  1082  1  0.28471400  0.01457200  0.27939700  1
  N  1083  1  0.99560600  0.01430400  0.00163900  1
  N  1104  1  0.91415500  0.76680100  0.73924700  1
  N  1105  1  0.86827300  0.82723000  0.70915400  1
  N  1106  1  0.71939500  0.69363200  0.70708500  1
  N  1107  1  0.70449100  0.75159700  0.67298300  1
  N  1128  1  0.36772800  0.76716200  0.54155000  1
  N  1129  1  0.41529900  0.82710100  0.57186600  1
  N  1130  1  0.57182500  0.69684400  0.56932000  1
  N  1131  1  0.57646200  0.74643100  0.60761100  1
  N  1152  1  0.41390000  0.76678700  0.23923300  1
  N  1153  1  0.36800600  0.82725200  0.20917000  1
  N  1154  1  0.21912800  0.69362700  0.20705000  1
  N  1155  1  0.20443200  0.75157600  0.17292200  1
  N  1176  1  0.86777100  0.76715200  0.04156500  1
  N  1177  1  0.91532700  0.82711300  0.07187400  1
  N  1178  1  0.07189000  0.69686000  0.06936500  1
  N  1179  1  0.07654800  0.74649500  0.10763900  1
  N  1200  1  0.62162300  0.76718000  0.29023900  1
  N  1201  1  0.66945000  0.70245400  0.31587700  1
  N  1202  1  0.81307200  0.83678600  0.32463900  1
  N  1203  1  0.82675600  0.77719700  0.35784000  1
  N  1215  1  0.62119800  0.01470400  0.49067500  1
  N  1216  1  0.81348200  0.94430800  0.45643800  1
  N  1217  1  0.82707800  0.00384500  0.42320300  1
  N  1229  1  0.15864600  0.01502700  0.29008500  1
  N  1230  1  0.95708600  0.94727500  0.32004200  1
  N  1231  1  0.95412600  0.99869700  0.35754700  1
  N  1252  1  0.15802700  0.76695900  0.49100800  1
  N  1253  1  0.10970500  0.70257900  0.46503100  1
  N  1254  1  0.95745600  0.83377800  0.46085700  1
  N  1255  1  0.95421400  0.78225800  0.42340100  1
  N  1265  1  0.36089400  0.95221500  0.56629900  1
  N  1275  1  0.92125700  0.95242800  0.71479900  1
  N  1296  1  0.12177600  0.76727500  0.79028200  1
  N  1297  1  0.16929300  0.70250600  0.81593300  1
  N  1298  1  0.31330600  0.83680500  0.82468100  1
  N  1299  1  0.32685200  0.77722300  0.85789900  1
  N  1311  1  0.12116500  0.01468800  0.99066300  1
  N  1312  1  0.31349100  0.94426800  0.95648100  1
  N  1313  1  0.32715600  0.00377600  0.92322900  1
  N  1325  1  0.45786700  0.94722300  0.82015800  1
  N  1326  1  0.45433600  0.99856300  0.85770300  1
  N  1347  1  0.65800100  0.76687000  0.99101400  1
  N  1348  1  0.60967900  0.70253700  0.96500100  1
  N  1349  1  0.45737600  0.83371500  0.96087300  1
  N  1350  1  0.45415700  0.78223200  0.92339800  1
  N  1360  1  0.86086300  0.95221300  0.06630500  1
  N  1370  1  0.42182200  0.95235700  0.21460000  1
  N  1372  1  0.62379800  0.65910500  0.72141800  1
  N  1383  1  0.12372600  0.65899800  0.22143600  1
  N  1395  1  0.86087400  0.88163500  0.32923100  1
  N  1397  1  0.90803900  0.87197200  0.31050600  1
  N  1410  1  0.86091100  0.89938600  0.45182100  1
  N  1412  1  0.90860600  0.90909100  0.47044600  1
  N  1425  1  0.36097700  0.88178800  0.82920400  1
  N  1427  1  0.40873900  0.87184000  0.81064500  1
  N  1440  1  0.36120400  0.89941300  0.95181700  1
  N  1442  1  0.40846100  0.90896900  0.97054800  1
  N  1455  1  0.96978400  0.76727000  0.76475200  1
  N  1457  1  0.03859700  0.76495500  0.75113200  1
  N  1470  1  0.31109000  0.76716200  0.51615400  1
  N  1472  1  0.24275400  0.76547600  0.52997700  1
  N  1485  1  0.46952200  0.76703500  0.26472700  1
  N  1487  1  0.53838800  0.76512700  0.25110200  1
  N  1500  1  0.81116000  0.76702000  0.01613800  1
  N  1502  1  0.74279900  0.76558600  0.02996200  1
  N  1515  1  0.56341900  0.01545500  0.51574500  1
  N  1526  1  0.21750200  0.01532200  0.26512300  1
  N  1539  1  0.06340000  0.01534300  0.01570300  1
  N  1566  1  0.91877400  0.87192300  0.70642000  1
  N  1568  1  0.84548700  0.88683500  0.71453200  1
  N  1581  1  0.36453900  0.87170800  0.57469400  1
  N  1583  1  0.43738500  0.88677600  0.56637600  1
  N  1612  1  0.41913000  0.87183600  0.20655400  1
  N  1614  1  0.34552300  0.88691700  0.21434100  1
  N  1627  1  0.86443000  0.87171000  0.07463700  1
  N  1629  1  0.93743900  0.88679900  0.06645200  1
  N  1642  1  0.66666667  0.76870700  0.64520700  1
  N  1644  1  0.63887800  0.73064000  0.64626700  1
  N  1657  1  0.16677500  0.76868000  0.14511900  1
  N  1659  1  0.13862400  0.73068500  0.14627100  1
  N  1672  1  0.86320700  0.75969000  0.38600000  1
  N  1674  1  0.89253100  0.79743600  0.38451500  1
  N  1687  1  0.89259300  0.98357600  0.39649700  1
  N  1696  1  0.16797100  0.00991800  0.63618600  1
  N  1702  1  0.36318300  0.75974000  0.88609100  1
  N  1704  1  0.39285000  0.79741500  0.88453100  1
  N  1717  1  0.39279500  0.98345000  0.89656200  1
  N  1726  1  0.66782000  0.00999500  0.13610400  1
  O  11  1  0.10991300  0.21914200  0.30037800  1
  O  28  1  0.67024500  0.21892900  0.48030200  1
  O  45  1  0.61021000  0.21915900  0.80034600  1
  O  62  1  0.17025400  0.21892600  0.98030300  1
  O  75  1  0.62521600  0.06090300  0.48645700  1
  O  85  1  0.15503700  0.06116100  0.29476600  1
  O  96  1  0.17638400  0.21155400  0.68350300  1
  O  114  1  0.17664600  0.06964400  0.59760400  1
  O  128  1  0.11218000  0.06945500  0.68631800  1
  O  143  1  0.11215600  0.21160500  0.59479900  1
  O  161  1  0.12526300  0.06089500  0.98646200  1
  O  171  1  0.65159500  0.06177100  0.79444000  1
  O  182  1  0.67626300  0.21153700  0.18344200  1
  O  200  1  0.67665500  0.06971500  0.09753700  1
  O  214  1  0.61170400  0.06959600  0.18623300  1
  O  229  1  0.61230800  0.21167600  0.09479300  1
  O  521  1  0.35419200  0.32116200  0.34687500  1
  O  532  1  0.35458700  0.46002800  0.43410500  1
  O  539  1  0.10956400  0.56133300  0.48085900  1
  O  556  1  0.41894000  0.46031300  0.34399200  1
  O  563  1  0.67047200  0.56152100  0.30043100  1
  O  576  1  0.41944200  0.32088400  0.43704400  1
  O  587  1  0.67669900  0.57099100  0.59696400  1
  O  594  1  0.91958700  0.46920900  0.54986600  1
  O  611  1  0.61222400  0.57066700  0.68703500  1
  O  618  1  0.36063100  0.46947300  0.73058300  1
  O  631  1  0.85431400  0.32117400  0.84693000  1
  O  642  1  0.85464000  0.45996700  0.93411500  1
  O  649  1  0.60963500  0.56130700  0.98085200  1
  O  666  1  0.91922400  0.46035600  0.84404200  1
  O  673  1  0.16882400  0.56198000  0.80016100  1
  O  686  1  0.91938200  0.32082800  0.93702900  1
  O  697  1  0.17668700  0.57104300  0.09692400  1
  O  704  1  0.41957300  0.46921700  0.04985000  1
  O  721  1  0.11174000  0.57071400  0.18696000  1
  O  728  1  0.86225500  0.46900000  0.23083500  1
  O  739  1  0.40306600  0.31082700  0.73704100  1
  O  744  1  0.87858700  0.31099700  0.54419900  1
  O  749  1  0.90310900  0.31077400  0.23697200  1
  O  754  1  0.37852200  0.31098500  0.04420700  1
  O  1091  1  0.67676800  0.70986200  0.68413700  1
  O  1098  1  0.92106300  0.81188000  0.73062900  1
  O  1115  1  0.61168200  0.71011200  0.59395200  1
  O  1122  1  0.36095500  0.81206100  0.55064300  1
  O  1139  1  0.17667700  0.70983900  0.18406500  1
  O  1146  1  0.42069800  0.81188700  0.23065500  1
  O  1163  1  0.11180800  0.71017300  0.09397900  1
  O  1170  1  0.86103100  0.81207000  0.05064400  1
  O  1187  1  0.85458500  0.81947800  0.34751100  1
  O  1194  1  0.62791500  0.72023200  0.29396600  1
  O  1210  1  0.85462500  0.96148400  0.43348900  1
  O  1224  1  0.91895000  0.96153500  0.34476000  1
  O  1239  1  0.91890900  0.81937000  0.43621400  1
  O  1246  1  0.15241200  0.72004200  0.48684600  1
  O  1262  1  0.40203300  0.96950600  0.54421900  1
  O  1272  1  0.87592800  0.96986200  0.73627200  1
  O  1283  1  0.35471500  0.81949700  0.84757200  1
  O  1290  1  0.12788400  0.72031500  0.79401400  1
  O  1306  1  0.35465100  0.96142200  0.93352600  1
  O  1320  1  0.41917400  0.96149100  0.84480000  1
  O  1334  1  0.41885500  0.81934400  0.93622700  1
  O  1341  1  0.65239700  0.71996700  0.98682200  1
  O  1357  1  0.90208700  0.96945400  0.04422600  1
  O  1367  1  0.37941900  0.96923800  0.23659400  1
