# generated using pymatgen
data_H34C57(N3O2)2
_symmetry_space_group_name_H-M   'P 1'
_cell_length_a   65.91245000
_cell_length_b   65.91240000
_cell_length_c   71.29910000
_cell_angle_alpha   90.00000000
_cell_angle_beta   90.00000000
_cell_angle_gamma   119.99992472
_symmetry_Int_Tables_number   1
_chemical_formula_structural   H34C57(N3O2)2
_chemical_formula_sum   'H408 C684 N72 O48'
_cell_volume   268256.08946482
_cell_formula_units_Z   12
loop_
 _symmetry_equiv_pos_site_id
 _symmetry_equiv_pos_as_xyz
  1  'x, y, z'
loop_
 _atom_site_type_symbol
 _atom_site_label
 _atom_site_symmetry_multiplicity
 _atom_site_fract_x
 _atom_site_fract_y
 _atom_site_fract_z
 _atom_site_occupancy
  H  25  1  0.70011700  0.45528000  0.92820500  1
  H  26  1  0.66093900  0.42377700  0.93300000  1
  H  27  1  0.62020800  0.39195600  0.92930400  1
  H  28  1  0.58146100  0.36409100  0.91872300  1
  H  29  1  0.57995600  0.41642100  0.88535200  1
  H  30  1  0.67485600  0.48875200  0.89219500  1
  H  31  1  0.61209100  0.46263800  0.93243900  1
  H  32  1  0.59093100  0.50841200  0.90965200  1
  H  33  1  0.60222900  0.50306100  0.87905900  1
  H  34  1  0.63933200  0.43576900  0.86273500  1
  H  35  1  0.61442800  0.49290100  0.85050700  1
  H  36  1  0.62565100  0.47706700  0.82495000  1
  H  66  1  0.84181900  0.38807500  0.92827800  1
  H  67  1  0.84967800  0.42731000  0.93315600  1
  H  68  1  0.85864700  0.46805800  0.92943300  1
  H  69  1  0.86956300  0.50679700  0.91880800  1
  H  70  1  0.92331100  0.50816200  0.88541200  1
  H  71  1  0.90049100  0.41320700  0.89221100  1
  H  72  1  0.93726100  0.47603100  0.93258700  1
  H  73  1  0.00423600  0.49711400  0.90991800  1
  H  74  1  0.98765500  0.48579200  0.87930800  1
  H  75  1  0.88333400  0.44881700  0.86276600  1
  H  76  1  0.96540100  0.47366700  0.85073700  1
  H  77  1  0.93844100  0.46248000  0.82512700  1
  H  107  1  0.63292600  0.24620100  0.92830100  1
  H  108  1  0.66443600  0.23852400  0.93307900  1
  H  109  1  0.69628200  0.22958800  0.92933800  1
  H  110  1  0.72407400  0.21857600  0.91882000  1
  H  111  1  0.67166100  0.16470400  0.88553000  1
  H  112  1  0.59935800  0.18736800  0.89237500  1
  H  113  1  0.62561500  0.15089200  0.93260900  1
  H  114  1  0.57964200  0.08390900  0.90998500  1
  H  115  1  0.58490500  0.10046300  0.87936300  1
  H  116  1  0.65236000  0.20473500  0.86274900  1
  H  117  1  0.59508100  0.12267400  0.85077200  1
  H  118  1  0.61088500  0.14960100  0.82514200  1
  H  148  1  0.41638900  0.60419100  0.42831300  1
  H  149  1  0.45555000  0.63576300  0.43306600  1
  H  150  1  0.49628500  0.66766400  0.42932000  1
  H  151  1  0.53509300  0.69549900  0.41884300  1
  H  152  1  0.53668900  0.64314500  0.38557200  1
  H  153  1  0.44172800  0.57073800  0.39233400  1
  H  154  1  0.50443100  0.59701700  0.43263100  1
  H  155  1  0.52584500  0.55137700  0.40997200  1
  H  156  1  0.51460600  0.55667200  0.37934300  1
  H  157  1  0.47726100  0.62369600  0.36275800  1
  H  158  1  0.50252700  0.56679400  0.35076200  1
  H  159  1  0.49131400  0.58251700  0.32513500  1
  H  189  1  0.27452800  0.67158100  0.42830000  1
  H  190  1  0.26689400  0.63240200  0.43304600  1
  H  191  1  0.25806200  0.59167400  0.42924800  1
  H  192  1  0.24711300  0.55289300  0.41872000  1
  H  193  1  0.19324500  0.55138500  0.38539200  1
  H  194  1  0.21581300  0.64632100  0.39224700  1
  H  195  1  0.17919600  0.58354300  0.43242500  1
  H  196  1  0.11228600  0.56243400  0.40960400  1
  H  197  1  0.12896100  0.57374500  0.37902100  1
  H  198  1  0.23334100  0.61071800  0.36274500  1
  H  199  1  0.15133100  0.58587700  0.35046900  1
  H  200  1  0.17841000  0.59708200  0.32492600  1
  H  230  1  0.48379600  0.81346500  0.42831700  1
  H  231  1  0.45222600  0.82106500  0.43304100  1
  H  232  1  0.42032500  0.82988200  0.42923200  1
  H  233  1  0.39250900  0.84086300  0.41872500  1
  H  234  1  0.44491500  0.89481600  0.38548500  1
  H  235  1  0.51729700  0.87225200  0.39233900  1
  H  236  1  0.49105800  0.90872000  0.43257400  1
  H  237  1  0.53687100  0.97571400  0.40989200  1
  H  238  1  0.53155500  0.95914600  0.37927400  1
  H  239  1  0.46427800  0.85480800  0.36274500  1
  H  240  1  0.52133700  0.93691200  0.35069200  1
  H  241  1  0.50558000  0.90994300  0.32508600  1
  H  271  1  0.27665700  0.60481200  0.06685600  1
  H  272  1  0.26841300  0.63599000  0.06235300  1
  H  273  1  0.25841400  0.66710800  0.06608300  1
  H  274  1  0.24633200  0.69407800  0.07657700  1
  H  275  1  0.19259000  0.64052000  0.10920400  1
  H  276  1  0.21711100  0.56958000  0.10185000  1
  H  277  1  0.18067400  0.59614200  0.06173300  1
  H  278  1  0.11410000  0.54593400  0.08260900  1
  H  279  1  0.13000800  0.55078600  0.11355200  1
  H  280  1  0.23270900  0.62254700  0.13218900  1
  H  281  1  0.15154600  0.56167600  0.14274100  1
  H  282  1  0.17770400  0.57800100  0.16882900  1
  H  312  1  0.48324500  0.67317900  0.06665400  1
  H  313  1  0.45208400  0.63375800  0.06213500  1
  H  314  1  0.42091700  0.59267900  0.06594800  1
  H  315  1  0.39392400  0.55365900  0.07649700  1
  H  316  1  0.44750900  0.55344500  0.10906200  1
  H  317  1  0.51844700  0.64887000  0.10168100  1
  H  318  1  0.49200900  0.58590200  0.06159500  1
  H  319  1  0.54210500  0.56946200  0.08261200  1
  H  320  1  0.53715600  0.58049500  0.11353400  1
  H  321  1  0.46546200  0.61160000  0.13194700  1
  H  322  1  0.52621900  0.59119200  0.14268800  1
  H  323  1  0.50986300  0.60109400  0.16871700  1
  H  353  1  0.41485000  0.81125300  0.06674900  1
  H  354  1  0.45428500  0.81954100  0.06221500  1
  H  355  1  0.49542300  0.82961800  0.06589200  1
  H  356  1  0.53444000  0.84165700  0.07646400  1
  H  357  1  0.53456300  0.89535700  0.10910300  1
  H  358  1  0.43914300  0.87081900  0.10169700  1
  H  359  1  0.50220800  0.90738600  0.06161800  1
  H  360  1  0.51858700  0.97391900  0.08259500  1
  H  361  1  0.50745600  0.95793400  0.11350800  1
  H  362  1  0.47640800  0.85516100  0.13197100  1
  H  363  1  0.49667800  0.93629600  0.14266200  1
  H  364  1  0.48678600  0.91005700  0.16870400  1
  H  394  1  0.83966700  0.45457000  0.56677900  1
  H  395  1  0.84808100  0.42351400  0.56214500  1
  H  396  1  0.85818400  0.39246800  0.56580500  1
  H  397  1  0.87024900  0.36550100  0.57635500  1
  H  398  1  0.92388100  0.41905200  0.60906000  1
  H  399  1  0.89917000  0.48982200  0.60179900  1
  H  400  1  0.93582400  0.46344900  0.56158900  1
  H  401  1  0.00237900  0.51361000  0.58253100  1
  H  402  1  0.98642900  0.50872300  0.61346100  1
  H  403  1  0.88367900  0.43699300  0.63198700  1
  H  404  1  0.96482400  0.49785700  0.64262800  1
  H  405  1  0.93861600  0.48151200  0.66868700  1
  H  435  1  0.63336400  0.38639300  0.56683400  1
  H  436  1  0.66450700  0.42583600  0.56229200  1
  H  437  1  0.69560400  0.46700100  0.56599800  1
  H  438  1  0.72255200  0.50606700  0.57648000  1
  H  439  1  0.66899900  0.50618800  0.60915700  1
  H  440  1  0.59811100  0.41068800  0.60183400  1
  H  441  1  0.62464100  0.47365800  0.56172700  1
  H  442  1  0.57437900  0.48995700  0.58259100  1
  H  443  1  0.57923800  0.47891100  0.61353300  1
  H  444  1  0.65111300  0.44813500  0.63220000  1
  H  445  1  0.59013000  0.46827600  0.64272400  1
  H  446  1  0.60650500  0.45852200  0.66882200  1
  H  476  1  0.70183800  0.24823900  0.56670700  1
  H  477  1  0.66242700  0.24008200  0.56223200  1
  H  478  1  0.62128400  0.23009900  0.56595000  1
  H  479  1  0.58219600  0.21797600  0.57638100  1
  H  480  1  0.58194400  0.16417100  0.60896200  1
  H  481  1  0.67742300  0.18863100  0.60165200  1
  H  482  1  0.61442400  0.15226900  0.56160300  1
  H  483  1  0.59794900  0.08569200  0.58255200  1
  H  484  1  0.60902400  0.10163900  0.61347900  1
  H  485  1  0.64012200  0.20440300  0.63200100  1
  H  486  1  0.61972500  0.12322600  0.64264900  1
  H  487  1  0.62958600  0.14943200  0.66870900  1
  H  499  1  0.56272400  0.23446600  0.91816800  1
  H  506  1  0.59285800  0.32275400  0.87383900  1
  H  507  1  0.58208500  0.35216000  0.87342900  1
  H  508  1  0.52515900  0.31115500  0.90914800  1
  H  509  1  0.59137600  0.25121600  0.86401000  1
  H  512  1  0.51845000  0.26048300  0.90509800  1
  H  513  1  0.52380400  0.27801400  0.92533000  1
  H  514  1  0.53867700  0.25020200  0.92915400  1
  H  515  1  0.56153000  0.27966300  0.93090500  1
  H  521  1  0.52865800  0.34464700  0.88528100  1
  H  522  1  0.58346300  0.21367000  0.88164300  1
  H  529  1  0.75856100  0.52537400  0.91797900  1
  H  536  1  0.81679900  0.49518600  0.87381900  1
  H  537  1  0.85699000  0.50599800  0.87345500  1
  H  538  1  0.87282200  0.56300600  0.90905200  1
  H  539  1  0.74669900  0.49658200  0.86387400  1
  H  542  1  0.82881700  0.56963900  0.90490100  1
  H  543  1  0.84101300  0.56437800  0.92516600  1
  H  544  1  0.79832000  0.54944800  0.92897800  1
  H  545  1  0.80497000  0.52662800  0.93078400  1
  H  551  1  0.90286200  0.55948700  0.88527400  1
  H  552  1  0.71705300  0.50456200  0.88145500  1
  H  559  1  0.85330200  0.32961300  0.91813200  1
  H  566  1  0.76530600  0.27107800  0.87363000  1
  H  567  1  0.73592800  0.23088600  0.87334200  1
  H  568  1  0.77689300  0.21524900  0.90935300  1
  H  569  1  0.83677900  0.34118300  0.86378700  1
  H  572  1  0.82756800  0.25927300  0.90526900  1
  H  573  1  0.80998200  0.24714700  0.92548000  1
  H  574  1  0.83768600  0.28987000  0.92921600  1
  H  575  1  0.80819200  0.28318700  0.93085800  1
  H  581  1  0.74343500  0.18508000  0.88549300  1
  H  582  1  0.87445200  0.37096900  0.88167100  1
  H  589  1  0.55387300  0.82512600  0.41814600  1
  H  596  1  0.52380900  0.73679100  0.37389600  1
  H  597  1  0.53458500  0.70738700  0.37356000  1
  H  598  1  0.59146300  0.74845100  0.40930100  1
  H  599  1  0.52525500  0.80830500  0.36398100  1
  H  602  1  0.59816900  0.79912100  0.40515400  1
  H  603  1  0.59281900  0.78162700  0.42540800  1
  H  604  1  0.57791800  0.80941900  0.42918100  1
  H  605  1  0.55507500  0.77995600  0.43094500  1
  H  611  1  0.58800500  0.71491900  0.38553400  1
  H  612  1  0.53310300  0.84584200  0.38157300  1
  H  619  1  0.35798300  0.53413900  0.41809400  1
  H  626  1  0.29979800  0.56428500  0.37381700  1
  H  627  1  0.25961800  0.55351200  0.37343100  1
  H  628  1  0.24373000  0.49658400  0.40913900  1
  H  629  1  0.36985800  0.56281200  0.36394600  1
  H  632  1  0.28769000  0.48987700  0.40505300  1
  H  633  1  0.27552800  0.49522800  0.42529600  1
  H  634  1  0.31821200  0.51010100  0.42910000  1
  H  635  1  0.31160500  0.53295400  0.43086300  1
  H  641  1  0.21371500  0.50008100  0.38529800  1
  H  642  1  0.39951300  0.55492000  0.38154900  1
  H  649  1  0.26298800  0.73001400  0.41809100  1
  H  656  1  0.35125300  0.78828300  0.37376400  1
  H  657  1  0.38065000  0.82846600  0.37340800  1
  H  658  1  0.33962700  0.84428300  0.40919600  1
  H  659  1  0.27970800  0.71822400  0.36388700  1
  H  662  1  0.28895700  0.80030300  0.40510500  1
  H  663  1  0.30648700  0.81246000  0.42534000  1
  H  664  1  0.27871500  0.76976600  0.42913300  1
  H  665  1  0.30818600  0.77639800  0.43085400  1
  H  671  1  0.37313400  0.87434200  0.38535700  1
  H  672  1  0.24219200  0.68848400  0.38152800  1
  H  679  1  0.35561600  0.82267700  0.07622700  1
  H  686  1  0.29806400  0.73528200  0.12160200  1
  H  687  1  0.25799500  0.70559800  0.12210300  1
  H  688  1  0.24154000  0.74572500  0.08583100  1
  H  689  1  0.36796000  0.80712000  0.13066400  1
  H  692  1  0.28537600  0.79674200  0.08957000  1
  H  693  1  0.27308200  0.77886800  0.06952600  1
  H  694  1  0.31571500  0.80669200  0.06541800  1
  H  695  1  0.30919400  0.77723200  0.06401300  1
  H  701  1  0.21162900  0.71202100  0.10981800  1
  H  702  1  0.39723500  0.84458500  0.11244800  1
  H  709  1  0.26527600  0.53424200  0.07626700  1
  H  716  1  0.35265500  0.56402200  0.12162200  1
  H  717  1  0.38238400  0.55369800  0.12206700  1
  H  718  1  0.34233700  0.49721000  0.08569200  1
  H  719  1  0.28077200  0.56193100  0.13077500  1
  H  722  1  0.29129400  0.48993500  0.08945200  1
  H  723  1  0.30918200  0.49562500  0.06940100  1
  H  724  1  0.28129000  0.51036800  0.06538300  1
  H  725  1  0.31073400  0.53334900  0.06399700  1
  H  731  1  0.37603400  0.50098700  0.10971900  1
  H  732  1  0.24327700  0.55382900  0.11252100  1
  H  739  1  0.55382800  0.73239300  0.07622000  1
  H  746  1  0.52391800  0.78992400  0.12153200  1
  H  747  1  0.53427000  0.82998200  0.12201600  1
  H  748  1  0.59088400  0.84646800  0.08577300  1
  H  749  1  0.52588400  0.72006100  0.13064500  1
  H  752  1  0.59811000  0.80266500  0.08954200  1
  H  753  1  0.59251600  0.81492800  0.06948400  1
  H  754  1  0.57775600  0.77229800  0.06541000  1
  H  755  1  0.55479800  0.77878900  0.06397300  1
  H  761  1  0.58704900  0.87636700  0.10974700  1
  H  762  1  0.53403200  0.69076500  0.11247300  1
  H  769  1  0.76099200  0.23671600  0.57618400  1
  H  776  1  0.81846800  0.32426800  0.62141500  1
  H  777  1  0.85852400  0.35398600  0.62189400  1
  H  778  1  0.87503800  0.31382700  0.58571000  1
  H  779  1  0.74864300  0.25239000  0.63058000  1
  H  782  1  0.83125300  0.26279800  0.58951000  1
  H  783  1  0.84351300  0.28062700  0.56943900  1
  H  784  1  0.80089100  0.25274400  0.56535900  1
  H  785  1  0.80736400  0.28218400  0.56390400  1
  H  791  1  0.90492500  0.34758000  0.60964500  1
  H  792  1  0.71928200  0.21498600  0.61247800  1
  H  799  1  0.85100400  0.52510800  0.57622600  1
  H  806  1  0.76379400  0.49566200  0.62170900  1
  H  807  1  0.73410600  0.50604300  0.62213900  1
  H  808  1  0.77414900  0.56239900  0.58565100  1
  H  809  1  0.83561700  0.49760800  0.63079500  1
  H  812  1  0.82518000  0.56959700  0.58939100  1
  H  813  1  0.80725700  0.56389700  0.56936100  1
  H  814  1  0.83506300  0.54905000  0.56533800  1
  H  815  1  0.80559800  0.52611200  0.56400600  1
  H  821  1  0.74048900  0.55874000  0.60966200  1
  H  822  1  0.87312200  0.50569900  0.61243000  1
  H  829  1  0.56270200  0.32719700  0.57621100  1
  H  836  1  0.59247700  0.26954300  0.62151000  1
  H  837  1  0.58214800  0.22949000  0.62192000  1
  H  838  1  0.52567000  0.21310000  0.58554900  1
  H  839  1  0.59043900  0.33935600  0.63070100  1
  H  842  1  0.51839600  0.25686900  0.58937200  1
  H  843  1  0.52407000  0.24468200  0.56930600  1
  H  844  1  0.53882200  0.28732100  0.56531300  1
  H  845  1  0.56179700  0.28085400  0.56390500  1
  H  851  1  0.52942400  0.18312700  0.60947200  1
  H  852  1  0.58237000  0.36871400  0.61254100  1
  H  859  1  0.63725200  0.46491800  0.70054100  1
  H  866  1  0.65157400  0.41444900  0.76563800  1
  H  867  1  0.65423000  0.42052400  0.79870400  1
  H  868  1  0.65852000  0.48581100  0.79073800  1
  H  869  1  0.66922300  0.42358500  0.69992600  1
  H  872  1  0.67194500  0.49699300  0.74763000  1
  H  873  1  0.64849400  0.49519500  0.76102100  1
  H  874  1  0.63656200  0.48456000  0.72798700  1
  H  875  1  0.61972600  0.46049900  0.74296200  1
  H  881  1  0.67048000  0.47437300  0.82131600  1
  H  882  1  0.66141300  0.43813300  0.66991300  1
  H  889  1  0.91434700  0.45052800  0.70023800  1
  H  896  1  0.85026900  0.43705400  0.76565900  1
  H  897  1  0.85395800  0.43449100  0.79870700  1
  H  898  1  0.91434100  0.42921700  0.79033300  1
  H  899  1  0.84110300  0.41926200  0.69992800  1
  H  902  1  0.91156800  0.41564800  0.74718600  1
  H  903  1  0.93348200  0.43893100  0.76054400  1
  H  904  1  0.93474400  0.45103200  0.72757300  1
  H  905  1  0.92784000  0.46801300  0.74266200  1
  H  911  1  0.89178900  0.41803500  0.82097100  1
  H  912  1  0.86326600  0.42676900  0.66981100  1
  H  919  1  0.62298800  0.17372300  0.70024700  1
  H  926  1  0.67360700  0.23781800  0.76565600  1
  H  927  1  0.66737800  0.23412700  0.79870700  1
  H  928  1  0.60174000  0.17370800  0.79035800  1
  H  929  1  0.66494000  0.24697200  0.69994000  1
  H  932  1  0.59090100  0.17646900  0.74722400  1
  H  933  1  0.59230300  0.15456400  0.76056800  1
  H  934  1  0.60311100  0.15331700  0.72758400  1
  H  935  1  0.62701600  0.16023300  0.74265500  1
  H  941  1  0.61313200  0.19631200  0.82099400  1
  H  942  1  0.65030600  0.22481400  0.66982200  1
  H  949  1  0.47877500  0.59428900  0.20017400  1
  H  956  1  0.46574800  0.64507300  0.26567600  1
  H  957  1  0.46324300  0.63880700  0.29872500  1
  H  958  1  0.45749500  0.57295600  0.29026400  1
  H  959  1  0.44791400  0.63663600  0.19996100  1
  H  962  1  0.44381700  0.56225700  0.24712300  1
  H  963  1  0.46703500  0.56343800  0.26044700  1
  H  964  1  0.47913900  0.57427100  0.22747700  1
  H  965  1  0.49624900  0.59810300  0.24257600  1
  H  971  1  0.44672500  0.58441400  0.32102400  1
  H  972  1  0.45525700  0.62188400  0.16981000  1
  H  979  1  0.20206300  0.60837900  0.20057200  1
  H  986  1  0.26709500  0.62318900  0.26561000  1
  H  987  1  0.26372100  0.62586800  0.29867900  1
  H  988  1  0.20237600  0.62954300  0.29079400  1
  H  989  1  0.27540300  0.64083400  0.19990300  1
  H  992  1  0.20443000  0.64290400  0.24770100  1
  H  993  1  0.18290700  0.61934900  0.26109100  1
  H  994  1  0.18167900  0.60749900  0.22804000  1
  H  995  1  0.18909400  0.59078400  0.24298500  1
  H  1001  1  0.22610600  0.64196300  0.32123200  1
  H  1002  1  0.25302200  0.63284500  0.16991100  1
  H  1009  1  0.49352000  0.88579700  0.20021800  1
  H  1016  1  0.44291800  0.82174100  0.26564600  1
  H  1017  1  0.44917600  0.82543900  0.29869400  1
  H  1018  1  0.51484000  0.88580900  0.29031000  1
  H  1019  1  0.45153200  0.81255400  0.19991900  1
  H  1022  1  0.52562700  0.88302200  0.24716300  1
  H  1023  1  0.52426600  0.90494200  0.26051800  1
  H  1024  1  0.51342100  0.90619900  0.22754900  1
  H  1025  1  0.48954000  0.89930200  0.24264000  1
  H  1031  1  0.50346400  0.86326700  0.32095400  1
  H  1032  1  0.46619600  0.83471100  0.16979800  1
  H  1039  1  0.55952700  0.57597900  0.03225600  1
  H  1046  1  0.54484900  0.48719900  0.99470600  1
  H  1047  1  0.56524400  0.47889300  0.97137200  1
  H  1048  1  0.60692800  0.55097000  0.96013300  1
  H  1049  1  0.49793300  0.51090400  0.02770600  1
  H  1052  1  0.57701700  0.57196200  0.97659400  1
  H  1053  1  0.60631800  0.57919800  0.98089700  1
  H  1054  1  0.58923000  0.58834900  0.00834900  1
  H  1055  1  0.59740300  0.56728200  0.01405300  1
  H  1061  1  0.61155300  0.52439100  0.94138400  1
  H  1062  1  0.51205600  0.53684700  0.05812100  1
  H  1069  1  0.10327200  0.52867000  0.03235700  1
  H  1076  1  0.02906800  0.54324700  0.99489300  1
  H  1077  1  0.00030200  0.52279500  0.97161400  1
  H  1078  1  0.03069500  0.48111800  0.96034600  1
  H  1079  1  0.09974900  0.59023900  0.02778200  1
  H  1082  1  0.08164100  0.51107900  0.97671400  1
  H  1083  1  0.05959500  0.48178200  0.98106600  1
  H  1084  1  0.08591500  0.49893800  0.00846800  1
  H  1085  1  0.05668400  0.49075400  0.01422100  1
  H  1091  1  0.99939900  0.47640000  0.94167500  1
  H  1092  1  0.11157900  0.57610300  0.05819900  1
  H  1099  1  0.51208900  0.98468700  0.03219300  1
  H  1106  1  0.60093600  0.05925000  0.99506700  1
  H  1107  1  0.60926400  0.08804300  0.97181000  1
  H  1108  1  0.53723700  0.05734800  0.96022900  1
  H  1109  1  0.57736300  0.98856500  0.02791300  1
  H  1112  1  0.51636200  0.00638500  0.97655000  1
  H  1113  1  0.50895100  0.02832800  0.98084500  1
  H  1114  1  0.49973600  0.00198300  0.00823600  1
  H  1115  1  0.52065300  0.03123500  0.01405000  1
  H  1121  1  0.56381800  0.08892200  0.94178400  1
  H  1122  1  0.55126900  0.97653500  0.05818200  1
  H  1129  1  0.55707200  0.48359000  0.53239700  1
  H  1136  1  0.57182400  0.57242700  0.49489700  1
  H  1137  1  0.55141300  0.58078800  0.47161500  1
  H  1138  1  0.50955500  0.50872000  0.46041700  1
  H  1139  1  0.61873500  0.54859800  0.52775000  1
  H  1142  1  0.53941500  0.48763000  0.47677600  1
  H  1143  1  0.51014900  0.48046400  0.48116100  1
  H  1144  1  0.52729400  0.47126500  0.50854900  1
  H  1145  1  0.51920900  0.49238500  0.51430400  1
  H  1151  1  0.50501800  0.53533700  0.44165200  1
  H  1152  1  0.60456900  0.52266800  0.55819400  1
  H  1159  1  0.01335800  0.53101600  0.53230600  1
  H  1166  1  0.08729500  0.51618800  0.49460300  1
  H  1167  1  0.11598600  0.53657100  0.47125900  1
  H  1168  1  0.08577900  0.57846100  0.46019000  1
  H  1169  1  0.01663400  0.46932600  0.52759200  1
  H  1172  1  0.03488800  0.54864500  0.47666800  1
  H  1173  1  0.05701900  0.57790600  0.48101900  1
  H  1174  1  0.03077300  0.56079400  0.50846500  1
  H  1175  1  0.05999200  0.56886100  0.51414400  1
  H  1181  1  0.11686000  0.58295700  0.44132800  1
  H  1182  1  0.00495300  0.48354600  0.55808300  1
  H  1189  1  0.60441300  0.07475300  0.53234200  1
  H  1196  1  0.51563000  0.00062600  0.49481300  1
  H  1197  1  0.50730700  0.97186100  0.47153400  1
  H  1198  1  0.57938800  0.00211800  0.46036900  1
  H  1199  1  0.53938900  0.07135700  0.52765800  1
  H  1202  1  0.60043500  0.05306000  0.47673100  1
  H  1203  1  0.60761600  0.03097300  0.48112700  1
  H  1204  1  0.61677600  0.05731700  0.50851300  1
  H  1205  1  0.59567100  0.02810600  0.51426200  1
  H  1211  1  0.55279200  0.97090400  0.44161500  1
  H  1212  1  0.56532000  0.08315700  0.55810700  1
  C  1  1  0.62769000  0.45735500  0.87535300  1
  C  2  1  0.62059600  0.47372700  0.87149700  1
  C  3  1  0.61423000  0.48012500  0.88798000  1
  C  4  1  0.61712200  0.46820800  0.90306100  1
  C  5  1  0.61049100  0.47152100  0.92131700  1
  C  6  1  0.60145600  0.48692800  0.92413600  1
  C  7  1  0.59832700  0.49803500  0.90825400  1
  C  8  1  0.60487600  0.49498500  0.89025900  1
  C  9  1  0.61985500  0.48112500  0.85317500  1
  C  10  1  0.62643300  0.47177000  0.83831400  1
  C  11  1  0.63393000  0.45535700  0.84156800  1
  C  12  1  0.63432700  0.44790100  0.86020900  1
  C  13  1  0.64868300  0.45754800  0.90491900  1
  C  14  1  0.64507500  0.43856300  0.91615400  1
  C  15  1  0.62225300  0.42043300  0.91379500  1
  C  16  1  0.61078800  0.42772200  0.90129800  1
  C  17  1  0.61160900  0.39721800  0.92036000  1
  C  18  1  0.58911800  0.38090700  0.91385700  1
  C  19  1  0.57750700  0.38752800  0.90058500  1
  C  20  1  0.58815100  0.41126500  0.89482500  1
  C  21  1  0.67190500  0.47591500  0.90165500  1
  C  22  1  0.69104400  0.47512300  0.91009900  1
  C  23  1  0.68654800  0.45655600  0.92245000  1
  C  24  1  0.66364100  0.43807400  0.92541200  1
  C  37  1  0.62620200  0.45276000  0.89602200  1
  C  42  1  0.91651100  0.46041800  0.87546500  1
  C  43  1  0.93998600  0.46749200  0.87166500  1
  C  44  1  0.95270500  0.47385300  0.88816700  1
  C  45  1  0.93786200  0.47098400  0.90321500  1
  C  46  1  0.94776300  0.47761100  0.92148500  1
  C  47  1  0.97220400  0.48666500  0.92433800  1
  C  48  1  0.98647100  0.48974300  0.90849000  1
  C  49  1  0.97691200  0.48319400  0.89048400  1
  C  50  1  0.94818800  0.46824500  0.85336700  1
  C  51  1  0.93230600  0.46167600  0.83847400  1
  C  52  1  0.90837500  0.45415800  0.84166100  1
  C  53  1  0.90047300  0.45380100  0.86028100  1
  C  54  1  0.89562300  0.43944000  0.90501800  1
  C  55  1  0.88028000  0.44309800  0.91626000  1
  C  56  1  0.88502200  0.46593500  0.91390200  1
  C  57  1  0.90373700  0.47734500  0.90136300  1
  C  58  1  0.87248500  0.47661700  0.92046400  1
  C  59  1  0.87869300  0.49910900  0.91394400  1
  C  60  1  0.89691000  0.51067800  0.90065200  1
  C  61  1  0.90996900  0.49999700  0.89489500  1
  C  62  1  0.89065900  0.41619000  0.90170300  1
  C  63  1  0.87065200  0.39708200  0.91009300  1
  C  64  1  0.85668600  0.40161900  0.92252400  1
  C  65  1  0.86119300  0.42454900  0.92550400  1
  C  78  1  0.91335300  0.46191300  0.89612700  1
  C  83  1  0.63075500  0.17157800  0.87546900  1
  C  84  1  0.61431400  0.14811200  0.87168700  1
  C  85  1  0.60795400  0.13541600  0.88820000  1
  C  86  1  0.61993500  0.15027200  0.90324000  1
  C  87  1  0.61667500  0.14038200  0.92151500  1
  C  88  1  0.60127000  0.11594800  0.92438100  1
  C  89  1  0.59005500  0.10167100  0.90854400  1
  C  90  1  0.59306400  0.11121300  0.89053300  1
  C  91  1  0.60688400  0.13988500  0.85339100  1
  C  92  1  0.61621800  0.15574800  0.83848500  1
  C  93  1  0.63264400  0.17967800  0.84166000  1
  C  94  1  0.64019300  0.18759600  0.86027500  1
  C  95  1  0.63069800  0.19255600  0.90494100  1
  C  96  1  0.64968800  0.20792500  0.91617300  1
  C  97  1  0.66777700  0.20317300  0.91384500  1
  C  98  1  0.66045100  0.18438600  0.90137300  1
  C  99  1  0.69099300  0.21571000  0.92040900  1
  C  100  1  0.70725800  0.20944600  0.91395000  1
  C  101  1  0.70059600  0.19116700  0.90071500  1
  C  102  1  0.67685300  0.17810000  0.89496400  1
  C  103  1  0.61226400  0.19733400  0.90175900  1
  C  104  1  0.61309700  0.21730500  0.91016500  1
  C  105  1  0.63167100  0.23138500  0.92250200  1
  C  106  1  0.65018600  0.22699600  0.92540900  1
  C  119  1  0.63540000  0.17476200  0.89612900  1
  C  124  1  0.48896600  0.60221400  0.37547500  1
  C  125  1  0.49612800  0.58587900  0.37168500  1
  C  126  1  0.50248000  0.57953400  0.38819700  1
  C  127  1  0.49945700  0.59139900  0.40325100  1
  C  128  1  0.50609000  0.58814600  0.42152700  1
  C  129  1  0.51520000  0.57280700  0.42439000  1
  C  130  1  0.51841400  0.56171800  0.40853700  1
  C  131  1  0.51191200  0.56474600  0.39052100  1
  C  132  1  0.49701500  0.57851500  0.35338500  1
  C  133  1  0.49043900  0.58780700  0.33848000  1
  C  134  1  0.48279100  0.60412000  0.34166000  1
  C  135  1  0.48233800  0.61161000  0.36028000  1
  C  136  1  0.46786600  0.60204600  0.40496300  1
  C  137  1  0.47142400  0.62108400  0.41610400  1
  C  138  1  0.49427600  0.63917900  0.41385000  1
  C  139  1  0.50577700  0.63188000  0.40139800  1
  C  140  1  0.50491400  0.66239100  0.42041900  1
  C  141  1  0.52744600  0.67868300  0.41398200  1
  C  142  1  0.53910000  0.67204900  0.40076100  1
  C  143  1  0.52847900  0.64830300  0.39502800  1
  C  144  1  0.44465600  0.58365600  0.40170400  1
  C  145  1  0.42550100  0.58441000  0.41015600  1
  C  146  1  0.42996500  0.60297500  0.42249700  1
  C  147  1  0.45285100  0.62152200  0.42539600  1
  C  160  1  0.49038500  0.60682800  0.39614000  1
  C  165  1  0.20011900  0.59914900  0.37534700  1
  C  166  1  0.17666100  0.59208400  0.37147900  1
  C  167  1  0.16388100  0.58568200  0.38795500  1
  C  168  1  0.17868800  0.58862400  0.40305200  1
  C  169  1  0.16872300  0.58195400  0.42129700  1
  C  170  1  0.14427500  0.57290700  0.42410100  1
  C  171  1  0.13005600  0.56982100  0.40821600  1
  C  172  1  0.13966900  0.57635800  0.39022400  1
  C  173  1  0.16853300  0.59130800  0.35314800  1
  C  174  1  0.18448100  0.59788200  0.33829500  1
  C  175  1  0.20838600  0.60537900  0.34156600  1
  C  176  1  0.21621400  0.60574600  0.36021000  1
  C  177  1  0.22093300  0.62015600  0.40488200  1
  C  178  1  0.23637500  0.61656600  0.41604300  1
  C  179  1  0.23160200  0.59371200  0.41377700  1
  C  180  1  0.21281000  0.58222900  0.40131400  1
  C  181  1  0.24416800  0.58306000  0.42033900  1
  C  182  1  0.23793600  0.56054100  0.41387700  1
  C  183  1  0.21968100  0.54892000  0.40062400  1
  C  184  1  0.20657700  0.55956100  0.39488200  1
  C  185  1  0.22577500  0.64337500  0.40163100  1
  C  186  1  0.24567500  0.66251100  0.41010900  1
  C  187  1  0.25974000  0.65801900  0.42246700  1
  C  188  1  0.25537500  0.63512100  0.42535900  1
  C  201  1  0.20321200  0.59766300  0.39601700  1
  C  206  1  0.48584000  0.88799000  0.37543800  1
  C  207  1  0.50221000  0.91147300  0.37163200  1
  C  208  1  0.50854500  0.92419400  0.38813300  1
  C  209  1  0.49664500  0.90933500  0.40319200  1
  C  210  1  0.49994400  0.91923300  0.42146600  1
  C  211  1  0.51533500  0.94367200  0.42431700  1
  C  212  1  0.52647500  0.95794800  0.40846300  1
  C  213  1  0.52342500  0.94840100  0.39045100  1
  C  214  1  0.50960200  0.91968700  0.35332700  1
  C  215  1  0.50028700  0.90380200  0.33843700  1
  C  216  1  0.48393000  0.87985800  0.34163400  1
  C  217  1  0.47640800  0.87195200  0.36025600  1
  C  218  1  0.48597700  0.86708900  0.40494500  1
  C  219  1  0.46692700  0.85161500  0.41607600  1
  C  220  1  0.44884400  0.85638500  0.41380600  1
  C  221  1  0.45616600  0.87519900  0.40136700  1
  C  222  1  0.42562400  0.84381800  0.42036300  1
  C  223  1  0.40934000  0.85004900  0.41389200  1
  C  224  1  0.41599100  0.86833600  0.40066900  1
  C  225  1  0.43973800  0.88144400  0.39493900  1
  C  226  1  0.50436900  0.86226500  0.40170400  1
  C  227  1  0.50360000  0.84235400  0.41016400  1
  C  228  1  0.48502100  0.82825600  0.42249500  1
  C  229  1  0.46647500  0.83260200  0.42537500  1
  C  242  1  0.48121100  0.88482800  0.39610200  1
  C  247  1  0.20024800  0.59980000  0.11892600  1
  C  248  1  0.17698800  0.58241100  0.12229200  1
  C  249  1  0.16461000  0.57627300  0.10561500  1
  C  250  1  0.17955700  0.58935600  0.09093900  1
  C  251  1  0.17005900  0.58654500  0.07257700  1
  C  252  1  0.14573200  0.57108600  0.06938900  1
  C  253  1  0.13152300  0.55766400  0.08460200  1
  C  254  1  0.14072500  0.56028400  0.10272700  1
  C  255  1  0.16861900  0.57415100  0.14042200  1
  C  256  1  0.18404000  0.58379000  0.15559300  1
  C  257  1  0.20756400  0.60147200  0.15279900  1
  C  258  1  0.21583500  0.60948400  0.13434400  1
  C  259  1  0.22199200  0.60098100  0.08964100  1
  C  260  1  0.23745000  0.62039500  0.07883700  1
  C  261  1  0.23213300  0.63808900  0.08121500  1
  C  262  1  0.21304000  0.63017900  0.09344600  1
  C  263  1  0.24433400  0.66140300  0.07485400  1
  C  264  1  0.23743500  0.67718900  0.08130600  1
  C  265  1  0.21889400  0.66997200  0.09437100  1
  C  266  1  0.20616600  0.64612200  0.09989800  1
  C  267  1  0.22711700  0.58276400  0.09268500  1
  C  268  1  0.24743200  0.58415900  0.08446900  1
  C  269  1  0.26158600  0.60313900  0.07248800  1
  C  270  1  0.25683000  0.62143300  0.06969300  1
  C  283  1  0.20378300  0.60509600  0.09838700  1
  C  288  1  0.48819000  0.60180400  0.11876200  1
  C  289  1  0.50554000  0.59589300  0.12218000  1
  C  290  1  0.51172300  0.58965300  0.10552400  1
  C  291  1  0.49869400  0.59153700  0.09081400  1
  C  292  1  0.50156200  0.58486400  0.07246300  1
  C  293  1  0.51701700  0.57598000  0.06932000  1
  C  294  1  0.53038100  0.57516900  0.08456800  1
  C  295  1  0.52771000  0.58174600  0.10268200  1
  C  296  1  0.51377100  0.59581800  0.14032900  1
  C  297  1  0.50410300  0.60162300  0.15546700  1
  C  298  1  0.48646200  0.60751000  0.15261400  1
  C  299  1  0.47849300  0.60775100  0.13414200  1
  C  300  1  0.48706400  0.62234700  0.08945300  1
  C  301  1  0.46766200  0.61838800  0.07863400  1
  C  302  1  0.44998200  0.59535600  0.08096500  1
  C  303  1  0.45786800  0.58420200  0.09325100  1
  C  304  1  0.42662700  0.58429300  0.07470100  1
  C  305  1  0.41082700  0.56163300  0.08119200  1
  C  306  1  0.41805500  0.55029900  0.09423700  1
  C  307  1  0.44191200  0.56140800  0.09974100  1
  C  308  1  0.50524100  0.64569400  0.09254000  1
  C  309  1  0.50389800  0.66461800  0.08427400  1
  C  310  1  0.48494400  0.65978200  0.07225400  1
  C  311  1  0.46663200  0.63673400  0.06949000  1
  C  324  1  0.48294100  0.60003100  0.09821500  1
  C  329  1  0.48616600  0.88766500  0.11876800  1
  C  330  1  0.49205300  0.91092300  0.12217300  1
  C  331  1  0.49829200  0.92333600  0.10551400  1
  C  332  1  0.49647700  0.90843100  0.09081900  1
  C  333  1  0.50320800  0.91797400  0.07247600  1
  C  334  1  0.51211100  0.94231400  0.06932700  1
  C  335  1  0.51287300  0.95648800  0.08456000  1
  C  336  1  0.50623300  0.94723600  0.10266500  1
  C  337  1  0.49208000  0.91922800  0.14031400  1
  C  338  1  0.48628100  0.90376600  0.15545800  1
  C  339  1  0.48043900  0.88024700  0.15262100  1
  C  340  1  0.48022700  0.87203300  0.13415500  1
  C  341  1  0.46567300  0.86599600  0.08943600  1
  C  342  1  0.46966400  0.85060800  0.07857000  1
  C  343  1  0.49265200  0.85587200  0.08103800  1
  C  344  1  0.50380400  0.87493600  0.09329900  1
  C  345  1  0.50377100  0.84366500  0.07469900  1
  C  346  1  0.52643100  0.85053700  0.08119500  1
  C  347  1  0.53773300  0.86906600  0.09427400  1
  C  348  1  0.52659300  0.88177800  0.09980000  1
  C  349  1  0.44232700  0.86083800  0.09251100  1
  C  350  1  0.42340800  0.84051900  0.08429500  1
  C  351  1  0.42824900  0.82636000  0.07233000  1
  C  352  1  0.45130600  0.83114100  0.06952500  1
  C  365  1  0.48797300  0.88418600  0.09822800  1
  C  370  1  0.91616900  0.45973600  0.61876300  1
  C  371  1  0.93943100  0.47710600  0.62215500  1
  C  372  1  0.95182400  0.48329400  0.60548300  1
  C  373  1  0.93690100  0.47020900  0.59079600  1
  C  374  1  0.94641800  0.47305500  0.57243800  1
  C  375  1  0.97075300  0.48850800  0.56927100  1
  C  376  1  0.98494700  0.50189400  0.58450400  1
  C  377  1  0.97572000  0.49925600  0.60262100  1
  C  378  1  0.94775900  0.48537300  0.64029200  1
  C  379  1  0.93231100  0.47572200  0.65544600  1
  C  380  1  0.90878700  0.45805300  0.65262400  1
  C  381  1  0.90055500  0.45004300  0.63416300  1
  C  382  1  0.89445300  0.45855000  0.58945400  1
  C  383  1  0.87908900  0.43917600  0.57856300  1
  C  384  1  0.88439300  0.42147800  0.58099800  1
  C  385  1  0.90342500  0.42937700  0.59328800  1
  C  386  1  0.87221400  0.39816200  0.57462900  1
  C  387  1  0.87910600  0.38238100  0.58110700  1
  C  388  1  0.89762100  0.38960200  0.59419700  1
  C  389  1  0.91030900  0.41344600  0.59975000  1
  C  390  1  0.88922200  0.47668000  0.59258400  1
  C  391  1  0.86885200  0.47521400  0.58441700  1
  C  392  1  0.85477700  0.45628900  0.57236500  1
  C  393  1  0.85960400  0.43805200  0.56953500  1
  C  406  1  0.91266700  0.45445700  0.59822100  1
  C  411  1  0.62832200  0.45778200  0.61892500  1
  C  412  1  0.61089400  0.46360300  0.62228300  1
  C  413  1  0.60471700  0.46978500  0.60559600  1
  C  414  1  0.61783100  0.46795900  0.59092600  1
  C  415  1  0.61501400  0.47463700  0.57256300  1
  C  416  1  0.59953500  0.48348500  0.56936900  1
  C  417  1  0.58611300  0.48426900  0.58458400  1
  C  418  1  0.58873100  0.47768400  0.60270800  1
  C  419  1  0.60263500  0.46371800  0.64041200  1
  C  420  1  0.61230800  0.45798800  0.65558900  1
  C  421  1  0.63001100  0.45217200  0.65280400  1
  C  422  1  0.63803800  0.45193000  0.63435200  1
  C  423  1  0.62956100  0.43720100  0.58968700  1
  C  424  1  0.64891000  0.44120200  0.57877300  1
  C  425  1  0.66660000  0.46420900  0.58118700  1
  C  426  1  0.65868900  0.47536500  0.59344700  1
  C  427  1  0.68990700  0.47534900  0.57480400  1
  C  428  1  0.70567600  0.49804300  0.58124500  1
  C  429  1  0.69845500  0.50935900  0.59431300  1
  C  430  1  0.67461200  0.49820300  0.59987000  1
  C  431  1  0.61131900  0.41386100  0.59269600  1
  C  432  1  0.61273100  0.39494800  0.58448300  1
  C  433  1  0.63170000  0.39978600  0.57248700  1
  C  434  1  0.65000100  0.42283700  0.56972300  1
  C  447  1  0.63360900  0.45952500  0.59838600  1
  C  452  1  0.63036200  0.17190900  0.61877800  1
  C  453  1  0.62447100  0.14864800  0.62216800  1
  C  454  1  0.61824300  0.13625500  0.60549900  1
  C  455  1  0.62012700  0.15119100  0.59080600  1
  C  456  1  0.61340900  0.14166600  0.57245300  1
  C  457  1  0.60449500  0.11732500  0.56929200  1
  C  458  1  0.60367600  0.10312500  0.58452400  1
  C  459  1  0.61027800  0.11235200  0.60263900  1
  C  460  1  0.62435100  0.14030300  0.64031000  1
  C  461  1  0.63013300  0.15574700  0.65546400  1
  C  462  1  0.63602700  0.17928200  0.65264000  1
  C  463  1  0.63627800  0.18752100  0.63417800  1
  C  464  1  0.65094500  0.19363600  0.58950800  1
  C  465  1  0.64701700  0.20912700  0.57872800  1
  C  466  1  0.62400100  0.20380700  0.58108100  1
  C  467  1  0.61279800  0.18469800  0.59329400  1
  C  468  1  0.61289700  0.21601500  0.57471300  1
  C  469  1  0.59019000  0.20908700  0.58112400  1
  C  470  1  0.57882900  0.19050700  0.59415100  1
  C  471  1  0.58994100  0.17776700  0.59967500  1
  C  472  1  0.67427400  0.19872800  0.59256300  1
  C  473  1  0.69321500  0.21900200  0.58432200  1
  C  474  1  0.68842200  0.23320300  0.57236700  1
  C  475  1  0.66539100  0.22853500  0.56963700  1
  C  488  1  0.62861000  0.17542300  0.59823600  1
  C  493  1  0.57836000  0.24039300  0.89141800  1
  C  494  1  0.58374200  0.25448000  0.87525700  1
  C  495  1  0.57915500  0.27330000  0.87416700  1
  C  496  1  0.56925300  0.27872900  0.88985200  1
  C  497  1  0.56216900  0.26329000  0.90561200  1
  C  498  1  0.56718800  0.24480400  0.90643600  1
  C  500  1  0.56405900  0.29768400  0.89008600  1
  C  501  1  0.57791400  0.31934700  0.88072600  1
  C  502  1  0.57202800  0.33715000  0.88093600  1
  C  503  1  0.55234900  0.33422800  0.89104200  1
  C  504  1  0.53928000  0.31341700  0.90145700  1
  C  505  1  0.54529400  0.29559000  0.90144200  1
  C  510  1  0.53217800  0.27451000  0.91350700  1
  C  511  1  0.54898100  0.26643500  0.92125700  1
  C  519  1  0.54484100  0.35049800  0.88993100  1
  C  520  1  0.58526000  0.22369700  0.89264400  1
  C  523  1  0.74886800  0.50964700  0.89125900  1
  C  524  1  0.75758800  0.50424200  0.87512100  1
  C  525  1  0.78100200  0.50884300  0.87405700  1
  C  526  1  0.79631800  0.51877300  0.88974700  1
  C  527  1  0.78795100  0.52590300  0.90547200  1
  C  528  1  0.76444300  0.52087600  0.90627000  1
  C  530  1  0.82048400  0.52401400  0.88999700  1
  C  531  1  0.82832100  0.51015200  0.88068800  1
  C  532  1  0.85201700  0.51606500  0.88092500  1
  C  533  1  0.86875100  0.53577400  0.89101600  1
  C  534  1  0.86098000  0.54885900  0.90137600  1
  C  535  1  0.83713300  0.54281900  0.90133300  1
  C  540  1  0.82913900  0.55595100  0.91334900  1
  C  541  1  0.80427000  0.53914400  0.92110900  1
  C  549  1  0.89253700  0.54330800  0.88993300  1
  C  550  1  0.72527500  0.50277100  0.89246400  1
  C  553  1  0.84746600  0.33915300  0.89128200  1
  C  554  1  0.83349200  0.33034000  0.87507600  1
  C  555  1  0.81473800  0.30689800  0.87400700  1
  C  556  1  0.80926100  0.29165200  0.88975600  1
  C  557  1  0.82463100  0.30011100  0.90555500  1
  C  558  1  0.84303800  0.32365300  0.90636500  1
  C  560  1  0.79035300  0.26748200  0.89002000  1
  C  561  1  0.76870800  0.25959600  0.88061100  1
  C  562  1  0.75093200  0.23589900  0.88087600  1
  C  563  1  0.75384600  0.21922100  0.89111200  1
  C  564  1  0.77463800  0.22704800  0.90157100  1
  C  565  1  0.79244500  0.25089700  0.90149100  1
  C  570  1  0.81349200  0.25896600  0.91361400  1
  C  571  1  0.82147400  0.28386400  0.92127200  1
  C  579  1  0.73758500  0.19543400  0.89008900  1
  C  580  1  0.86401200  0.36278200  0.89248900  1
  C  583  1  0.53823500  0.81914900  0.39139400  1
  C  584  1  0.53287700  0.80505100  0.37524200  1
  C  585  1  0.53748200  0.78624200  0.37417900  1
  C  586  1  0.54736800  0.78082900  0.38988500  1
  C  587  1  0.55444600  0.79629300  0.40563000  1
  C  588  1  0.54941400  0.81477100  0.40642500  1
  C  590  1  0.55258100  0.76188600  0.39015000  1
  C  591  1  0.53873900  0.74020600  0.38080900  1
  C  592  1  0.54463600  0.72241000  0.38105400  1
  C  593  1  0.56429300  0.72534200  0.39119900  1
  C  594  1  0.57735300  0.74617500  0.40158900  1
  C  595  1  0.57133800  0.76400200  0.40153000  1
  C  600  1  0.58444300  0.78510400  0.41357400  1
  C  601  1  0.56762700  0.79317700  0.42129500  1
  C  609  1  0.57180400  0.70906900  0.39014100  1
  C  610  1  0.53134100  0.83585500  0.39259300  1
  C  613  1  0.36768000  0.54978500  0.39134800  1
  C  614  1  0.35896700  0.55517600  0.37519600  1
  C  615  1  0.33555900  0.55059200  0.37411900  1
  C  616  1  0.32023600  0.54068400  0.38980800  1
  C  617  1  0.32860000  0.53359500  0.40555900  1
  C  618  1  0.35210400  0.53861000  0.40636900  1
  C  620  1  0.29608400  0.53548800  0.39005600  1
  C  621  1  0.28826700  0.54934100  0.38070600  1
  C  622  1  0.26457600  0.54345300  0.38093100  1
  C  623  1  0.24782900  0.52377300  0.39104200  1
  C  624  1  0.25558100  0.51070600  0.40144600  1
  C  625  1  0.27942300  0.51672100  0.40141500  1
  C  630  1  0.28739700  0.50360400  0.41346800  1
  C  631  1  0.31228000  0.52040600  0.42120900  1
  C  639  1  0.22404800  0.51626300  0.38994800  1
  C  640  1  0.39127600  0.55667700  0.39256400  1
  C  643  1  0.26891800  0.72035400  0.39132200  1
  C  644  1  0.28298400  0.72909800  0.37515400  1
  C  645  1  0.30179300  0.75251100  0.37408200  1
  C  646  1  0.30724300  0.76780400  0.38979600  1
  C  647  1  0.29180200  0.75942000  0.40555500  1
  C  648  1  0.27332200  0.73591000  0.40635900  1
  C  650  1  0.32617700  0.79196400  0.39004200  1
  C  651  1  0.34784200  0.79980200  0.38067700  1
  C  652  1  0.36563700  0.82349200  0.38091700  1
  C  653  1  0.36271200  0.84021900  0.39106400  1
  C  654  1  0.34189500  0.83244800  0.40147800  1
  C  655  1  0.32407400  0.80860400  0.40143300  1
  C  660  1  0.30299300  0.80060500  0.41350300  1
  C  661  1  0.29494300  0.77571900  0.42122400  1
  C  669  1  0.37897900  0.86400000  0.38999500  1
  C  670  1  0.25222000  0.69676000  0.39251700  1
  C  673  1  0.36553200  0.81731300  0.10308300  1
  C  674  1  0.35697600  0.80358500  0.11943500  1
  C  675  1  0.33359500  0.78476500  0.12074100  1
  C  676  1  0.31815800  0.77897300  0.10508900  1
  C  677  1  0.32635600  0.79409300  0.08913100  1
  C  678  1  0.34984300  0.81257700  0.08809000  1
  C  680  1  0.29404100  0.75996000  0.10505700  1
  C  681  1  0.28642400  0.73846900  0.11463600  1
  C  682  1  0.26279900  0.72051700  0.11450800  1
  C  683  1  0.24593300  0.72309200  0.10424700  1
  C  684  1  0.25347800  0.74374200  0.09365700  1
  C  685  1  0.27725100  0.76173200  0.09361000  1
  C  690  1  0.28505600  0.78259600  0.08131400  1
  C  691  1  0.30989400  0.79060900  0.07350100  1
  C  699  1  0.22224300  0.70649500  0.10520500  1
  C  700  1  0.38908700  0.83402700  0.10168300  1
  C  703  1  0.27060400  0.54940700  0.10316600  1
  C  704  1  0.28431700  0.55452400  0.11952100  1
  C  705  1  0.30315600  0.54998700  0.12079000  1
  C  706  1  0.30896800  0.54040900  0.10510400  1
  C  707  1  0.29385900  0.53353600  0.08914100  1
  C  708  1  0.27536400  0.53852500  0.08813300  1
  C  710  1  0.32801600  0.53535900  0.10502600  1
  C  711  1  0.34949700  0.54922600  0.11461900  1
  C  712  1  0.36747800  0.54359700  0.11445500  1
  C  713  1  0.36493500  0.52419600  0.10415100  1
  C  714  1  0.34429700  0.51110100  0.09354500  1
  C  715  1  0.32628100  0.51684900  0.09352900  1
  C  720  1  0.30542600  0.50380800  0.08122200  1
  C  721  1  0.29737100  0.52062600  0.07347000  1
  C  729  1  0.38154200  0.51711900  0.10509900  1
  C  730  1  0.25391100  0.55627000  0.10180500  1
  C  733  1  0.53854600  0.72248700  0.10307800  1
  C  734  1  0.53335500  0.73104700  0.11941700  1
  C  735  1  0.53790000  0.75442200  0.12071000  1
  C  736  1  0.54757400  0.76986000  0.10506200  1
  C  737  1  0.55449400  0.76165400  0.08910800  1
  C  738  1  0.54949800  0.73816900  0.08808000  1
  C  740  1  0.55264000  0.79396400  0.10500600  1
  C  741  1  0.53875300  0.80157200  0.11457800  1
  C  742  1  0.54439400  0.82518500  0.11442700  1
  C  743  1  0.56384100  0.84205900  0.10417400  1
  C  744  1  0.57696300  0.83452600  0.09359500  1
  C  745  1  0.57120200  0.81075800  0.09356100  1
  C  750  1  0.58427900  0.80296100  0.08127900  1
  C  751  1  0.56747600  0.77811200  0.07347600  1
  C  759  1  0.57091600  0.86574300  0.10512800  1
  C  760  1  0.53168500  0.69892500  0.10168300  1
  C  763  1  0.75107100  0.24213400  0.60302000  1
  C  764  1  0.75962400  0.25590800  0.61935000  1
  C  765  1  0.78299000  0.27476100  0.62063100  1
  C  766  1  0.79842100  0.28053600  0.60497600  1
  C  767  1  0.79023000  0.26537000  0.58904300  1
  C  768  1  0.76675900  0.24685200  0.58802900  1
  C  770  1  0.82252500  0.29957500  0.60492100  1
  C  771  1  0.83012200  0.32108000  0.61447200  1
  C  772  1  0.85373400  0.33905800  0.61431800  1
  C  773  1  0.87061500  0.33648400  0.60407700  1
  C  774  1  0.86309100  0.31581300  0.59352000  1
  C  775  1  0.83932500  0.29780000  0.59348900  1
  C  780  1  0.83154200  0.27690900  0.58122900  1
  C  781  1  0.80669300  0.26884200  0.57341600  1
  C  789  1  0.89430100  0.35309300  0.60503300  1
  C  790  1  0.72752900  0.22537400  0.60165300  1
  C  793  1  0.84572400  0.51003100  0.60315700  1
  C  794  1  0.83206500  0.50500200  0.61953500  1
  C  795  1  0.81326900  0.50960200  0.62081900  1
  C  796  1  0.80744000  0.51915100  0.60512300  1
  C  797  1  0.82251000  0.52595100  0.58913500  1
  C  798  1  0.84095600  0.52089200  0.58811300  1
  C  800  1  0.78843200  0.52425900  0.60505800  1
  C  801  1  0.76696300  0.51044400  0.61468100  1
  C  802  1  0.74900800  0.51611200  0.61451300  1
  C  803  1  0.75155800  0.53548800  0.60416900  1
  C  804  1  0.77218500  0.54853000  0.59353600  1
  C  805  1  0.79017700  0.54274700  0.59352800  1
  C  810  1  0.81101100  0.55572200  0.58118900  1
  C  811  1  0.81899700  0.53884200  0.57345100  1
  C  819  1  0.73496200  0.54258500  0.60508800  1
  C  820  1  0.86233800  0.50306900  0.60178200  1
  C  823  1  0.57788900  0.33702000  0.60310500  1
  C  824  1  0.58301800  0.32840900  0.61944700  1
  C  825  1  0.57847200  0.30503000  0.62070400  1
  C  826  1  0.56887600  0.28964800  0.60501500  1
  C  827  1  0.56199800  0.29789700  0.58906400  1
  C  828  1  0.56698900  0.32138300  0.58807100  1
  C  830  1  0.56381800  0.26554500  0.60492100  1
  C  831  1  0.57768100  0.25791600  0.61450300  1
  C  832  1  0.57204800  0.23430600  0.61431800  1
  C  833  1  0.55265300  0.21746000  0.60400200  1
  C  834  1  0.53955900  0.22502000  0.59341200  1
  C  835  1  0.54530600  0.24878300  0.59342000  1
  C  840  1  0.53226200  0.25661100  0.58113000  1
  C  841  1  0.54908000  0.28148900  0.57338800  1
  C  849  1  0.54558100  0.19377300  0.60491100  1
  C  850  1  0.58475500  0.36058600  0.60174800  1
  C  853  1  0.65226500  0.44333600  0.69691400  1
  C  854  1  0.66220400  0.43209100  0.70710400  1
  C  855  1  0.66350900  0.43279700  0.72702100  1
  C  856  1  0.65411500  0.44467100  0.73750000  1
  C  857  1  0.64481000  0.45673700  0.72717300  1
  C  858  1  0.64388300  0.45585200  0.70739900  1
  C  860  1  0.65569300  0.44747000  0.75778000  1
  C  861  1  0.65435500  0.43021100  0.77046300  1
  C  862  1  0.65535200  0.43346600  0.79008400  1
  C  863  1  0.65759900  0.45418600  0.79779700  1
  C  864  1  0.65783700  0.47102700  0.78540400  1
  C  865  1  0.65651900  0.46771500  0.76577800  1
  C  870  1  0.65463400  0.48488900  0.75338800  1
  C  871  1  0.63729200  0.47170800  0.73724400  1
  C  879  1  0.65840100  0.45850100  0.81689400  1
  C  880  1  0.65164800  0.44286400  0.67725700  1
  C  883  1  0.87777500  0.43587000  0.69676500  1
  C  884  1  0.85666200  0.42613900  0.70704300  1
  C  885  1  0.85617700  0.42485800  0.72695900  1
  C  886  1  0.87749600  0.43407900  0.73735200  1
  C  887  1  0.89878100  0.44315200  0.72693200  1
  C  888  1  0.89871200  0.44407100  0.70716200  1
  C  890  1  0.87880900  0.43243500  0.75761600  1
  C  891  1  0.86313700  0.43404900  0.77040100  1
  C  892  1  0.86555500  0.43309300  0.79000900  1
  C  893  1  0.88390100  0.43053500  0.79760300  1
  C  894  1  0.90026700  0.43002700  0.78509700  1
  C  895  1  0.89814000  0.43133700  0.76548800  1
  C  900  1  0.91701500  0.43299100  0.75299000  1
  C  901  1  0.92128200  0.45043300  0.73690300  1
  C  909  1  0.88776700  0.43001800  0.81667500  1
  C  910  1  0.87781600  0.43648000  0.67711000  1
  C  913  1  0.64488700  0.21030100  0.69677600  1
  C  914  1  0.65625600  0.23141200  0.70705400  1
  C  915  1  0.65547500  0.23189400  0.72697000  1
  C  916  1  0.64339300  0.21057300  0.73736000  1
  C  917  1  0.63117900  0.18928800  0.72694100  1
  C  918  1  0.63215300  0.18936300  0.70717000  1
  C  920  1  0.64045500  0.20925200  0.75762700  1
  C  921  1  0.65775400  0.22491800  0.77040500  1
  C  922  1  0.65438800  0.22251200  0.79001400  1
  C  923  1  0.63349400  0.20416200  0.79761500  1
  C  924  1  0.61661700  0.18778600  0.78511500  1
  C  925  1  0.62003900  0.18991400  0.76550600  1
  C  930  1  0.60281400  0.17103300  0.75301400  1
  C  931  1  0.61597900  0.16678100  0.73691100  1
  C  939  1  0.62912500  0.20030500  0.81668600  1
  C  940  1  0.64545100  0.21026100  0.67712100  1
  C  943  1  0.46432100  0.61639000  0.19675200  1
  C  944  1  0.45470300  0.62785900  0.20705600  1
  C  945  1  0.45343400  0.62704100  0.22697200  1
  C  946  1  0.46253300  0.61481100  0.23733300  1
  C  947  1  0.47148800  0.60251100  0.22688800  1
  C  948  1  0.47239900  0.60352700  0.20712000  1
  C  950  1  0.46091600  0.61184400  0.25759800  1
  C  951  1  0.46268000  0.62917400  0.27040500  1
  C  952  1  0.46173800  0.62578000  0.29001100  1
  C  953  1  0.45905700  0.60481700  0.29758200  1
  C  954  1  0.45840600  0.58789700  0.28505000  1
  C  955  1  0.45968500  0.59134300  0.26544600  1
  C  960  1  0.46119100  0.57406100  0.25291900  1
  C  961  1  0.47864700  0.58717400  0.23682700  1
  C  969  1  0.45861100  0.60041400  0.31663700  1
  C  970  1  0.46492900  0.61698500  0.17709800  1
  C  973  1  0.23868100  0.62364400  0.19691300  1
  C  974  1  0.25988000  0.63370800  0.20709100  1
  C  975  1  0.26049200  0.63500000  0.22700800  1
  C  976  1  0.23922300  0.62545900  0.23750400  1
  C  977  1  0.21783300  0.61602300  0.22719100  1
  C  978  1  0.21777800  0.61511300  0.20741700  1
  C  980  1  0.23800800  0.62701200  0.25778600  1
  C  981  1  0.25403600  0.62583700  0.27045000  1
  C  982  1  0.25180400  0.62684300  0.29007300  1
  C  983  1  0.23324200  0.62891600  0.29780900  1
  C  984  1  0.21652800  0.62897200  0.28543900  1
  C  985  1  0.21850500  0.62765800  0.26581000  1
  C  990  1  0.19936300  0.62561900  0.25344300  1
  C  991  1  0.19532100  0.60833300  0.23728100  1
  C  999  1  0.22981500  0.62978600  0.31692200  1
  C  1000  1  0.23852800  0.62306000  0.17725500  1
  C  1003  1  0.47160100  0.84922400  0.19675200  1
  C  1004  1  0.46022300  0.82811200  0.20703100  1
  C  1005  1  0.46101800  0.82763400  0.22694700  1
  C  1006  1  0.47312000  0.84895400  0.23733600  1
  C  1007  1  0.48533400  0.87023700  0.22691400  1
  C  1008  1  0.48434200  0.87016300  0.20714300  1
  C  1010  1  0.47608000  0.85027200  0.25760000  1
  C  1011  1  0.45879400  0.83460700  0.27038700  1
  C  1012  1  0.46217200  0.83703000  0.28999400  1
  C  1013  1  0.48307800  0.85537300  0.29758600  1
  C  1014  1  0.49995300  0.87173300  0.28507600  1
  C  1015  1  0.49651300  0.86960200  0.26546800  1
  C  1020  1  0.51373400  0.88847500  0.25296700  1
  C  1021  1  0.50055800  0.89274000  0.23688100  1
  C  1029  1  0.48746000  0.85924700  0.31665500  1
  C  1030  1  0.47103000  0.84926000  0.17709700  1
  C  1033  1  0.52695400  0.54458400  0.03210900  1
  C  1034  1  0.51475700  0.52234800  0.02354400  1
  C  1035  1  0.52510100  0.51514900  0.00947900  1
  C  1036  1  0.54897000  0.53011200  0.00414000  1
  C  1037  1  0.56078300  0.55313800  0.01205700  1
  C  1038  1  0.55002300  0.55991800  0.02597800  1
  C  1040  1  0.56152300  0.52407200  0.99040700  1
  C  1041  1  0.55708800  0.50094300  0.98705000  1
  C  1042  1  0.56971600  0.49597700  0.97357200  1
  C  1043  1  0.58810800  0.51406900  0.96316400  1
  C  1044  1  0.59363700  0.53731100  0.96730300  1
  C  1045  1  0.58096600  0.54239900  0.98069900  1
  C  1050  1  0.58807700  0.56723000  0.98478000  1
  C  1051  1  0.58506100  0.57027900  0.00593200  1
  C  1059  1  0.59961100  0.51019400  0.94822200  1
  C  1060  1  0.51815300  0.54926800  0.04828300  1
  C  1063  1  0.10443800  0.56123600  0.03219200  1
  C  1064  1  0.09437200  0.57341000  0.02362800  1
  C  1065  1  0.07679900  0.56303700  0.00959000  1
  C  1066  1  0.06790000  0.53916700  0.00426700  1
  C  1067  1  0.07913500  0.52737200  0.01217900  1
  C  1068  1  0.09670700  0.53816200  0.02607200  1
  C  1070  1  0.04926500  0.52657400  0.99057400  1
  C  1071  1  0.03055900  0.53099800  0.98723800  1
  C  1072  1  0.01292700  0.51833600  0.97379500  1
  C  1073  1  0.01260800  0.49992900  0.96339500  1
  C  1074  1  0.03034600  0.49442700  0.96750300  1
  C  1075  1  0.04813300  0.50712100  0.98087200  1
  C  1080  1  0.06587300  0.50003000  0.98493100  1
  C  1081  1  0.07199900  0.50308900  0.00607200  1
  C  1089  1  0.99718800  0.48838600  0.94848300  1
  C  1090  1  0.11795900  0.57008500  0.04834800  1
  C  1093  1  0.54356500  0.98367500  0.03216600  1
  C  1094  1  0.56587500  0.99386900  0.02370200  1
  C  1095  1  0.57309300  0.01146300  0.00968000  1
  C  1096  1  0.55806100  0.02025900  0.00427000  1
  C  1097  1  0.53498300  0.00891600  0.01209200  1
  C  1098  1  0.52819100  0.99133100  0.02597300  1
  C  1100  1  0.56410800  0.03890300  0.99058700  1
  C  1101  1  0.58722000  0.05768800  0.98733700  1
  C  1102  1  0.59219100  0.07533900  0.97391200  1
  C  1103  1  0.57411700  0.07556700  0.96342100  1
  C  1104  1  0.55088400  0.05775300  0.96744600  1
  C  1105  1  0.54579100  0.03995100  0.98080200  1
  C  1110  1  0.52096300  0.02212200  0.98477000  1
  C  1111  1  0.51779300  0.01596000  0.00590400  1
  C  1119  1  0.57800400  0.09105100  0.94855700  1
  C  1120  1  0.53888000  0.97014800  0.04832000  1
  C  1123  1  0.58967700  0.51494300  0.53219200  1
  C  1124  1  0.60189300  0.53717300  0.52361400  1
  C  1125  1  0.59153000  0.54439800  0.50958600  1
  C  1126  1  0.56763600  0.52947400  0.50429400  1
  C  1127  1  0.55581000  0.50644800  0.51221600  1
  C  1128  1  0.56659200  0.49962900  0.52609000  1
  C  1130  1  0.55506400  0.53554700  0.49060500  1
  C  1131  1  0.55955100  0.55869500  0.48725200  1
  C  1132  1  0.54690100  0.56369300  0.47381600  1
  C  1133  1  0.52845400  0.54562100  0.46343500  1
  C  1134  1  0.52288200  0.52236600  0.46757000  1
  C  1135  1  0.53556400  0.51724400  0.48093100  1
  C  1140  1  0.52841400  0.49240100  0.48500400  1
  C  1141  1  0.53149700  0.48934800  0.50614300  1
  C  1149  1  0.51695900  0.54952500  0.44850100  1
  C  1150  1  0.59855000  0.51027400  0.54833700  1
  C  1153  1  0.01207400  0.49839500  0.53207400  1
  C  1154  1  0.02206300  0.48617500  0.52346700  1
  C  1155  1  0.03961500  0.49652400  0.50940900  1
  C  1156  1  0.04858400  0.52041900  0.50411900  1
  C  1157  1  0.03742700  0.53226200  0.51208400  1
  C  1158  1  0.01987800  0.52149800  0.52599600  1
  C  1160  1  0.06718400  0.53297300  0.49038900  1
  C  1161  1  0.08582700  0.52847400  0.48698400  1
  C  1162  1  0.10341800  0.54109500  0.47350100  1
  C  1163  1  0.10376700  0.55954000  0.46313800  1
  C  1164  1  0.08611100  0.56513200  0.46732700  1
  C  1165  1  0.06835700  0.55247000  0.48073000  1
  C  1170  1  0.05069300  0.55964100  0.48486100  1
  C  1171  1  0.04463400  0.55657600  0.50601500  1
  C  1179  1  0.11911700  0.57102200  0.44817600  1
  C  1180  1  0.99856000  0.48955800  0.54823400  1
  C  1183  1  0.57304900  0.07598600  0.53211600  1
  C  1184  1  0.55082400  0.06594700  0.52353100  1
  C  1185  1  0.54361700  0.04835700  0.50950700  1
  C  1186  1  0.55856300  0.03941100  0.50422400  1
  C  1187  1  0.58157800  0.05061700  0.51216100  1
  C  1188  1  0.58837000  0.06820900  0.52603800  1
  C  1190  1  0.55251400  0.02076300  0.49054200  1
  C  1191  1  0.52937500  0.00208900  0.48718300  1
  C  1192  1  0.52439700  0.98445200  0.47374100  1
  C  1193  1  0.54248500  0.98409600  0.46337100  1
  C  1194  1  0.56573200  0.00179500  0.46750700  1
  C  1195  1  0.57083200  0.01958600  0.48087500  1
  C  1200  1  0.59566800  0.03729200  0.48495900  1
  C  1201  1  0.59870200  0.04342800  0.50609900  1
  C  1209  1  0.53861100  0.96870600  0.44844100  1
  C  1210  1  0.57772800  0.08952800  0.54826000  1
  N  38  1  0.55640600  0.37250100  0.89389900  1
  N  39  1  0.63906900  0.44746100  0.82613400  1
  N  40  1  0.59362500  0.49009000  0.94069900  1
  N  41  1  0.71348400  0.48855700  0.90570500  1
  N  79  1  0.90299100  0.53176900  0.89394000  1
  N  80  1  0.89539600  0.44907600  0.82618900  1
  N  81  1  0.98316700  0.49446900  0.94091400  1
  N  82  1  0.86155800  0.37464600  0.90565200  1
  N  120  1  0.71558800  0.18501900  0.89407600  1
  N  121  1  0.64053800  0.19264500  0.82618400  1
  N  122  1  0.59811200  0.10497900  0.94095200  1
  N  123  1  0.59957000  0.22622600  0.90583600  1
  N  161  1  0.56022700  0.68706900  0.39411600  1
  N  162  1  0.47764400  0.61194300  0.32617400  1
  N  163  1  0.52298600  0.56963900  0.44097500  1
  N  164  1  0.40305700  0.57092000  0.40579400  1
  N  202  1  0.21360900  0.52782300  0.39393100  1
  N  203  1  0.22142500  0.61044200  0.32614300  1
  N  204  1  0.13327400  0.56507700  0.44066500  1
  N  205  1  0.25465700  0.68496000  0.40574700  1
  N  243  1  0.40097500  0.87442800  0.39398600  1
  N  244  1  0.47603100  0.86688000  0.32616300  1
  N  245  1  0.51850300  0.95464200  0.44089400  1
  N  246  1  0.51709400  0.83339800  0.40581800  1
  N  284  1  0.21224200  0.68455100  0.10108900  1
  N  285  1  0.21938200  0.60974200  0.16854100  1
  N  286  1  0.13546300  0.56722700  0.05251700  1
  N  287  1  0.25661200  0.57085900  0.08879700  1
  N  325  1  0.40348100  0.52907400  0.10096800  1
  N  326  1  0.47814400  0.61107400  0.16832100  1
  N  327  1  0.52093900  0.56960000  0.05245800  1
  N  328  1  0.51718900  0.68709500  0.08860900  1
  N  366  1  0.55896100  0.87572900  0.10100200  1
  N  367  1  0.47689500  0.86838500  0.16833500  1
  N  368  1  0.51853300  0.95261100  0.05246800  1
  N  369  1  0.40093100  0.83132700  0.08864000  1
  N  407  1  0.90428900  0.37503700  0.60091500  1
  N  408  1  0.89694100  0.44974000  0.66834800  1
  N  409  1  0.98103500  0.49237800  0.55240400  1
  N  410  1  0.85963100  0.48846800  0.58878500  1
  N  448  1  0.71301400  0.53061900  0.60098500  1
  N  449  1  0.63830600  0.44866800  0.66855000  1
  N  450  1  0.59568400  0.48990800  0.55250200  1
  N  451  1  0.59935800  0.37245600  0.58874700  1
  N  489  1  0.55756400  0.18380800  0.60081000  1
  N  490  1  0.63956900  0.19113100  0.66835900  1
  N  491  1  0.59808500  0.10703800  0.55242800  1
  N  492  1  0.71570200  0.22809100  0.58860000  1
  N  516  1  0.58313400  0.28550600  0.85697700  1
  N  546  1  0.78925000  0.50483100  0.85689200  1
  N  576  1  0.80261700  0.29855900  0.85679600  1
  N  606  1  0.53352200  0.77401500  0.35700300  1
  N  636  1  0.32732300  0.55457700  0.35693800  1
  N  666  1  0.31399000  0.76078200  0.35689400  1
  N  696  1  0.32550400  0.77290500  0.13808100  1
  N  726  1  0.31501200  0.55370400  0.13812700  1
  N  756  1  0.53411300  0.76251500  0.13804300  1
  N  786  1  0.79107900  0.28667100  0.63795100  1
  N  816  1  0.80146600  0.50596500  0.63817100  1
  N  846  1  0.58220100  0.29688200  0.63803100  1
  N  876  1  0.67584300  0.42320600  0.73621000  1
  N  906  1  0.83430400  0.41274200  0.73624800  1
  N  936  1  0.66522700  0.25376600  0.73626200  1
  N  966  1  0.44142900  0.63689700  0.23629200  1
  N  996  1  0.28241700  0.64745900  0.23618200  1
  N  1026  1  0.45125800  0.80576100  0.23624000  1
  N  1056  1  0.51107000  0.49344300  0.00032700  1
  N  1086  1  0.06909200  0.57704700  0.00044400  1
  N  1116  1  0.59488600  0.01928700  0.00063000  1
  N  1146  1  0.60556500  0.56609400  0.50042200  1
  N  1176  1  0.04723500  0.48247300  0.50021400  1
  N  1206  1  0.52192300  0.04068000  0.50033500  1
  O  517  1  0.60423900  0.29510100  0.85198600  1
  O  518  1  0.57052700  0.27228400  0.84401500  1
  O  547  1  0.77775200  0.48371400  0.85193100  1
  O  548  1  0.78863700  0.51740300  0.84389900  1
  O  577  1  0.79298700  0.30999000  0.85168000  1
  O  578  1  0.81592300  0.29916400  0.84391000  1
  O  607  1  0.51242100  0.76440600  0.35199900  1
  O  608  1  0.54613500  0.78722400  0.34403700  1
  O  637  1  0.33883100  0.57568600  0.35195200  1
  O  638  1  0.32792900  0.54197600  0.34396700  1
  O  667  1  0.32358800  0.74928700  0.35186300  1
  O  668  1  0.30075700  0.76019000  0.34395000  1
  O  697  1  0.33708900  0.76345900  0.14324600  1
  O  698  1  0.32617500  0.78637700  0.15085000  1
  O  727  1  0.32443400  0.57471700  0.14334500  1
  O  728  1  0.30154300  0.54084700  0.15087300  1
  O  757  1  0.51307800  0.75092600  0.14319700  1
  O  758  1  0.54690700  0.76185300  0.15082400  1
  O  787  1  0.77946700  0.29609700  0.64309400  1
  O  788  1  0.79044400  0.27324400  0.65074500  1
  O  817  1  0.79201400  0.48496400  0.64342800  1
  O  818  1  0.81498600  0.51884000  0.65088600  1
  O  847  1  0.60321700  0.30846400  0.64323700  1
  O  848  1  0.56935700  0.29749500  0.65079000  1
  O  877  1  0.66689700  0.40164500  0.73302500  1
  O  878  1  0.69707000  0.43340400  0.73153100  1
  O  907  1  0.82185800  0.42189300  0.73313700  1
  O  908  1  0.82304800  0.39151400  0.73159700  1
  O  937  1  0.68682100  0.26622200  0.73314300  1
  O  938  1  0.65524000  0.26501200  0.73162100  1
  O  967  1  0.45069400  0.65851000  0.23320400  1
  O  968  1  0.42020400  0.62704200  0.23164900  1
  O  997  1  0.29515100  0.63865400  0.23297300  1
  O  998  1  0.29331000  0.66869000  0.23151000  1
  O  1027  1  0.42966100  0.79331800  0.23313100  1
  O  1028  1  0.46122700  0.79450100  0.23159200  1
  O  1057  1  0.50296800  0.47651000  0.01161500  1
  O  1058  1  0.49433800  0.49309500  0.99158700  1
  O  1087  1  0.06027600  0.58515500  0.01174000  1
  O  1088  1  0.08545100  0.59377200  0.99167800  1
  O  1117  1  0.61173200  0.02815000  0.01199700  1
  O  1118  1  0.59540300  0.00299300  0.99188400  1
  O  1147  1  0.61373400  0.58303100  0.51170500  1
  O  1148  1  0.62225000  0.56640100  0.49163500  1
  O  1177  1  0.05602400  0.47429700  0.51147100  1
  O  1178  1  0.03082500  0.46579200  0.49145000  1
  O  1207  1  0.50498000  0.03190000  0.51161300  1
  O  1208  1  0.52160400  0.05704700  0.49154200  1
