# generated using pymatgen
data_H9C16(N2O)2
_symmetry_space_group_name_H-M   'P 1'
_cell_length_a   62.61720000
_cell_length_b   63.99580000
_cell_length_c   63.99590000
_cell_angle_alpha   89.88790000
_cell_angle_beta   90.00000000
_cell_angle_gamma   90.00000000
_symmetry_Int_Tables_number   1
_chemical_formula_structural   H9C16(N2O)2
_chemical_formula_sum   'H1728 C3072 N768 O384'
_cell_volume   256446.29918937
_cell_formula_units_Z   192
loop_
 _symmetry_equiv_pos_site_id
 _symmetry_equiv_pos_as_xyz
  1  'x, y, z'
loop_
 _atom_site_type_symbol
 _atom_site_label
 _atom_site_symmetry_multiplicity
 _atom_site_fract_x
 _atom_site_fract_y
 _atom_site_fract_z
 _atom_site_occupancy
  H  7  1  0.88154100  0.59552300  0.11816500  1
  H  8  1  0.88129800  0.53002600  0.12141400  1
  H  15  1  0.91955500  0.65163900  0.05481800  1
  H  16  1  0.93303300  0.59328200  0.07805500  1
  H  19  1  0.91871300  0.54719800  0.06219600  1
  H  20  1  0.85830500  0.62945500  0.08769700  1
  H  31  1  0.38161300  0.34005400  0.37388500  1
  H  32  1  0.38117300  0.40539300  0.37066200  1
  H  39  1  0.41954800  0.28406300  0.43730500  1
  H  40  1  0.43304300  0.34241700  0.41406100  1
  H  43  1  0.41834100  0.38858100  0.43000500  1
  H  44  1  0.35828500  0.30624900  0.40445200  1
  H  55  1  0.13154500  0.09759700  0.87588100  1
  H  56  1  0.13128400  0.09437400  0.81037800  1
  H  63  1  0.16962800  0.16100300  0.93169500  1
  H  64  1  0.18304700  0.13775800  0.87345500  1
  H  67  1  0.16838500  0.15382000  0.82731600  1
  H  68  1  0.10829200  0.12818100  0.90966500  1
  H  79  1  0.63174900  0.84174300  0.62038500  1
  H  80  1  0.63141500  0.84519900  0.68563600  1
  H  87  1  0.66953800  0.77855900  0.56430500  1
  H  88  1  0.68305700  0.80178200  0.62258200  1
  H  91  1  0.66807200  0.78558900  0.66933700  1
  H  92  1  0.60829000  0.81141200  0.58641000  1
  H  103  1  0.48063700  0.59495100  0.37436600  1
  H  104  1  0.48227000  0.52963100  0.37224600  1
  H  111  1  0.44318200  0.65156100  0.43726100  1
  H  112  1  0.42951200  0.59320600  0.41424700  1
  H  115  1  0.44274400  0.54706800  0.43017100  1
  H  116  1  0.50430900  0.62928600  0.40445000  1
  H  127  1  0.98063100  0.34073200  0.11779100  1
  H  128  1  0.98226100  0.40605600  0.11991200  1
  H  135  1  0.94310700  0.28418600  0.05491100  1
  H  136  1  0.92949900  0.34251100  0.07792000  1
  H  139  1  0.94275000  0.38862000  0.06198400  1
  H  140  1  0.00429800  0.30639900  0.08770700  1
  H  151  1  0.23058500  0.09809100  0.62098900  1
  H  152  1  0.23231700  0.09590200  0.68631600  1
  H  159  1  0.19313400  0.16100900  0.56425900  1
  H  160  1  0.17952700  0.13795800  0.62269500  1
  H  163  1  0.19274900  0.15383200  0.66875300  1
  H  164  1  0.25428800  0.12815700  0.58658700  1
  H  175  1  0.73059800  0.84149600  0.87506300  1
  H  176  1  0.73232800  0.84368000  0.80973100  1
  H  183  1  0.69315700  0.77859500  0.93178300  1
  H  184  1  0.67950900  0.80161600  0.87335300  1
  H  187  1  0.69275600  0.78575400  0.82730000  1
  H  188  1  0.75429300  0.81143400  0.90943900  1
  H  199  1  0.98089700  0.34000000  0.87607500  1
  H  200  1  0.98130000  0.40543400  0.87285600  1
  H  207  1  0.94320900  0.28273000  0.93777600  1
  H  208  1  0.92949100  0.34308400  0.91875000  1
  H  211  1  0.94428900  0.38834300  0.93255600  1
  H  212  1  0.00419400  0.30642500  0.90632300  1
  H  223  1  0.48085500  0.59560900  0.61582000  1
  H  224  1  0.48142200  0.53049000  0.61963800  1
  H  231  1  0.44328400  0.65298900  0.55429600  1
  H  232  1  0.42950500  0.59259900  0.57327100  1
  H  235  1  0.44443200  0.54670700  0.55978300  1
  H  236  1  0.50422800  0.62923500  0.58580200  1
  H  247  1  0.73100600  0.83784500  0.11847400  1
  H  248  1  0.73147000  0.84145800  0.18372000  1
  H  255  1  0.69142400  0.77775500  0.06242000  1
  H  256  1  0.67950200  0.79807900  0.12133400  1
  H  259  1  0.69458600  0.78183500  0.16756900  1
  H  260  1  0.75385200  0.80802300  0.08440400  1
  H  271  1  0.23124800  0.09770800  0.37396100  1
  H  272  1  0.23140900  0.09433600  0.30846000  1
  H  279  1  0.19155800  0.15865900  0.43041400  1
  H  280  1  0.17944900  0.13785600  0.37127100  1
  H  283  1  0.19432700  0.15380600  0.32529500  1
  H  284  1  0.25389200  0.12841800  0.40798900  1
  H  295  1  0.38225100  0.34068100  0.61559600  1
  H  296  1  0.38057100  0.40592000  0.61764500  1
  H  303  1  0.41948100  0.28281600  0.55445100  1
  H  304  1  0.43332100  0.34319200  0.57309500  1
  H  307  1  0.41993800  0.38848100  0.55943100  1
  H  308  1  0.35855700  0.30661600  0.58580500  1
  H  319  1  0.88217300  0.59498900  0.87654100  1
  H  320  1  0.88054800  0.52976400  0.87450900  1
  H  327  1  0.91938900  0.65290500  0.93771500  1
  H  328  1  0.93331000  0.59252100  0.91901800  1
  H  331  1  0.91993800  0.54721000  0.93271700  1
  H  332  1  0.85858100  0.62908900  0.90630200  1
  H  343  1  0.63200700  0.83748800  0.37312100  1
  H  344  1  0.63033800  0.83981400  0.30778600  1
  H  351  1  0.67135900  0.77789300  0.43036700  1
  H  352  1  0.68337000  0.79760800  0.37105700  1
  H  355  1  0.66996000  0.78187400  0.32527900  1
  H  356  1  0.60867700  0.80700600  0.40750000  1
  H  367  1  0.13227400  0.09811100  0.11916900  1
  H  368  1  0.13026300  0.09584600  0.18449900  1
  H  375  1  0.17136500  0.15793100  0.06210700  1
  H  376  1  0.18385100  0.13786700  0.12152800  1
  H  379  1  0.17000900  0.15382900  0.16704900  1
  H  380  1  0.10914900  0.12814800  0.08511800  1
  H  391  1  0.38674500  0.09724100  0.62172300  1
  H  392  1  0.38021400  0.03256600  0.62312200  1
  H  399  1  0.42160800  0.15405000  0.55895800  1
  H  400  1  0.43404900  0.09462800  0.57997200  1
  H  403  1  0.41853100  0.04871800  0.56376400  1
  H  404  1  0.35970200  0.13137500  0.58961500  1
  H  415  1  0.88670900  0.84219100  0.87439000  1
  H  416  1  0.88026300  0.90688400  0.87294300  1
  H  423  1  0.92155700  0.78516100  0.93694300  1
  H  424  1  0.93358300  0.84453800  0.91628800  1
  H  427  1  0.91825600  0.89075000  0.93244400  1
  H  428  1  0.85914300  0.80778200  0.90705700  1
  H  439  1  0.63678500  0.59436800  0.37376000  1
  H  440  1  0.63049000  0.59315100  0.30911300  1
  H  447  1  0.66971100  0.65769400  0.43140500  1
  H  448  1  0.68350900  0.63887400  0.37093300  1
  H  451  1  0.66856300  0.65267800  0.32536300  1
  H  452  1  0.60878200  0.62656200  0.40760700  1
  H  463  1  0.13677300  0.34129700  0.11840600  1
  H  464  1  0.13051900  0.34252300  0.18302800  1
  H  471  1  0.16980600  0.27803900  0.06080400  1
  H  472  1  0.18352500  0.29685600  0.12126300  1
  H  475  1  0.16858300  0.28302900  0.16682600  1
  H  476  1  0.10880000  0.30911200  0.08455600  1
  H  487  1  0.97576300  0.09656600  0.87491900  1
  H  488  1  0.98312200  0.03194500  0.87445000  1
  H  495  1  0.94100700  0.15398200  0.93621300  1
  H  496  1  0.92849300  0.09446100  0.91624600  1
  H  499  1  0.94271400  0.04851800  0.93246500  1
  H  500  1  0.00320600  0.13082100  0.90664000  1
  H  511  1  0.47581000  0.84282100  0.62110300  1
  H  512  1  0.48303900  0.90746300  0.62153000  1
  H  519  1  0.44142200  0.78528400  0.55816200  1
  H  520  1  0.42895100  0.84446900  0.57963200  1
  H  523  1  0.44276200  0.89082600  0.56360000  1
  H  524  1  0.50324700  0.80760300  0.58913000  1
  H  535  1  0.72572900  0.59501200  0.11918200  1
  H  536  1  0.73291400  0.59456800  0.18373500  1
  H  543  1  0.69297800  0.65763000  0.06074800  1
  H  544  1  0.67904400  0.63896000  0.12134200  1
  H  547  1  0.69278600  0.65285600  0.16687900  1
  H  548  1  0.75379000  0.62653600  0.08475300  1
  H  559  1  0.22573200  0.34065900  0.37298100  1
  H  560  1  0.23291100  0.34109800  0.30842600  1
  H  567  1  0.19296000  0.27796400  0.43142100  1
  H  568  1  0.17907200  0.29666400  0.37083400  1
  H  571  1  0.19278700  0.28281600  0.32528200  1
  H  572  1  0.25378300  0.30912600  0.40744200  1
  H  583  1  0.47691700  0.84193900  0.37708800  1
  H  584  1  0.48255100  0.90644000  0.37476600  1
  H  591  1  0.44126400  0.78374600  0.43634900  1
  H  592  1  0.42915100  0.84535400  0.42103700  1
  H  595  1  0.44457100  0.89046200  0.43487000  1
  H  596  1  0.50399300  0.80856400  0.40953200  1
  H  607  1  0.97582000  0.09729900  0.11944300  1
  H  608  1  0.98232800  0.03269600  0.12096500  1
  H  615  1  0.94114300  0.15560800  0.05946300  1
  H  616  1  0.92852800  0.09387100  0.07505600  1
  H  619  1  0.94418700  0.04879300  0.06124700  1
  H  620  1  0.00302000  0.13077900  0.08755900  1
  H  631  1  0.22660700  0.34056100  0.62000900  1
  H  632  1  0.23238200  0.34303700  0.68447100  1
  H  639  1  0.19120000  0.28058800  0.56190100  1
  H  640  1  0.17898000  0.29675100  0.62345900  1
  H  643  1  0.19448200  0.28304100  0.66903300  1
  H  644  1  0.25324000  0.30865100  0.58627600  1
  H  655  1  0.72633400  0.59813900  0.87561200  1
  H  656  1  0.73240900  0.59668900  0.81097700  1
  H  663  1  0.69164700  0.65807400  0.93346400  1
  H  664  1  0.67924500  0.64264300  0.87225300  1
  H  667  1  0.69441800  0.65642500  0.82712700  1
  H  668  1  0.75386500  0.63003800  0.90915400  1
  H  679  1  0.88619000  0.84250200  0.11818300  1
  H  680  1  0.87973300  0.90700900  0.11973200  1
  H  687  1  0.92145500  0.78369000  0.05887000  1
  H  688  1  0.93385100  0.84532100  0.07476700  1
  H  691  1  0.91985200  0.89084200  0.06115800  1
  H  692  1  0.85956500  0.80821800  0.08689700  1
  H  703  1  0.38650700  0.09664400  0.37698500  1
  H  704  1  0.37964400  0.03207600  0.37643600  1
  H  711  1  0.42110300  0.15518100  0.43633100  1
  H  712  1  0.43357100  0.09388500  0.42116200  1
  H  715  1  0.41982100  0.04876800  0.43475000  1
  H  716  1  0.35895900  0.13075900  0.40831100  1
  H  727  1  0.13706200  0.34060600  0.87480400  1
  H  728  1  0.12970100  0.34117600  0.81026400  1
  H  735  1  0.17151700  0.28126300  0.93382000  1
  H  736  1  0.18430600  0.29653900  0.87201800  1
  H  739  1  0.16998400  0.28282700  0.82696500  1
  H  740  1  0.10978900  0.30933000  0.90884700  1
  H  751  1  0.63584600  0.59948900  0.62083700  1
  H  752  1  0.62953500  0.59769500  0.68534300  1
  H  759  1  0.67141000  0.65803200  0.56205000  1
  H  760  1  0.68363000  0.64300400  0.62376800  1
  H  763  1  0.66968700  0.65635500  0.66909000  1
  H  764  1  0.60882400  0.63127800  0.58698700  1
  H  778  1  0.97006800  0.64331700  0.97466500  1
  H  779  1  0.97030300  0.64754400  0.01112000  1
  H  782  1  0.91703500  0.55417600  0.98399000  1
  H  783  1  0.93123800  0.58050500  0.96386800  1
  H  785  1  0.95635100  0.59743200  0.94726700  1
  H  787  1  0.97406800  0.62608300  0.04299200  1
  H  797  1  0.47007200  0.29235700  0.51750700  1
  H  798  1  0.47030200  0.28812100  0.48105200  1
  H  801  1  0.41704700  0.38149100  0.50816900  1
  H  802  1  0.43122500  0.35514100  0.52830200  1
  H  804  1  0.45646800  0.33828200  0.54488600  1
  H  806  1  0.47405200  0.30954000  0.44916400  1
  H  816  1  0.22012800  0.24106800  0.92346200  1
  H  817  1  0.22032900  0.20462200  0.92775600  1
  H  820  1  0.16703600  0.23198900  0.83435100  1
  H  821  1  0.18118800  0.25205300  0.86072400  1
  H  823  1  0.20698600  0.26814600  0.87730000  1
  H  825  1  0.22408400  0.17283800  0.90633400  1
  H  835  1  0.72009800  0.69848600  0.57259700  1
  H  836  1  0.72032500  0.73494800  0.56830300  1
  H  839  1  0.66702300  0.70760400  0.66170500  1
  H  840  1  0.68122500  0.68753700  0.63538600  1
  H  842  1  0.70658700  0.67101200  0.61856700  1
  H  844  1  0.72406800  0.76676300  0.58971700  1
  H  854  1  0.39267800  0.64328200  0.51742600  1
  H  855  1  0.39239700  0.64754200  0.48096400  1
  H  858  1  0.44569400  0.55414800  0.50827300  1
  H  859  1  0.43155400  0.58046100  0.52836400  1
  H  861  1  0.40631000  0.59728400  0.54469800  1
  H  863  1  0.38862300  0.62617700  0.44913500  1
  H  873  1  0.89263500  0.29238500  0.97473900  1
  H  874  1  0.89237200  0.28811300  0.01120400  1
  H  877  1  0.94564700  0.38152700  0.98388100  1
  H  878  1  0.93147100  0.35522600  0.96380100  1
  H  880  1  0.90642700  0.33828500  0.94714100  1
  H  882  1  0.88860500  0.30949900  0.04301200  1
  H  892  1  0.14255800  0.24113800  0.57255100  1
  H  893  1  0.14239500  0.20469500  0.56830600  1
  H  896  1  0.19563800  0.23190600  0.66169000  1
  H  897  1  0.18141800  0.25202200  0.63533800  1
  H  899  1  0.15602500  0.26853100  0.61850500  1
  H  901  1  0.13862100  0.17287900  0.58974300  1
  H  911  1  0.64268600  0.69830800  0.92349300  1
  H  912  1  0.64241000  0.73477100  0.92774100  1
  H  915  1  0.69566200  0.70772400  0.83434900  1
  H  916  1  0.68149800  0.68756500  0.86069100  1
  H  918  1  0.65597700  0.67114700  0.87748100  1
  H  920  1  0.63862200  0.76665900  0.90633300  1
  H  930  1  0.64261600  0.69464400  0.07061300  1
  H  931  1  0.64239400  0.73111300  0.06637700  1
  H  934  1  0.69567700  0.70365400  0.15974900  1
  H  935  1  0.68145900  0.68361900  0.13342500  1
  H  937  1  0.65629900  0.66712000  0.11650900  1
  H  939  1  0.63843800  0.76275800  0.08800200  1
  H  949  1  0.14261700  0.24110100  0.42154000  1
  H  950  1  0.14238300  0.20465500  0.42582500  1
  H  953  1  0.19566200  0.23200500  0.33240800  1
  H  954  1  0.18147100  0.25206200  0.35874700  1
  H  956  1  0.15622200  0.26857600  0.37561600  1
  H  958  1  0.13835300  0.17301000  0.40428600  1
  H  968  1  0.72012000  0.69447300  0.42153200  1
  H  969  1  0.72033600  0.73090500  0.42576600  1
  H  972  1  0.66704600  0.70377100  0.33240400  1
  H  973  1  0.68118500  0.68363400  0.35877900  1
  H  975  1  0.70657500  0.66731200  0.37556200  1
  H  977  1  0.72435400  0.76259200  0.40413200  1
  H  987  1  0.22012000  0.24121200  0.07060700  1
  H  988  1  0.22033100  0.20479400  0.06635000  1
  H  991  1  0.16704000  0.23192800  0.15972800  1
  H  992  1  0.18122800  0.25204400  0.13336500  1
  H  994  1  0.20652200  0.26856400  0.11653800  1
  H  996  1  0.22450700  0.17321300  0.08786300  1
  H  1006  1  0.47000500  0.14525500  0.47649000  1
  H  1007  1  0.47030400  0.14952600  0.51291200  1
  H  1010  1  0.41700900  0.05612900  0.48591400  1
  H  1011  1  0.43118200  0.08249900  0.46577000  1
  H  1013  1  0.45687600  0.09920700  0.44941800  1
  H  1015  1  0.47472300  0.12794200  0.54442200  1
  H  1025  1  0.97013000  0.79429900  0.01941900  1
  H  1026  1  0.97033100  0.79003800  0.98300300  1
  H  1029  1  0.91706300  0.88345100  0.01015300  1
  H  1030  1  0.93128500  0.85708500  0.03026100  1
  H  1032  1  0.95671900  0.84025300  0.04674400  1
  H  1034  1  0.97457800  0.81175300  0.95146000  1
  H  1044  1  0.89257800  0.14523800  0.01935000  1
  H  1045  1  0.89236100  0.14955400  0.98292700  1
  H  1048  1  0.94565800  0.05611600  0.01029100  1
  H  1049  1  0.93147500  0.08247800  0.03033900  1
  H  1051  1  0.90580900  0.09911200  0.04663700  1
  H  1053  1  0.88797200  0.12797400  0.95153900  1
  H  1063  1  0.39264200  0.79436300  0.47662200  1
  H  1064  1  0.39235700  0.79003100  0.51304200  1
  H  1067  1  0.44566700  0.88349300  0.48584200  1
  H  1068  1  0.43154600  0.85715000  0.46574400  1
  H  1070  1  0.40603100  0.84045800  0.44946100  1
  H  1072  1  0.38810100  0.81161900  0.54456600  1
  H  1082  1  0.90134100  0.47692700  0.11168400  1
  H  1083  1  0.91710200  0.44386000  0.11448600  1
  H  1086  1  0.97068400  0.50526400  0.04002600  1
  H  1087  1  0.94267300  0.51239500  0.06197100  1
  H  1089  1  0.90309700  0.50283900  0.06846300  1
  H  1091  1  0.94644000  0.42302500  0.11182800  1
  H  1101  1  0.40145200  0.45880100  0.38026600  1
  H  1102  1  0.41724800  0.49197700  0.37749900  1
  H  1105  1  0.47083900  0.43044500  0.45209800  1
  H  1106  1  0.44290900  0.42343000  0.43045500  1
  H  1108  1  0.40533500  0.43068700  0.42423500  1
  H  1110  1  0.44660800  0.51267000  0.38026200  1
  H  1120  1  0.15140600  0.10405400  0.75716500  1
  H  1121  1  0.16720200  0.10127400  0.72402600  1
  H  1124  1  0.22084400  0.17577300  0.78532000  1
  H  1125  1  0.19281900  0.15400400  0.79239900  1
  H  1127  1  0.15474300  0.14744000  0.78428800  1
  H  1129  1  0.19653600  0.10401500  0.70327100  1
  H  1139  1  0.65140300  0.83538600  0.73882400  1
  H  1140  1  0.66732500  0.83827700  0.77170900  1
  H  1143  1  0.72058700  0.76376700  0.71056200  1
  H  1144  1  0.69204400  0.78531500  0.70356300  1
  H  1146  1  0.64919100  0.79513600  0.71152000  1
  H  1148  1  0.69643200  0.83547500  0.79267900  1
  H  1158  1  0.96125200  0.45878700  0.88227500  1
  H  1159  1  0.94546800  0.49195200  0.87948000  1
  H  1162  1  0.89182900  0.43046800  0.95406600  1
  H  1163  1  0.91983100  0.42341900  0.93230300  1
  H  1165  1  0.95781600  0.43149900  0.92564200  1
  H  1167  1  0.91603000  0.51269700  0.88227400  1
  H  1177  1  0.46142000  0.47715600  0.60951200  1
  H  1178  1  0.44547400  0.44413900  0.61264700  1
  H  1181  1  0.39186200  0.50527900  0.53802900  1
  H  1182  1  0.41997600  0.51245300  0.55976800  1
  H  1184  1  0.45907700  0.50622900  0.56631600  1
  H  1186  1  0.41623900  0.42305400  0.60979100  1
  H  1196  1  0.71133500  0.83142600  0.23680900  1
  H  1197  1  0.69539600  0.83438400  0.26972200  1
  H  1200  1  0.64203500  0.75985900  0.20862200  1
  H  1201  1  0.67049200  0.78143100  0.20157600  1
  H  1203  1  0.71212100  0.79006700  0.20896500  1
  H  1205  1  0.66629200  0.83157900  0.29071500  1
  H  1215  1  0.21129700  0.10405900  0.25520700  1
  H  1216  1  0.19552100  0.10127700  0.22207900  1
  H  1219  1  0.14185000  0.17577400  0.28336300  1
  H  1220  1  0.16987000  0.15401100  0.29044700  1
  H  1222  1  0.20790600  0.14743400  0.28238400  1
  H  1224  1  0.16621200  0.10399500  0.20135600  1
  H  1234  1  0.40143600  0.97877600  0.61377800  1
  H  1235  1  0.41722100  0.94562700  0.61656600  1
  H  1238  1  0.47075400  0.00716600  0.54200400  1
  H  1239  1  0.44270600  0.01418200  0.56380500  1
  H  1241  1  0.40415900  0.00550500  0.57051600  1
  H  1243  1  0.44686200  0.92480600  0.61387800  1
  H  1253  1  0.90144300  0.96080500  0.88222200  1
  H  1254  1  0.91723100  0.99397600  0.87944900  1
  H  1257  1  0.97080600  0.93241400  0.95405100  1
  H  1258  1  0.94278300  0.92540500  0.93227700  1
  H  1260  1  0.90472800  0.93374200  0.92546700  1
  H  1262  1  0.94687300  0.01471400  0.88213500  1
  H  1272  1  0.65135200  0.60218300  0.25519000  1
  H  1273  1  0.66719400  0.59935400  0.22203400  1
  H  1276  1  0.72080700  0.67381100  0.28334400  1
  H  1277  1  0.69283600  0.65195300  0.29048100  1
  H  1279  1  0.65438500  0.64545800  0.28160500  1
  H  1281  1  0.69690800  0.60206400  0.20116800  1
  H  1291  1  0.15135500  0.33343200  0.23695700  1
  H  1292  1  0.16718100  0.33629100  0.27009100  1
  H  1295  1  0.22077800  0.26184400  0.20881700  1
  H  1296  1  0.19283200  0.28372400  0.20166300  1
  H  1298  1  0.15421100  0.29009000  0.21046500  1
  H  1300  1  0.19689500  0.33360200  0.29098600  1
  H  1310  1  0.46095000  0.96130100  0.38338800  1
  H  1311  1  0.44500400  0.99438900  0.38110900  1
  H  1314  1  0.39211500  0.93222700  0.45589600  1
  H  1315  1  0.42056400  0.92567000  0.43449700  1
  H  1317  1  0.45659700  0.93276300  0.42510600  1
  H  1319  1  0.41553900  0.01479500  0.38409900  1
  H  1329  1  0.96128800  0.97881700  0.11179800  1
  H  1330  1  0.94546900  0.94563800  0.11462800  1
  H  1333  1  0.89186700  0.00714600  0.04004300  1
  H  1334  1  0.91986000  0.01420600  0.06185800  1
  H  1336  1  0.95806800  0.00571300  0.06839900  1
  H  1338  1  0.91575500  0.92479500  0.11195700  1
  H  1348  1  0.21122200  0.33367100  0.73899100  1
  H  1349  1  0.19539500  0.33641000  0.77214900  1
  H  1352  1  0.14186000  0.26187700  0.71074100  1
  H  1353  1  0.16991500  0.28359100  0.70371800  1
  H  1355  1  0.20775900  0.29042400  0.71159800  1
  H  1357  1  0.16576300  0.33363500  0.79292100  1
  H  1367  1  0.71123200  0.60593600  0.75704400  1
  H  1368  1  0.69542000  0.60320000  0.72389000  1
  H  1371  1  0.64187500  0.67770300  0.78529900  1
  H  1372  1  0.66989100  0.65592400  0.79235000  1
  H  1374  1  0.70779300  0.64913100  0.78400500  1
  H  1376  1  0.66580200  0.60581900  0.70308800  1
  H  1386  1  0.82912400  0.55005400  0.16463500  1
  H  1387  1  0.79180700  0.54729600  0.16693100  1
  H  1390  1  0.82016000  0.62250600  0.09101700  1
  H  1391  1  0.84057900  0.60091700  0.11221100  1
  H  1393  1  0.85667700  0.59109000  0.14261200  1
  H  1395  1  0.75905200  0.55047000  0.14815400  1
  H  1405  1  0.32913500  0.38561200  0.32752100  1
  H  1406  1  0.29181900  0.38837500  0.32522000  1
  H  1409  1  0.32015300  0.31318800  0.40116100  1
  H  1410  1  0.34057900  0.33479000  0.37997700  1
  H  1412  1  0.35658400  0.34449700  0.34956300  1
  H  1414  1  0.25904600  0.38519600  0.34396900  1
  H  1424  1  0.07917100  0.05128500  0.83034800  1
  H  1425  1  0.04187300  0.04898900  0.82756200  1
  H  1428  1  0.07015900  0.12480400  0.90261400  1
  H  1429  1  0.09059100  0.10367600  0.88104700  1
  H  1431  1  0.10656700  0.07323600  0.87143600  1
  H  1433  1  0.00922100  0.06790900  0.83052800  1
  H  1443  1  0.57915100  0.88828000  0.66573900  1
  H  1444  1  0.54184700  0.89057300  0.66849600  1
  H  1447  1  0.57019000  0.81480000  0.59343600  1
  H  1448  1  0.59059200  0.83593300  0.61500100  1
  H  1450  1  0.60672700  0.86619200  0.62476400  1
  H  1452  1  0.50918000  0.87172500  0.66549300  1
  H  1462  1  0.53336700  0.55010000  0.32764800  1
  H  1463  1  0.57067100  0.54735100  0.32528000  1
  H  1466  1  0.54246500  0.62245300  0.40105500  1
  H  1467  1  0.52202500  0.60091200  0.37992700  1
  H  1469  1  0.50559300  0.59079400  0.34988900  1
  H  1471  1  0.60316200  0.54999600  0.34440400  1
  H  1481  1  0.03335700  0.38557600  0.16450300  1
  H  1482  1  0.07065600  0.38832600  0.16687900  1
  H  1485  1  0.04248100  0.31324200  0.09107900  1
  H  1486  1  0.02203300  0.33475900  0.11222400  1
  H  1488  1  0.00559300  0.34487800  0.14226000  1
  H  1490  1  0.10314800  0.38567000  0.14775400  1
  H  1500  1  0.28333100  0.05130700  0.66584700  1
  H  1501  1  0.32061500  0.04890700  0.66860700  1
  H  1504  1  0.29248200  0.12487700  0.59337800  1
  H  1505  1  0.27204200  0.10367400  0.61492300  1
  H  1507  1  0.25556400  0.07365000  0.62513300  1
  H  1509  1  0.35301800  0.06816400  0.66603300  1
  H  1519  1  0.78334000  0.88827700  0.83022800  1
  H  1520  1  0.82062500  0.89067400  0.82747500  1
  H  1523  1  0.79247300  0.81471900  0.90270800  1
  H  1524  1  0.77203000  0.83590300  0.88113000  1
  H  1526  1  0.75561200  0.86594100  0.87096600  1
  H  1528  1  0.85303300  0.87145800  0.83004500  1
  H  1538  1  0.03353100  0.38560400  0.82949900  1
  H  1539  1  0.07085500  0.38837000  0.82718500  1
  H  1542  1  0.04254800  0.31315900  0.90310000  1
  H  1543  1  0.02211800  0.33473800  0.88195200  1
  H  1545  1  0.00598300  0.34453100  0.85164800  1
  H  1547  1  0.10361800  0.38521800  0.84600400  1
  H  1557  1  0.53397000  0.54994300  0.66239300  1
  H  1558  1  0.57134800  0.54757400  0.66497300  1
  H  1561  1  0.54289300  0.62250300  0.58899600  1
  H  1562  1  0.52249300  0.60090600  0.61008800  1
  H  1564  1  0.50629700  0.59115700  0.64027500  1
  H  1566  1  0.60519500  0.55282600  0.64821900  1
  H  1576  1  0.78343400  0.88430500  0.16381300  1
  H  1577  1  0.82065000  0.88694500  0.16656900  1
  H  1580  1  0.79300000  0.81092000  0.09154800  1
  H  1581  1  0.77240500  0.83198600  0.11295800  1
  H  1583  1  0.75613900  0.86215700  0.12271700  1
  H  1585  1  0.85370500  0.86875900  0.16328000  1
  H  1595  1  0.28409300  0.05142200  0.32832000  1
  H  1596  1  0.32154600  0.04930000  0.32583200  1
  H  1599  1  0.29242000  0.12480200  0.40077800  1
  H  1600  1  0.27217000  0.10371000  0.37911700  1
  H  1602  1  0.25628300  0.07326100  0.36938000  1
  H  1604  1  0.35520300  0.06648700  0.33094700  1
  H  1614  1  0.32950200  0.38559800  0.66244300  1
  H  1615  1  0.29228900  0.38835900  0.66518000  1
  H  1618  1  0.31974000  0.31327100  0.58917200  1
  H  1619  1  0.34036400  0.33466300  0.61019800  1
  H  1621  1  0.35708300  0.34482000  0.64001500  1
  H  1623  1  0.25946700  0.38554500  0.64667000  1
  H  1633  1  0.82887700  0.55004300  0.82975700  1
  H  1634  1  0.79143500  0.54754900  0.82753200  1
  H  1637  1  0.82028800  0.62252900  0.90305900  1
  H  1638  1  0.84058400  0.60092000  0.88194000  1
  H  1640  1  0.85698400  0.59073800  0.85198500  1
  H  1642  1  0.75799200  0.55217600  0.84506000  1
  H  1652  1  0.57888300  0.88412200  0.32815700  1
  H  1653  1  0.54153700  0.88674300  0.32578100  1
  H  1656  1  0.56987400  0.81076400  0.40075200  1
  H  1657  1  0.59029700  0.83186200  0.37919100  1
  H  1659  1  0.60677300  0.86185000  0.36899700  1
  H  1661  1  0.50789800  0.86968500  0.33061500  1
  H  1671  1  0.07934000  0.05131000  0.16388400  1
  H  1672  1  0.04204400  0.04892100  0.16663100  1
  H  1675  1  0.07023800  0.12485400  0.09139000  1
  H  1676  1  0.09068500  0.10369800  0.11293900  1
  H  1678  1  0.10711100  0.07369600  0.12315900  1
  H  1680  1  0.00956000  0.06809400  0.16395900  1
  H  1690  1  0.86040200  0.69568000  0.08561300  1
  H  1691  1  0.85852300  0.73199500  0.08906100  1
  H  1694  1  0.93659500  0.70491000  0.01518000  1
  H  1695  1  0.91491400  0.68509000  0.03559400  1
  H  1697  1  0.88700000  0.66811500  0.04502100  1
  H  1699  1  0.85986800  0.76419800  0.07270000  1
  H  1709  1  0.36017900  0.24012900  0.40643900  1
  H  1710  1  0.35800400  0.20348600  0.40341200  1
  H  1713  1  0.43684700  0.23122000  0.47659700  1
  H  1714  1  0.41499500  0.25093300  0.45622400  1
  H  1716  1  0.38683500  0.26773400  0.44709700  1
  H  1718  1  0.38132200  0.17200900  0.40484900  1
  H  1728  1  0.11057100  0.13034600  0.97495100  1
  H  1729  1  0.10838700  0.12664500  0.01116600  1
  H  1732  1  0.18606900  0.20173200  0.98493700  1
  H  1733  1  0.16504700  0.18070800  0.96495200  1
  H  1735  1  0.13723500  0.17105500  0.94789900  1
  H  1737  1  0.10904900  0.14343300  0.04299700  1
  H  1747  1  0.61053100  0.80932300  0.51998100  1
  H  1748  1  0.60867800  0.81248900  0.48361500  1
  H  1751  1  0.68567800  0.73740300  0.51133200  1
  H  1752  1  0.66482400  0.75887300  0.53108400  1
  H  1754  1  0.63703500  0.76876300  0.54790500  1
  H  1756  1  0.61047800  0.79693600  0.45145700  1
  H  1766  1  0.50222500  0.69590200  0.40642600  1
  H  1767  1  0.50409000  0.73229600  0.40331000  1
  H  1770  1  0.42597900  0.70443500  0.47692300  1
  H  1771  1  0.44768700  0.68475200  0.45644300  1
  H  1773  1  0.47576100  0.66795100  0.44705500  1
  H  1775  1  0.50261800  0.76431900  0.41954100  1
  H  1785  1  0.00216400  0.24090200  0.08560100  1
  H  1786  1  0.00438300  0.20465500  0.08926400  1
  H  1789  1  0.92590300  0.23094200  0.01520800  1
  H  1790  1  0.94751200  0.25091200  0.03554200  1
  H  1792  1  0.97550700  0.26800900  0.04487100  1
  H  1794  1  0.00392100  0.17283200  0.07196700  1
  H  1804  1  0.25223800  0.13031500  0.52020200  1
  H  1805  1  0.25406900  0.12686200  0.48392000  1
  H  1808  1  0.17691200  0.20188400  0.51092100  1
  H  1809  1  0.19794400  0.18070800  0.53078800  1
  H  1811  1  0.22558800  0.17081900  0.54780700  1
  H  1813  1  0.25260200  0.14284900  0.45187300  1
  H  1823  1  0.75245300  0.80935800  0.97571800  1
  H  1824  1  0.75464800  0.81240600  0.01234900  1
  H  1827  1  0.67686100  0.73779700  0.98470200  1
  H  1828  1  0.69791100  0.75911800  0.96493000  1
  H  1830  1  0.72577400  0.76878100  0.94808000  1
  H  1832  1  0.73164000  0.81105800  0.04401500  1
  H  1842  1  0.00227700  0.24089400  0.90851800  1
  H  1843  1  0.00427000  0.20469200  0.90482000  1
  H  1846  1  0.92592200  0.23088600  0.97888000  1
  H  1847  1  0.94761600  0.25089000  0.95856400  1
  H  1849  1  0.97565300  0.26798800  0.94927200  1
  H  1851  1  0.00357100  0.17292100  0.92174100  1
  H  1861  1  0.50239600  0.69564400  0.58359100  1
  H  1862  1  0.50417000  0.73186000  0.58743900  1
  H  1865  1  0.42626800  0.70531200  0.51317800  1
  H  1866  1  0.44794400  0.68538800  0.53349600  1
  H  1868  1  0.47555300  0.66812600  0.54307100  1
  H  1870  1  0.50291800  0.76418300  0.57114500  1
  H  1880  1  0.36043200  0.24090900  0.58356900  1
  H  1881  1  0.35830100  0.20474400  0.58756500  1
  H  1884  1  0.43659800  0.23059700  0.51313600  1
  H  1885  1  0.41502700  0.25064700  0.53343800  1
  H  1887  1  0.38732500  0.26799000  0.54290900  1
  H  1889  1  0.35867600  0.17280400  0.57005200  1
  H  1899  1  0.86033600  0.69578300  0.90852000  1
  H  1900  1  0.85860600  0.73206600  0.90499100  1
  H  1903  1  0.93658200  0.70480700  0.97893400  1
  H  1904  1  0.91486900  0.68501600  0.95856500  1
  H  1906  1  0.88710200  0.66790400  0.94902600  1
  H  1908  1  0.86013500  0.76410900  0.92090800  1
  H  1918  1  0.61046700  0.62829900  0.47419200  1
  H  1919  1  0.60866500  0.62512000  0.51056900  1
  H  1922  1  0.68567600  0.70018000  0.48271600  1
  H  1923  1  0.66476000  0.67873000  0.46301100  1
  H  1925  1  0.63693900  0.66896500  0.44620600  1
  H  1927  1  0.61013800  0.64137600  0.54256600  1
  H  1937  1  0.11050200  0.30726900  0.01909000  1
  H  1938  1  0.10835500  0.31099600  0.98285900  1
  H  1941  1  0.18605600  0.23591900  0.00920900  1
  H  1942  1  0.16497100  0.25691600  0.02915600  1
  H  1944  1  0.13717200  0.26648700  0.04624800  1
  H  1946  1  0.10882000  0.29367800  0.95105500  1
  H  1956  1  0.75254100  0.62829700  0.01830500  1
  H  1957  1  0.75457600  0.62520500  0.98166300  1
  H  1960  1  0.67683200  0.69977700  0.00946000  1
  H  1961  1  0.69796800  0.67851600  0.02919600  1
  H  1963  1  0.72583300  0.66894300  0.04606000  1
  H  1965  1  0.73118000  0.62659500  0.95025700  1
  H  1975  1  0.25231600  0.30729100  0.47394500  1
  H  1976  1  0.25414300  0.31079400  0.51023900  1
  H  1979  1  0.17693600  0.23576800  0.48315700  1
  H  1980  1  0.19801000  0.25693900  0.46332500  1
  H  1982  1  0.22566800  0.26669600  0.44629300  1
  H  1984  1  0.25283600  0.29436800  0.54239500  1
  H  1991  1  0.20094200  0.59552300  0.11816500  1
  H  1992  1  0.20069900  0.53002600  0.12141400  1
  H  1999  1  0.23895600  0.65163900  0.05481800  1
  H  2000  1  0.25243400  0.59328200  0.07805500  1
  H  2003  1  0.23811400  0.54719800  0.06219600  1
  H  2004  1  0.17770600  0.62945500  0.08769700  1
  H  2015  1  0.70101400  0.34005400  0.37388500  1
  H  2016  1  0.70057400  0.40539300  0.37066200  1
  H  2023  1  0.73894900  0.28406300  0.43730500  1
  H  2024  1  0.75244400  0.34241700  0.41406100  1
  H  2027  1  0.73774200  0.38858100  0.43000500  1
  H  2028  1  0.67768600  0.30624900  0.40445200  1
  H  2039  1  0.45094600  0.09759700  0.87588100  1
  H  2040  1  0.45068500  0.09437400  0.81037800  1
  H  2047  1  0.48902900  0.16100300  0.93169500  1
  H  2048  1  0.50244800  0.13775800  0.87345500  1
  H  2051  1  0.48778600  0.15382000  0.82731600  1
  H  2052  1  0.42769300  0.12818100  0.90966500  1
  H  2063  1  0.95115000  0.84174300  0.62038500  1
  H  2064  1  0.95081600  0.84519900  0.68563600  1
  H  2071  1  0.98893900  0.77855900  0.56430500  1
  H  2072  1  0.00245806  0.80178200  0.62258200  1
  H  2075  1  0.98747300  0.78558900  0.66933700  1
  H  2076  1  0.92769100  0.81141200  0.58641000  1
  H  2087  1  0.80003800  0.59495100  0.37436600  1
  H  2088  1  0.80167100  0.52963100  0.37224600  1
  H  2095  1  0.76258300  0.65156100  0.43726100  1
  H  2096  1  0.74891300  0.59320600  0.41424700  1
  H  2099  1  0.76214500  0.54706800  0.43017100  1
  H  2100  1  0.82371000  0.62928600  0.40445000  1
  H  2111  1  0.30003200  0.34073200  0.11779100  1
  H  2112  1  0.30166200  0.40605600  0.11991200  1
  H  2119  1  0.26250800  0.28418600  0.05491100  1
  H  2120  1  0.24890000  0.34251100  0.07792000  1
  H  2123  1  0.26215100  0.38862000  0.06198400  1
  H  2124  1  0.32369900  0.30639900  0.08770700  1
  H  2135  1  0.54998600  0.09809100  0.62098900  1
  H  2136  1  0.55171800  0.09590200  0.68631600  1
  H  2143  1  0.51253500  0.16100900  0.56425900  1
  H  2144  1  0.49892800  0.13795800  0.62269500  1
  H  2147  1  0.51215000  0.15383200  0.66875300  1
  H  2148  1  0.57368900  0.12815700  0.58658700  1
  H  2159  1  0.04999910  0.84149600  0.87506300  1
  H  2160  1  0.05172910  0.84368000  0.80973100  1
  H  2167  1  0.01255810  0.77859500  0.93178300  1
  H  2168  1  0.99891000  0.80161600  0.87335300  1
  H  2171  1  0.01215710  0.78575400  0.82730000  1
  H  2172  1  0.07369410  0.81143400  0.90943900  1
  H  2183  1  0.30029800  0.34000000  0.87607500  1
  H  2184  1  0.30070100  0.40543400  0.87285600  1
  H  2191  1  0.26261000  0.28273000  0.93777600  1
  H  2192  1  0.24889200  0.34308400  0.91875000  1
  H  2195  1  0.26369000  0.38834300  0.93255600  1
  H  2196  1  0.32359500  0.30642500  0.90632300  1
  H  2207  1  0.80025600  0.59560900  0.61582000  1
  H  2208  1  0.80082300  0.53049000  0.61963800  1
  H  2215  1  0.76268500  0.65298900  0.55429600  1
  H  2216  1  0.74890600  0.59259900  0.57327100  1
  H  2219  1  0.76383300  0.54670700  0.55978300  1
  H  2220  1  0.82362900  0.62923500  0.58580200  1
  H  2231  1  0.05040710  0.83784500  0.11847400  1
  H  2232  1  0.05087110  0.84145800  0.18372000  1
  H  2239  1  0.01082510  0.77775500  0.06242000  1
  H  2240  1  0.99890300  0.79807900  0.12133400  1
  H  2243  1  0.01398710  0.78183500  0.16756900  1
  H  2244  1  0.07325310  0.80802300  0.08440400  1
  H  2255  1  0.55064900  0.09770800  0.37396100  1
  H  2256  1  0.55081000  0.09433600  0.30846000  1
  H  2263  1  0.51095900  0.15865900  0.43041400  1
  H  2264  1  0.49885000  0.13785600  0.37127100  1
  H  2267  1  0.51372800  0.15380600  0.32529500  1
  H  2268  1  0.57329300  0.12841800  0.40798900  1
  H  2279  1  0.70165200  0.34068100  0.61559600  1
  H  2280  1  0.69997200  0.40592000  0.61764500  1
  H  2287  1  0.73888200  0.28281600  0.55445100  1
  H  2288  1  0.75272200  0.34319200  0.57309500  1
  H  2291  1  0.73933900  0.38848100  0.55943100  1
  H  2292  1  0.67795800  0.30661600  0.58580500  1
  H  2303  1  0.20157400  0.59498900  0.87654100  1
  H  2304  1  0.19994900  0.52976400  0.87450900  1
  H  2311  1  0.23879000  0.65290500  0.93771500  1
  H  2312  1  0.25271100  0.59252100  0.91901800  1
  H  2315  1  0.23933900  0.54721000  0.93271700  1
  H  2316  1  0.17798200  0.62908900  0.90630200  1
  H  2327  1  0.95140800  0.83748800  0.37312100  1
  H  2328  1  0.94973900  0.83981400  0.30778600  1
  H  2335  1  0.99076000  0.77789300  0.43036700  1
  H  2336  1  0.00277106  0.79760800  0.37105700  1
  H  2339  1  0.98936100  0.78187400  0.32527900  1
  H  2340  1  0.92807800  0.80700600  0.40750000  1
  H  2351  1  0.45167500  0.09811100  0.11916900  1
  H  2352  1  0.44966400  0.09584600  0.18449900  1
  H  2359  1  0.49076600  0.15793100  0.06210700  1
  H  2360  1  0.50325200  0.13786700  0.12152800  1
  H  2363  1  0.48941000  0.15382900  0.16704900  1
  H  2364  1  0.42855000  0.12814800  0.08511800  1
  H  2375  1  0.70614600  0.09724100  0.62172300  1
  H  2376  1  0.69961500  0.03256600  0.62312200  1
  H  2383  1  0.74100900  0.15405000  0.55895800  1
  H  2384  1  0.75345000  0.09462800  0.57997200  1
  H  2387  1  0.73793200  0.04871800  0.56376400  1
  H  2388  1  0.67910300  0.13137500  0.58961500  1
  H  2399  1  0.20611000  0.84219100  0.87439000  1
  H  2400  1  0.19966400  0.90688400  0.87294300  1
  H  2407  1  0.24095800  0.78516100  0.93694300  1
  H  2408  1  0.25298400  0.84453800  0.91628800  1
  H  2411  1  0.23765700  0.89075000  0.93244400  1
  H  2412  1  0.17854400  0.80778200  0.90705700  1
  H  2423  1  0.95618600  0.59436800  0.37376000  1
  H  2424  1  0.94989100  0.59315100  0.30911300  1
  H  2431  1  0.98911200  0.65769400  0.43140500  1
  H  2432  1  0.00291006  0.63887400  0.37093300  1
  H  2435  1  0.98796400  0.65267800  0.32536300  1
  H  2436  1  0.92818300  0.62656200  0.40760700  1
  H  2447  1  0.45617400  0.34129700  0.11840600  1
  H  2448  1  0.44992000  0.34252300  0.18302800  1
  H  2455  1  0.48920700  0.27803900  0.06080400  1
  H  2456  1  0.50292600  0.29685600  0.12126300  1
  H  2459  1  0.48798400  0.28302900  0.16682600  1
  H  2460  1  0.42820100  0.30911200  0.08455600  1
  H  2471  1  0.29516400  0.09656600  0.87491900  1
  H  2472  1  0.30252300  0.03194500  0.87445000  1
  H  2479  1  0.26040800  0.15398200  0.93621300  1
  H  2480  1  0.24789400  0.09446100  0.91624600  1
  H  2483  1  0.26211500  0.04851800  0.93246500  1
  H  2484  1  0.32260700  0.13082100  0.90664000  1
  H  2495  1  0.79521100  0.84282100  0.62110300  1
  H  2496  1  0.80244000  0.90746300  0.62153000  1
  H  2503  1  0.76082300  0.78528400  0.55816200  1
  H  2504  1  0.74835200  0.84446900  0.57963200  1
  H  2507  1  0.76216300  0.89082600  0.56360000  1
  H  2508  1  0.82264800  0.80760300  0.58913000  1
  H  2519  1  0.04513010  0.59501200  0.11918200  1
  H  2520  1  0.05231510  0.59456800  0.18373500  1
  H  2527  1  0.01237910  0.65763000  0.06074800  1
  H  2528  1  0.99844500  0.63896000  0.12134200  1
  H  2531  1  0.01218710  0.65285600  0.16687900  1
  H  2532  1  0.07319110  0.62653600  0.08475300  1
  H  2543  1  0.54513300  0.34065900  0.37298100  1
  H  2544  1  0.55231200  0.34109800  0.30842600  1
  H  2551  1  0.51236100  0.27796400  0.43142100  1
  H  2552  1  0.49847300  0.29666400  0.37083400  1
  H  2555  1  0.51218800  0.28281600  0.32528200  1
  H  2556  1  0.57318400  0.30912600  0.40744200  1
  H  2567  1  0.79631800  0.84193900  0.37708800  1
  H  2568  1  0.80195200  0.90644000  0.37476600  1
  H  2575  1  0.76066500  0.78374600  0.43634900  1
  H  2576  1  0.74855200  0.84535400  0.42103700  1
  H  2579  1  0.76397200  0.89046200  0.43487000  1
  H  2580  1  0.82339400  0.80856400  0.40953200  1
  H  2591  1  0.29522100  0.09729900  0.11944300  1
  H  2592  1  0.30172900  0.03269600  0.12096500  1
  H  2599  1  0.26054400  0.15560800  0.05946300  1
  H  2600  1  0.24792900  0.09387100  0.07505600  1
  H  2603  1  0.26358800  0.04879300  0.06124700  1
  H  2604  1  0.32242100  0.13077900  0.08755900  1
  H  2615  1  0.54600800  0.34056100  0.62000900  1
  H  2616  1  0.55178300  0.34303700  0.68447100  1
  H  2623  1  0.51060100  0.28058800  0.56190100  1
  H  2624  1  0.49838100  0.29675100  0.62345900  1
  H  2627  1  0.51388300  0.28304100  0.66903300  1
  H  2628  1  0.57264100  0.30865100  0.58627600  1
  H  2639  1  0.04573510  0.59813900  0.87561200  1
  H  2640  1  0.05181010  0.59668900  0.81097700  1
  H  2647  1  0.01104810  0.65807400  0.93346400  1
  H  2648  1  0.99864600  0.64264300  0.87225300  1
  H  2651  1  0.01381910  0.65642500  0.82712700  1
  H  2652  1  0.07326610  0.63003800  0.90915400  1
  H  2663  1  0.20559100  0.84250200  0.11818300  1
  H  2664  1  0.19913400  0.90700900  0.11973200  1
  H  2671  1  0.24085600  0.78369000  0.05887000  1
  H  2672  1  0.25325200  0.84532100  0.07476700  1
  H  2675  1  0.23925300  0.89084200  0.06115800  1
  H  2676  1  0.17896600  0.80821800  0.08689700  1
  H  2687  1  0.70590800  0.09664400  0.37698500  1
  H  2688  1  0.69904500  0.03207600  0.37643600  1
  H  2695  1  0.74050400  0.15518100  0.43633100  1
  H  2696  1  0.75297200  0.09388500  0.42116200  1
  H  2699  1  0.73922200  0.04876800  0.43475000  1
  H  2700  1  0.67836000  0.13075900  0.40831100  1
  H  2711  1  0.45646300  0.34060600  0.87480400  1
  H  2712  1  0.44910200  0.34117600  0.81026400  1
  H  2719  1  0.49091800  0.28126300  0.93382000  1
  H  2720  1  0.50370700  0.29653900  0.87201800  1
  H  2723  1  0.48938500  0.28282700  0.82696500  1
  H  2724  1  0.42919000  0.30933000  0.90884700  1
  H  2735  1  0.95524700  0.59948900  0.62083700  1
  H  2736  1  0.94893600  0.59769500  0.68534300  1
  H  2743  1  0.99081100  0.65803200  0.56205000  1
  H  2744  1  0.00303106  0.64300400  0.62376800  1
  H  2747  1  0.98908800  0.65635500  0.66909000  1
  H  2748  1  0.92822500  0.63127800  0.58698700  1
  H  2762  1  0.28946900  0.64331700  0.97466500  1
  H  2763  1  0.28970400  0.64754400  0.01112000  1
  H  2766  1  0.23643600  0.55417600  0.98399000  1
  H  2767  1  0.25063900  0.58050500  0.96386800  1
  H  2769  1  0.27575200  0.59743200  0.94726700  1
  H  2771  1  0.29346900  0.62608300  0.04299200  1
  H  2781  1  0.78947300  0.29235700  0.51750700  1
  H  2782  1  0.78970300  0.28812100  0.48105200  1
  H  2785  1  0.73644800  0.38149100  0.50816900  1
  H  2786  1  0.75062600  0.35514100  0.52830200  1
  H  2788  1  0.77586900  0.33828200  0.54488600  1
  H  2790  1  0.79345300  0.30954000  0.44916400  1
  H  2800  1  0.53952900  0.24106800  0.92346200  1
  H  2801  1  0.53973000  0.20462200  0.92775600  1
  H  2804  1  0.48643700  0.23198900  0.83435100  1
  H  2805  1  0.50058900  0.25205300  0.86072400  1
  H  2807  1  0.52638700  0.26814600  0.87730000  1
  H  2809  1  0.54348500  0.17283800  0.90633400  1
  H  2819  1  0.03949910  0.69848600  0.57259700  1
  H  2820  1  0.03972610  0.73494800  0.56830300  1
  H  2823  1  0.98642400  0.70760400  0.66170500  1
  H  2824  1  0.00062606  0.68753700  0.63538600  1
  H  2826  1  0.02598810  0.67101200  0.61856700  1
  H  2828  1  0.04346910  0.76676300  0.58971700  1
  H  2838  1  0.71207900  0.64328200  0.51742600  1
  H  2839  1  0.71179800  0.64754200  0.48096400  1
  H  2842  1  0.76509500  0.55414800  0.50827300  1
  H  2843  1  0.75095500  0.58046100  0.52836400  1
  H  2845  1  0.72571100  0.59728400  0.54469800  1
  H  2847  1  0.70802400  0.62617700  0.44913500  1
  H  2857  1  0.21203600  0.29238500  0.97473900  1
  H  2858  1  0.21177300  0.28811300  0.01120400  1
  H  2861  1  0.26504800  0.38152700  0.98388100  1
  H  2862  1  0.25087200  0.35522600  0.96380100  1
  H  2864  1  0.22582800  0.33828500  0.94714100  1
  H  2866  1  0.20800600  0.30949900  0.04301200  1
  H  2876  1  0.46195900  0.24113800  0.57255100  1
  H  2877  1  0.46179600  0.20469500  0.56830600  1
  H  2880  1  0.51503900  0.23190600  0.66169000  1
  H  2881  1  0.50081900  0.25202200  0.63533800  1
  H  2883  1  0.47542600  0.26853100  0.61850500  1
  H  2885  1  0.45802200  0.17287900  0.58974300  1
  H  2895  1  0.96208700  0.69830800  0.92349300  1
  H  2896  1  0.96181100  0.73477100  0.92774100  1
  H  2899  1  0.01506310  0.70772400  0.83434900  1
  H  2900  1  0.00089906  0.68756500  0.86069100  1
  H  2902  1  0.97537800  0.67114700  0.87748100  1
  H  2904  1  0.95802300  0.76665900  0.90633300  1
  H  2914  1  0.96201700  0.69464400  0.07061300  1
  H  2915  1  0.96179500  0.73111300  0.06637700  1
  H  2918  1  0.01507810  0.70365400  0.15974900  1
  H  2919  1  0.00086006  0.68361900  0.13342500  1
  H  2921  1  0.97570000  0.66712000  0.11650900  1
  H  2923  1  0.95783900  0.76275800  0.08800200  1
  H  2933  1  0.46201800  0.24110100  0.42154000  1
  H  2934  1  0.46178400  0.20465500  0.42582500  1
  H  2937  1  0.51506300  0.23200500  0.33240800  1
  H  2938  1  0.50087200  0.25206200  0.35874700  1
  H  2940  1  0.47562300  0.26857600  0.37561600  1
  H  2942  1  0.45775400  0.17301000  0.40428600  1
  H  2952  1  0.03952110  0.69447300  0.42153200  1
  H  2953  1  0.03973710  0.73090500  0.42576600  1
  H  2956  1  0.98644700  0.70377100  0.33240400  1
  H  2957  1  0.00058606  0.68363400  0.35877900  1
  H  2959  1  0.02597610  0.66731200  0.37556200  1
  H  2961  1  0.04375510  0.76259200  0.40413200  1
  H  2971  1  0.53952100  0.24121200  0.07060700  1
  H  2972  1  0.53973200  0.20479400  0.06635000  1
  H  2975  1  0.48644100  0.23192800  0.15972800  1
  H  2976  1  0.50062900  0.25204400  0.13336500  1
  H  2978  1  0.52592300  0.26856400  0.11653800  1
  H  2980  1  0.54390800  0.17321300  0.08786300  1
  H  2990  1  0.78940600  0.14525500  0.47649000  1
  H  2991  1  0.78970500  0.14952600  0.51291200  1
  H  2994  1  0.73641000  0.05612900  0.48591400  1
  H  2995  1  0.75058300  0.08249900  0.46577000  1
  H  2997  1  0.77627700  0.09920700  0.44941800  1
  H  2999  1  0.79412400  0.12794200  0.54442200  1
  H  3009  1  0.28953100  0.79429900  0.01941900  1
  H  3010  1  0.28973200  0.79003800  0.98300300  1
  H  3013  1  0.23646400  0.88345100  0.01015300  1
  H  3014  1  0.25068600  0.85708500  0.03026100  1
  H  3016  1  0.27612000  0.84025300  0.04674400  1
  H  3018  1  0.29397900  0.81175300  0.95146000  1
  H  3028  1  0.21197900  0.14523800  0.01935000  1
  H  3029  1  0.21176200  0.14955400  0.98292700  1
  H  3032  1  0.26505900  0.05611600  0.01029100  1
  H  3033  1  0.25087600  0.08247800  0.03033900  1
  H  3035  1  0.22521000  0.09911200  0.04663700  1
  H  3037  1  0.20737300  0.12797400  0.95153900  1
  H  3047  1  0.71204300  0.79436300  0.47662200  1
  H  3048  1  0.71175800  0.79003100  0.51304200  1
  H  3051  1  0.76506800  0.88349300  0.48584200  1
  H  3052  1  0.75094700  0.85715000  0.46574400  1
  H  3054  1  0.72543200  0.84045800  0.44946100  1
  H  3056  1  0.70750200  0.81161900  0.54456600  1
  H  3066  1  0.22074200  0.47692700  0.11168400  1
  H  3067  1  0.23650300  0.44386000  0.11448600  1
  H  3070  1  0.29008500  0.50526400  0.04002600  1
  H  3071  1  0.26207400  0.51239500  0.06197100  1
  H  3073  1  0.22249800  0.50283900  0.06846300  1
  H  3075  1  0.26584100  0.42302500  0.11182800  1
  H  3085  1  0.72085300  0.45880100  0.38026600  1
  H  3086  1  0.73664900  0.49197700  0.37749900  1
  H  3089  1  0.79024000  0.43044500  0.45209800  1
  H  3090  1  0.76231000  0.42343000  0.43045500  1
  H  3092  1  0.72473600  0.43068700  0.42423500  1
  H  3094  1  0.76600900  0.51267000  0.38026200  1
  H  3104  1  0.47080700  0.10405400  0.75716500  1
  H  3105  1  0.48660300  0.10127400  0.72402600  1
  H  3108  1  0.54024500  0.17577300  0.78532000  1
  H  3109  1  0.51222000  0.15400400  0.79239900  1
  H  3111  1  0.47414400  0.14744000  0.78428800  1
  H  3113  1  0.51593700  0.10401500  0.70327100  1
  H  3123  1  0.97080400  0.83538600  0.73882400  1
  H  3124  1  0.98672600  0.83827700  0.77170900  1
  H  3127  1  0.03998810  0.76376700  0.71056200  1
  H  3128  1  0.01144510  0.78531500  0.70356300  1
  H  3130  1  0.96859200  0.79513600  0.71152000  1
  H  3132  1  0.01583310  0.83547500  0.79267900  1
  H  3142  1  0.28065300  0.45878700  0.88227500  1
  H  3143  1  0.26486900  0.49195200  0.87948000  1
  H  3146  1  0.21123000  0.43046800  0.95406600  1
  H  3147  1  0.23923200  0.42341900  0.93230300  1
  H  3149  1  0.27721700  0.43149900  0.92564200  1
  H  3151  1  0.23543100  0.51269700  0.88227400  1
  H  3161  1  0.78082100  0.47715600  0.60951200  1
  H  3162  1  0.76487500  0.44413900  0.61264700  1
  H  3165  1  0.71126300  0.50527900  0.53802900  1
  H  3166  1  0.73937700  0.51245300  0.55976800  1
  H  3168  1  0.77847800  0.50622900  0.56631600  1
  H  3170  1  0.73564000  0.42305400  0.60979100  1
  H  3180  1  0.03073610  0.83142600  0.23680900  1
  H  3181  1  0.01479710  0.83438400  0.26972200  1
  H  3184  1  0.96143600  0.75985900  0.20862200  1
  H  3185  1  0.98989300  0.78143100  0.20157600  1
  H  3187  1  0.03152210  0.79006700  0.20896500  1
  H  3189  1  0.98569300  0.83157900  0.29071500  1
  H  3199  1  0.53069800  0.10405900  0.25520700  1
  H  3200  1  0.51492200  0.10127700  0.22207900  1
  H  3203  1  0.46125100  0.17577400  0.28336300  1
  H  3204  1  0.48927100  0.15401100  0.29044700  1
  H  3206  1  0.52730700  0.14743400  0.28238400  1
  H  3208  1  0.48561300  0.10399500  0.20135600  1
  H  3218  1  0.72083700  0.97877600  0.61377800  1
  H  3219  1  0.73662200  0.94562700  0.61656600  1
  H  3222  1  0.79015500  0.00716600  0.54200400  1
  H  3223  1  0.76210700  0.01418200  0.56380500  1
  H  3225  1  0.72356000  0.00550500  0.57051600  1
  H  3227  1  0.76626300  0.92480600  0.61387800  1
  H  3237  1  0.22084400  0.96080500  0.88222200  1
  H  3238  1  0.23663200  0.99397600  0.87944900  1
  H  3241  1  0.29020700  0.93241400  0.95405100  1
  H  3242  1  0.26218400  0.92540500  0.93227700  1
  H  3244  1  0.22412900  0.93374200  0.92546700  1
  H  3246  1  0.26627400  0.01471400  0.88213500  1
  H  3256  1  0.97075300  0.60218300  0.25519000  1
  H  3257  1  0.98659500  0.59935400  0.22203400  1
  H  3260  1  0.04020810  0.67381100  0.28334400  1
  H  3261  1  0.01223710  0.65195300  0.29048100  1
  H  3263  1  0.97378600  0.64545800  0.28160500  1
  H  3265  1  0.01630910  0.60206400  0.20116800  1
  H  3275  1  0.47075600  0.33343200  0.23695700  1
  H  3276  1  0.48658200  0.33629100  0.27009100  1
  H  3279  1  0.54017900  0.26184400  0.20881700  1
  H  3280  1  0.51223300  0.28372400  0.20166300  1
  H  3282  1  0.47361200  0.29009000  0.21046500  1
  H  3284  1  0.51629600  0.33360200  0.29098600  1
  H  3294  1  0.78035100  0.96130100  0.38338800  1
  H  3295  1  0.76440500  0.99438900  0.38110900  1
  H  3298  1  0.71151600  0.93222700  0.45589600  1
  H  3299  1  0.73996500  0.92567000  0.43449700  1
  H  3301  1  0.77599800  0.93276300  0.42510600  1
  H  3303  1  0.73494000  0.01479500  0.38409900  1
  H  3313  1  0.28068900  0.97881700  0.11179800  1
  H  3314  1  0.26487000  0.94563800  0.11462800  1
  H  3317  1  0.21126800  0.00714600  0.04004300  1
  H  3318  1  0.23926100  0.01420600  0.06185800  1
  H  3320  1  0.27746900  0.00571300  0.06839900  1
  H  3322  1  0.23515600  0.92479500  0.11195700  1
  H  3332  1  0.53062300  0.33367100  0.73899100  1
  H  3333  1  0.51479600  0.33641000  0.77214900  1
  H  3336  1  0.46126100  0.26187700  0.71074100  1
  H  3337  1  0.48931600  0.28359100  0.70371800  1
  H  3339  1  0.52716000  0.29042400  0.71159800  1
  H  3341  1  0.48516400  0.33363500  0.79292100  1
  H  3351  1  0.03063310  0.60593600  0.75704400  1
  H  3352  1  0.01482110  0.60320000  0.72389000  1
  H  3355  1  0.96127600  0.67770300  0.78529900  1
  H  3356  1  0.98929200  0.65592400  0.79235000  1
  H  3358  1  0.02719410  0.64913100  0.78400500  1
  H  3360  1  0.98520300  0.60581900  0.70308800  1
  H  3370  1  0.14852500  0.55005400  0.16463500  1
  H  3371  1  0.11120800  0.54729600  0.16693100  1
  H  3374  1  0.13956100  0.62250600  0.09101700  1
  H  3375  1  0.15998000  0.60091700  0.11221100  1
  H  3377  1  0.17607800  0.59109000  0.14261200  1
  H  3379  1  0.07845310  0.55047000  0.14815400  1
  H  3389  1  0.64853600  0.38561200  0.32752100  1
  H  3390  1  0.61122000  0.38837500  0.32522000  1
  H  3393  1  0.63955400  0.31318800  0.40116100  1
  H  3394  1  0.65998000  0.33479000  0.37997700  1
  H  3396  1  0.67598500  0.34449700  0.34956300  1
  H  3398  1  0.57844700  0.38519600  0.34396900  1
  H  3408  1  0.39857200  0.05128500  0.83034800  1
  H  3409  1  0.36127400  0.04898900  0.82756200  1
  H  3412  1  0.38956000  0.12480400  0.90261400  1
  H  3413  1  0.40999200  0.10367600  0.88104700  1
  H  3415  1  0.42596800  0.07323600  0.87143600  1
  H  3417  1  0.32862200  0.06790900  0.83052800  1
  H  3427  1  0.89855200  0.88828000  0.66573900  1
  H  3428  1  0.86124800  0.89057300  0.66849600  1
  H  3431  1  0.88959100  0.81480000  0.59343600  1
  H  3432  1  0.90999300  0.83593300  0.61500100  1
  H  3434  1  0.92612800  0.86619200  0.62476400  1
  H  3436  1  0.82858100  0.87172500  0.66549300  1
  H  3446  1  0.85276800  0.55010000  0.32764800  1
  H  3447  1  0.89007200  0.54735100  0.32528000  1
  H  3450  1  0.86186600  0.62245300  0.40105500  1
  H  3451  1  0.84142600  0.60091200  0.37992700  1
  H  3453  1  0.82499400  0.59079400  0.34988900  1
  H  3455  1  0.92256300  0.54999600  0.34440400  1
  H  3465  1  0.35275800  0.38557600  0.16450300  1
  H  3466  1  0.39005700  0.38832600  0.16687900  1
  H  3469  1  0.36188200  0.31324200  0.09107900  1
  H  3470  1  0.34143400  0.33475900  0.11222400  1
  H  3472  1  0.32499400  0.34487800  0.14226000  1
  H  3474  1  0.42254900  0.38567000  0.14775400  1
  H  3484  1  0.60273200  0.05130700  0.66584700  1
  H  3485  1  0.64001600  0.04890700  0.66860700  1
  H  3488  1  0.61188300  0.12487700  0.59337800  1
  H  3489  1  0.59144300  0.10367400  0.61492300  1
  H  3491  1  0.57496500  0.07365000  0.62513300  1
  H  3493  1  0.67241900  0.06816400  0.66603300  1
  H  3503  1  0.10274100  0.88827700  0.83022800  1
  H  3504  1  0.14002600  0.89067400  0.82747500  1
  H  3507  1  0.11187400  0.81471900  0.90270800  1
  H  3508  1  0.09143110  0.83590300  0.88113000  1
  H  3510  1  0.07501310  0.86594100  0.87096600  1
  H  3512  1  0.17243400  0.87145800  0.83004500  1
  H  3522  1  0.35293200  0.38560400  0.82949900  1
  H  3523  1  0.39025600  0.38837000  0.82718500  1
  H  3526  1  0.36194900  0.31315900  0.90310000  1
  H  3527  1  0.34151900  0.33473800  0.88195200  1
  H  3529  1  0.32538400  0.34453100  0.85164800  1
  H  3531  1  0.42301900  0.38521800  0.84600400  1
  H  3541  1  0.85337100  0.54994300  0.66239300  1
  H  3542  1  0.89074900  0.54757400  0.66497300  1
  H  3545  1  0.86229400  0.62250300  0.58899600  1
  H  3546  1  0.84189400  0.60090600  0.61008800  1
  H  3548  1  0.82569800  0.59115700  0.64027500  1
  H  3550  1  0.92459600  0.55282600  0.64821900  1
  H  3560  1  0.10283500  0.88430500  0.16381300  1
  H  3561  1  0.14005100  0.88694500  0.16656900  1
  H  3564  1  0.11240100  0.81092000  0.09154800  1
  H  3565  1  0.09180610  0.83198600  0.11295800  1
  H  3567  1  0.07554010  0.86215700  0.12271700  1
  H  3569  1  0.17310600  0.86875900  0.16328000  1
  H  3579  1  0.60349400  0.05142200  0.32832000  1
  H  3580  1  0.64094700  0.04930000  0.32583200  1
  H  3583  1  0.61182100  0.12480200  0.40077800  1
  H  3584  1  0.59157100  0.10371000  0.37911700  1
  H  3586  1  0.57568400  0.07326100  0.36938000  1
  H  3588  1  0.67460400  0.06648700  0.33094700  1
  H  3598  1  0.64890300  0.38559800  0.66244300  1
  H  3599  1  0.61169000  0.38835900  0.66518000  1
  H  3602  1  0.63914100  0.31327100  0.58917200  1
  H  3603  1  0.65976500  0.33466300  0.61019800  1
  H  3605  1  0.67648400  0.34482000  0.64001500  1
  H  3607  1  0.57886800  0.38554500  0.64667000  1
  H  3617  1  0.14827800  0.55004300  0.82975700  1
  H  3618  1  0.11083600  0.54754900  0.82753200  1
  H  3621  1  0.13968900  0.62252900  0.90305900  1
  H  3622  1  0.15998500  0.60092000  0.88194000  1
  H  3624  1  0.17638500  0.59073800  0.85198500  1
  H  3626  1  0.07739310  0.55217600  0.84506000  1
  H  3636  1  0.89828400  0.88412200  0.32815700  1
  H  3637  1  0.86093800  0.88674300  0.32578100  1
  H  3640  1  0.88927500  0.81076400  0.40075200  1
  H  3641  1  0.90969800  0.83186200  0.37919100  1
  H  3643  1  0.92617400  0.86185000  0.36899700  1
  H  3645  1  0.82729900  0.86968500  0.33061500  1
  H  3655  1  0.39874100  0.05131000  0.16388400  1
  H  3656  1  0.36144500  0.04892100  0.16663100  1
  H  3659  1  0.38963900  0.12485400  0.09139000  1
  H  3660  1  0.41008600  0.10369800  0.11293900  1
  H  3662  1  0.42651200  0.07369600  0.12315900  1
  H  3664  1  0.32896100  0.06809400  0.16395900  1
  H  3674  1  0.17980300  0.69568000  0.08561300  1
  H  3675  1  0.17792400  0.73199500  0.08906100  1
  H  3678  1  0.25599600  0.70491000  0.01518000  1
  H  3679  1  0.23431500  0.68509000  0.03559400  1
  H  3681  1  0.20640100  0.66811500  0.04502100  1
  H  3683  1  0.17926900  0.76419800  0.07270000  1
  H  3693  1  0.67958000  0.24012900  0.40643900  1
  H  3694  1  0.67740500  0.20348600  0.40341200  1
  H  3697  1  0.75624800  0.23122000  0.47659700  1
  H  3698  1  0.73439600  0.25093300  0.45622400  1
  H  3700  1  0.70623600  0.26773400  0.44709700  1
  H  3702  1  0.70072300  0.17200900  0.40484900  1
  H  3712  1  0.42997200  0.13034600  0.97495100  1
  H  3713  1  0.42778800  0.12664500  0.01116600  1
  H  3716  1  0.50547000  0.20173200  0.98493700  1
  H  3717  1  0.48444800  0.18070800  0.96495200  1
  H  3719  1  0.45663600  0.17105500  0.94789900  1
  H  3721  1  0.42845000  0.14343300  0.04299700  1
  H  3731  1  0.92993200  0.80932300  0.51998100  1
  H  3732  1  0.92807900  0.81248900  0.48361500  1
  H  3735  1  0.00507906  0.73740300  0.51133200  1
  H  3736  1  0.98422500  0.75887300  0.53108400  1
  H  3738  1  0.95643600  0.76876300  0.54790500  1
  H  3740  1  0.92987900  0.79693600  0.45145700  1
  H  3750  1  0.82162600  0.69590200  0.40642600  1
  H  3751  1  0.82349100  0.73229600  0.40331000  1
  H  3754  1  0.74538000  0.70443500  0.47692300  1
  H  3755  1  0.76708800  0.68475200  0.45644300  1
  H  3757  1  0.79516200  0.66795100  0.44705500  1
  H  3759  1  0.82201900  0.76431900  0.41954100  1
  H  3769  1  0.32156500  0.24090200  0.08560100  1
  H  3770  1  0.32378400  0.20465500  0.08926400  1
  H  3773  1  0.24530400  0.23094200  0.01520800  1
  H  3774  1  0.26691300  0.25091200  0.03554200  1
  H  3776  1  0.29490800  0.26800900  0.04487100  1
  H  3778  1  0.32332200  0.17283200  0.07196700  1
  H  3788  1  0.57163900  0.13031500  0.52020200  1
  H  3789  1  0.57347000  0.12686200  0.48392000  1
  H  3792  1  0.49631300  0.20188400  0.51092100  1
  H  3793  1  0.51734500  0.18070800  0.53078800  1
  H  3795  1  0.54498900  0.17081900  0.54780700  1
  H  3797  1  0.57200300  0.14284900  0.45187300  1
  H  3807  1  0.07185410  0.80935800  0.97571800  1
  H  3808  1  0.07404910  0.81240600  0.01234900  1
  H  3811  1  0.99626200  0.73779700  0.98470200  1
  H  3812  1  0.01731210  0.75911800  0.96493000  1
  H  3814  1  0.04517510  0.76878100  0.94808000  1
  H  3816  1  0.05104110  0.81105800  0.04401500  1
  H  3826  1  0.32167800  0.24089400  0.90851800  1
  H  3827  1  0.32367100  0.20469200  0.90482000  1
  H  3830  1  0.24532300  0.23088600  0.97888000  1
  H  3831  1  0.26701700  0.25089000  0.95856400  1
  H  3833  1  0.29505400  0.26798800  0.94927200  1
  H  3835  1  0.32297200  0.17292100  0.92174100  1
  H  3845  1  0.82179700  0.69564400  0.58359100  1
  H  3846  1  0.82357100  0.73186000  0.58743900  1
  H  3849  1  0.74566900  0.70531200  0.51317800  1
  H  3850  1  0.76734500  0.68538800  0.53349600  1
  H  3852  1  0.79495400  0.66812600  0.54307100  1
  H  3854  1  0.82231900  0.76418300  0.57114500  1
  H  3864  1  0.67983300  0.24090900  0.58356900  1
  H  3865  1  0.67770200  0.20474400  0.58756500  1
  H  3868  1  0.75599900  0.23059700  0.51313600  1
  H  3869  1  0.73442800  0.25064700  0.53343800  1
  H  3871  1  0.70672600  0.26799000  0.54290900  1
  H  3873  1  0.67807700  0.17280400  0.57005200  1
  H  3883  1  0.17973700  0.69578300  0.90852000  1
  H  3884  1  0.17800700  0.73206600  0.90499100  1
  H  3887  1  0.25598300  0.70480700  0.97893400  1
  H  3888  1  0.23427000  0.68501600  0.95856500  1
  H  3890  1  0.20650300  0.66790400  0.94902600  1
  H  3892  1  0.17953600  0.76410900  0.92090800  1
  H  3902  1  0.92986800  0.62829900  0.47419200  1
  H  3903  1  0.92806600  0.62512000  0.51056900  1
  H  3906  1  0.00507706  0.70018000  0.48271600  1
  H  3907  1  0.98416100  0.67873000  0.46301100  1
  H  3909  1  0.95634000  0.66896500  0.44620600  1
  H  3911  1  0.92953900  0.64137600  0.54256600  1
  H  3921  1  0.42990300  0.30726900  0.01909000  1
  H  3922  1  0.42775600  0.31099600  0.98285900  1
  H  3925  1  0.50545700  0.23591900  0.00920900  1
  H  3926  1  0.48437200  0.25691600  0.02915600  1
  H  3928  1  0.45657300  0.26648700  0.04624800  1
  H  3930  1  0.42822100  0.29367800  0.95105500  1
  H  3940  1  0.07194210  0.62829700  0.01830500  1
  H  3941  1  0.07397710  0.62520500  0.98166300  1
  H  3944  1  0.99623300  0.69977700  0.00946000  1
  H  3945  1  0.01736910  0.67851600  0.02919600  1
  H  3947  1  0.04523410  0.66894300  0.04606000  1
  H  3949  1  0.05058110  0.62659500  0.95025700  1
  H  3959  1  0.57171700  0.30729100  0.47394500  1
  H  3960  1  0.57354400  0.31079400  0.51023900  1
  H  3963  1  0.49633700  0.23576800  0.48315700  1
  H  3964  1  0.51741100  0.25693900  0.46332500  1
  H  3966  1  0.54506900  0.26669600  0.44629300  1
  H  3968  1  0.57223700  0.29436800  0.54239500  1
  H  3975  1  0.52034300  0.59552300  0.11816500  1
  H  3976  1  0.52010000  0.53002600  0.12141400  1
  H  3983  1  0.55835700  0.65163900  0.05481800  1
  H  3984  1  0.57183500  0.59328200  0.07805500  1
  H  3987  1  0.55751500  0.54719800  0.06219600  1
  H  3988  1  0.49710700  0.62945500  0.08769700  1
  H  3999  1  0.02041510  0.34005400  0.37388500  1
  H  4000  1  0.01997510  0.40539300  0.37066200  1
  H  4007  1  0.05835010  0.28406300  0.43730500  1
  H  4008  1  0.07184510  0.34241700  0.41406100  1
  H  4011  1  0.05714310  0.38858100  0.43000500  1
  H  4012  1  0.99708700  0.30624900  0.40445200  1
  H  4023  1  0.77034700  0.09759700  0.87588100  1
  H  4024  1  0.77008600  0.09437400  0.81037800  1
  H  4031  1  0.80843000  0.16100300  0.93169500  1
  H  4032  1  0.82184900  0.13775800  0.87345500  1
  H  4035  1  0.80718700  0.15382000  0.82731600  1
  H  4036  1  0.74709400  0.12818100  0.90966500  1
  H  4047  1  0.27055100  0.84174300  0.62038500  1
  H  4048  1  0.27021700  0.84519900  0.68563600  1
  H  4055  1  0.30834000  0.77855900  0.56430500  1
  H  4056  1  0.32185900  0.80178200  0.62258200  1
  H  4059  1  0.30687400  0.78558900  0.66933700  1
  H  4060  1  0.24709200  0.81141200  0.58641000  1
  H  4071  1  0.11943900  0.59495100  0.37436600  1
  H  4072  1  0.12107200  0.52963100  0.37224600  1
  H  4079  1  0.08198410  0.65156100  0.43726100  1
  H  4080  1  0.06831410  0.59320600  0.41424700  1
  H  4083  1  0.08154610  0.54706800  0.43017100  1
  H  4084  1  0.14311100  0.62928600  0.40445000  1
  H  4095  1  0.61943300  0.34073200  0.11779100  1
  H  4096  1  0.62106300  0.40605600  0.11991200  1
  H  4103  1  0.58190900  0.28418600  0.05491100  1
  H  4104  1  0.56830100  0.34251100  0.07792000  1
  H  4107  1  0.58155200  0.38862000  0.06198400  1
  H  4108  1  0.64310000  0.30639900  0.08770700  1
  H  4119  1  0.86938700  0.09809100  0.62098900  1
  H  4120  1  0.87111900  0.09590200  0.68631600  1
  H  4127  1  0.83193600  0.16100900  0.56425900  1
  H  4128  1  0.81832900  0.13795800  0.62269500  1
  H  4131  1  0.83155100  0.15383200  0.66875300  1
  H  4132  1  0.89309000  0.12815700  0.58658700  1
  H  4143  1  0.36940000  0.84149600  0.87506300  1
  H  4144  1  0.37113000  0.84368000  0.80973100  1
  H  4151  1  0.33195900  0.77859500  0.93178300  1
  H  4152  1  0.31831100  0.80161600  0.87335300  1
  H  4155  1  0.33155800  0.78575400  0.82730000  1
  H  4156  1  0.39309500  0.81143400  0.90943900  1
  H  4167  1  0.61969900  0.34000000  0.87607500  1
  H  4168  1  0.62010200  0.40543400  0.87285600  1
  H  4175  1  0.58201100  0.28273000  0.93777600  1
  H  4176  1  0.56829300  0.34308400  0.91875000  1
  H  4179  1  0.58309100  0.38834300  0.93255600  1
  H  4180  1  0.64299600  0.30642500  0.90632300  1
  H  4191  1  0.11965700  0.59560900  0.61582000  1
  H  4192  1  0.12022400  0.53049000  0.61963800  1
  H  4199  1  0.08208610  0.65298900  0.55429600  1
  H  4200  1  0.06830710  0.59259900  0.57327100  1
  H  4203  1  0.08323410  0.54670700  0.55978300  1
  H  4204  1  0.14303000  0.62923500  0.58580200  1
  H  4215  1  0.36980800  0.83784500  0.11847400  1
  H  4216  1  0.37027200  0.84145800  0.18372000  1
  H  4223  1  0.33022600  0.77775500  0.06242000  1
  H  4224  1  0.31830400  0.79807900  0.12133400  1
  H  4227  1  0.33338800  0.78183500  0.16756900  1
  H  4228  1  0.39265400  0.80802300  0.08440400  1
  H  4239  1  0.87005000  0.09770800  0.37396100  1
  H  4240  1  0.87021100  0.09433600  0.30846000  1
  H  4247  1  0.83036000  0.15865900  0.43041400  1
  H  4248  1  0.81825100  0.13785600  0.37127100  1
  H  4251  1  0.83312900  0.15380600  0.32529500  1
  H  4252  1  0.89269400  0.12841800  0.40798900  1
  H  4263  1  0.02105310  0.34068100  0.61559600  1
  H  4264  1  0.01937310  0.40592000  0.61764500  1
  H  4271  1  0.05828310  0.28281600  0.55445100  1
  H  4272  1  0.07212310  0.34319200  0.57309500  1
  H  4275  1  0.05874010  0.38848100  0.55943100  1
  H  4276  1  0.99735900  0.30661600  0.58580500  1
  H  4287  1  0.52097500  0.59498900  0.87654100  1
  H  4288  1  0.51935000  0.52976400  0.87450900  1
  H  4295  1  0.55819100  0.65290500  0.93771500  1
  H  4296  1  0.57211200  0.59252100  0.91901800  1
  H  4299  1  0.55874000  0.54721000  0.93271700  1
  H  4300  1  0.49738300  0.62908900  0.90630200  1
  H  4311  1  0.27080900  0.83748800  0.37312100  1
  H  4312  1  0.26914000  0.83981400  0.30778600  1
  H  4319  1  0.31016100  0.77789300  0.43036700  1
  H  4320  1  0.32217200  0.79760800  0.37105700  1
  H  4323  1  0.30876200  0.78187400  0.32527900  1
  H  4324  1  0.24747900  0.80700600  0.40750000  1
  H  4335  1  0.77107600  0.09811100  0.11916900  1
  H  4336  1  0.76906500  0.09584600  0.18449900  1
  H  4343  1  0.81016700  0.15793100  0.06210700  1
  H  4344  1  0.82265300  0.13786700  0.12152800  1
  H  4347  1  0.80881100  0.15382900  0.16704900  1
  H  4348  1  0.74795100  0.12814800  0.08511800  1
  H  4359  1  0.02554710  0.09724100  0.62172300  1
  H  4360  1  0.01901610  0.03256600  0.62312200  1
  H  4367  1  0.06041010  0.15405000  0.55895800  1
  H  4368  1  0.07285110  0.09462800  0.57997200  1
  H  4371  1  0.05733310  0.04871800  0.56376400  1
  H  4372  1  0.99850400  0.13137500  0.58961500  1
  H  4383  1  0.52551100  0.84219100  0.87439000  1
  H  4384  1  0.51906500  0.90688400  0.87294300  1
  H  4391  1  0.56035900  0.78516100  0.93694300  1
  H  4392  1  0.57238500  0.84453800  0.91628800  1
  H  4395  1  0.55705800  0.89075000  0.93244400  1
  H  4396  1  0.49794500  0.80778200  0.90705700  1
  H  4407  1  0.27558700  0.59436800  0.37376000  1
  H  4408  1  0.26929200  0.59315100  0.30911300  1
  H  4415  1  0.30851300  0.65769400  0.43140500  1
  H  4416  1  0.32231100  0.63887400  0.37093300  1
  H  4419  1  0.30736500  0.65267800  0.32536300  1
  H  4420  1  0.24758400  0.62656200  0.40760700  1
  H  4431  1  0.77557500  0.34129700  0.11840600  1
  H  4432  1  0.76932100  0.34252300  0.18302800  1
  H  4439  1  0.80860800  0.27803900  0.06080400  1
  H  4440  1  0.82232700  0.29685600  0.12126300  1
  H  4443  1  0.80738500  0.28302900  0.16682600  1
  H  4444  1  0.74760200  0.30911200  0.08455600  1
  H  4455  1  0.61456500  0.09656600  0.87491900  1
  H  4456  1  0.62192400  0.03194500  0.87445000  1
  H  4463  1  0.57980900  0.15398200  0.93621300  1
  H  4464  1  0.56729500  0.09446100  0.91624600  1
  H  4467  1  0.58151600  0.04851800  0.93246500  1
  H  4468  1  0.64200800  0.13082100  0.90664000  1
  H  4479  1  0.11461200  0.84282100  0.62110300  1
  H  4480  1  0.12184100  0.90746300  0.62153000  1
  H  4487  1  0.08022410  0.78528400  0.55816200  1
  H  4488  1  0.06775310  0.84446900  0.57963200  1
  H  4491  1  0.08156410  0.89082600  0.56360000  1
  H  4492  1  0.14204900  0.80760300  0.58913000  1
  H  4503  1  0.36453100  0.59501200  0.11918200  1
  H  4504  1  0.37171600  0.59456800  0.18373500  1
  H  4511  1  0.33178000  0.65763000  0.06074800  1
  H  4512  1  0.31784600  0.63896000  0.12134200  1
  H  4515  1  0.33158800  0.65285600  0.16687900  1
  H  4516  1  0.39259200  0.62653600  0.08475300  1
  H  4527  1  0.86453400  0.34065900  0.37298100  1
  H  4528  1  0.87171300  0.34109800  0.30842600  1
  H  4535  1  0.83176200  0.27796400  0.43142100  1
  H  4536  1  0.81787400  0.29666400  0.37083400  1
  H  4539  1  0.83158900  0.28281600  0.32528200  1
  H  4540  1  0.89258500  0.30912600  0.40744200  1
  H  4551  1  0.11571900  0.84193900  0.37708800  1
  H  4552  1  0.12135300  0.90644000  0.37476600  1
  H  4559  1  0.08006610  0.78374600  0.43634900  1
  H  4560  1  0.06795310  0.84535400  0.42103700  1
  H  4563  1  0.08337310  0.89046200  0.43487000  1
  H  4564  1  0.14279500  0.80856400  0.40953200  1
  H  4575  1  0.61462200  0.09729900  0.11944300  1
  H  4576  1  0.62113000  0.03269600  0.12096500  1
  H  4583  1  0.57994500  0.15560800  0.05946300  1
  H  4584  1  0.56733000  0.09387100  0.07505600  1
  H  4587  1  0.58298900  0.04879300  0.06124700  1
  H  4588  1  0.64182200  0.13077900  0.08755900  1
  H  4599  1  0.86540900  0.34056100  0.62000900  1
  H  4600  1  0.87118400  0.34303700  0.68447100  1
  H  4607  1  0.83000200  0.28058800  0.56190100  1
  H  4608  1  0.81778200  0.29675100  0.62345900  1
  H  4611  1  0.83328400  0.28304100  0.66903300  1
  H  4612  1  0.89204200  0.30865100  0.58627600  1
  H  4623  1  0.36513600  0.59813900  0.87561200  1
  H  4624  1  0.37121100  0.59668900  0.81097700  1
  H  4631  1  0.33044900  0.65807400  0.93346400  1
  H  4632  1  0.31804700  0.64264300  0.87225300  1
  H  4635  1  0.33322000  0.65642500  0.82712700  1
  H  4636  1  0.39266700  0.63003800  0.90915400  1
  H  4647  1  0.52499200  0.84250200  0.11818300  1
  H  4648  1  0.51853500  0.90700900  0.11973200  1
  H  4655  1  0.56025700  0.78369000  0.05887000  1
  H  4656  1  0.57265300  0.84532100  0.07476700  1
  H  4659  1  0.55865400  0.89084200  0.06115800  1
  H  4660  1  0.49836700  0.80821800  0.08689700  1
  H  4671  1  0.02530910  0.09664400  0.37698500  1
  H  4672  1  0.01844610  0.03207600  0.37643600  1
  H  4679  1  0.05990510  0.15518100  0.43633100  1
  H  4680  1  0.07237310  0.09388500  0.42116200  1
  H  4683  1  0.05862310  0.04876800  0.43475000  1
  H  4684  1  0.99776100  0.13075900  0.40831100  1
  H  4695  1  0.77586400  0.34060600  0.87480400  1
  H  4696  1  0.76850300  0.34117600  0.81026400  1
  H  4703  1  0.81031900  0.28126300  0.93382000  1
  H  4704  1  0.82310800  0.29653900  0.87201800  1
  H  4707  1  0.80878600  0.28282700  0.82696500  1
  H  4708  1  0.74859100  0.30933000  0.90884700  1
  H  4719  1  0.27464800  0.59948900  0.62083700  1
  H  4720  1  0.26833700  0.59769500  0.68534300  1
  H  4727  1  0.31021200  0.65803200  0.56205000  1
  H  4728  1  0.32243200  0.64300400  0.62376800  1
  H  4731  1  0.30848900  0.65635500  0.66909000  1
  H  4732  1  0.24762600  0.63127800  0.58698700  1
  H  4746  1  0.60887000  0.64331700  0.97466500  1
  H  4747  1  0.60910500  0.64754400  0.01112000  1
  H  4750  1  0.55583700  0.55417600  0.98399000  1
  H  4751  1  0.57004000  0.58050500  0.96386800  1
  H  4753  1  0.59515300  0.59743200  0.94726700  1
  H  4755  1  0.61287000  0.62608300  0.04299200  1
  H  4765  1  0.10887400  0.29235700  0.51750700  1
  H  4766  1  0.10910400  0.28812100  0.48105200  1
  H  4769  1  0.05584910  0.38149100  0.50816900  1
  H  4770  1  0.07002710  0.35514100  0.52830200  1
  H  4772  1  0.09527010  0.33828200  0.54488600  1
  H  4774  1  0.11285400  0.30954000  0.44916400  1
  H  4784  1  0.85893000  0.24106800  0.92346200  1
  H  4785  1  0.85913100  0.20462200  0.92775600  1
  H  4788  1  0.80583800  0.23198900  0.83435100  1
  H  4789  1  0.81999000  0.25205300  0.86072400  1
  H  4791  1  0.84578800  0.26814600  0.87730000  1
  H  4793  1  0.86288600  0.17283800  0.90633400  1
  H  4803  1  0.35890000  0.69848600  0.57259700  1
  H  4804  1  0.35912700  0.73494800  0.56830300  1
  H  4807  1  0.30582500  0.70760400  0.66170500  1
  H  4808  1  0.32002700  0.68753700  0.63538600  1
  H  4810  1  0.34538900  0.67101200  0.61856700  1
  H  4812  1  0.36287000  0.76676300  0.58971700  1
  H  4822  1  0.03148010  0.64328200  0.51742600  1
  H  4823  1  0.03119910  0.64754200  0.48096400  1
  H  4826  1  0.08449610  0.55414800  0.50827300  1
  H  4827  1  0.07035610  0.58046100  0.52836400  1
  H  4829  1  0.04511210  0.59728400  0.54469800  1
  H  4831  1  0.02742510  0.62617700  0.44913500  1
  H  4841  1  0.53143700  0.29238500  0.97473900  1
  H  4842  1  0.53117400  0.28811300  0.01120400  1
  H  4845  1  0.58444900  0.38152700  0.98388100  1
  H  4846  1  0.57027300  0.35522600  0.96380100  1
  H  4848  1  0.54522900  0.33828500  0.94714100  1
  H  4850  1  0.52740700  0.30949900  0.04301200  1
  H  4860  1  0.78136000  0.24113800  0.57255100  1
  H  4861  1  0.78119700  0.20469500  0.56830600  1
  H  4864  1  0.83444000  0.23190600  0.66169000  1
  H  4865  1  0.82022000  0.25202200  0.63533800  1
  H  4867  1  0.79482700  0.26853100  0.61850500  1
  H  4869  1  0.77742300  0.17287900  0.58974300  1
  H  4879  1  0.28148800  0.69830800  0.92349300  1
  H  4880  1  0.28121200  0.73477100  0.92774100  1
  H  4883  1  0.33446400  0.70772400  0.83434900  1
  H  4884  1  0.32030000  0.68756500  0.86069100  1
  H  4886  1  0.29477900  0.67114700  0.87748100  1
  H  4888  1  0.27742400  0.76665900  0.90633300  1
  H  4898  1  0.28141800  0.69464400  0.07061300  1
  H  4899  1  0.28119600  0.73111300  0.06637700  1
  H  4902  1  0.33447900  0.70365400  0.15974900  1
  H  4903  1  0.32026100  0.68361900  0.13342500  1
  H  4905  1  0.29510100  0.66712000  0.11650900  1
  H  4907  1  0.27724000  0.76275800  0.08800200  1
  H  4917  1  0.78141900  0.24110100  0.42154000  1
  H  4918  1  0.78118500  0.20465500  0.42582500  1
  H  4921  1  0.83446400  0.23200500  0.33240800  1
  H  4922  1  0.82027300  0.25206200  0.35874700  1
  H  4924  1  0.79502400  0.26857600  0.37561600  1
  H  4926  1  0.77715500  0.17301000  0.40428600  1
  H  4936  1  0.35892200  0.69447300  0.42153200  1
  H  4937  1  0.35913800  0.73090500  0.42576600  1
  H  4940  1  0.30584800  0.70377100  0.33240400  1
  H  4941  1  0.31998700  0.68363400  0.35877900  1
  H  4943  1  0.34537700  0.66731200  0.37556200  1
  H  4945  1  0.36315600  0.76259200  0.40413200  1
  H  4955  1  0.85892200  0.24121200  0.07060700  1
  H  4956  1  0.85913300  0.20479400  0.06635000  1
  H  4959  1  0.80584200  0.23192800  0.15972800  1
  H  4960  1  0.82003000  0.25204400  0.13336500  1
  H  4962  1  0.84532400  0.26856400  0.11653800  1
  H  4964  1  0.86330900  0.17321300  0.08786300  1
  H  4974  1  0.10880700  0.14525500  0.47649000  1
  H  4975  1  0.10910600  0.14952600  0.51291200  1
  H  4978  1  0.05581110  0.05612900  0.48591400  1
  H  4979  1  0.06998410  0.08249900  0.46577000  1
  H  4981  1  0.09567810  0.09920700  0.44941800  1
  H  4983  1  0.11352500  0.12794200  0.54442200  1
  H  4993  1  0.60893200  0.79429900  0.01941900  1
  H  4994  1  0.60913300  0.79003800  0.98300300  1
  H  4997  1  0.55586500  0.88345100  0.01015300  1
  H  4998  1  0.57008700  0.85708500  0.03026100  1
  H  5000  1  0.59552100  0.84025300  0.04674400  1
  H  5002  1  0.61338000  0.81175300  0.95146000  1
  H  5012  1  0.53138000  0.14523800  0.01935000  1
  H  5013  1  0.53116300  0.14955400  0.98292700  1
  H  5016  1  0.58446000  0.05611600  0.01029100  1
  H  5017  1  0.57027700  0.08247800  0.03033900  1
  H  5019  1  0.54461100  0.09911200  0.04663700  1
  H  5021  1  0.52677400  0.12797400  0.95153900  1
  H  5031  1  0.03144410  0.79436300  0.47662200  1
  H  5032  1  0.03115910  0.79003100  0.51304200  1
  H  5035  1  0.08446910  0.88349300  0.48584200  1
  H  5036  1  0.07034810  0.85715000  0.46574400  1
  H  5038  1  0.04483310  0.84045800  0.44946100  1
  H  5040  1  0.02690310  0.81161900  0.54456600  1
  H  5050  1  0.54014300  0.47692700  0.11168400  1
  H  5051  1  0.55590400  0.44386000  0.11448600  1
  H  5054  1  0.60948600  0.50526400  0.04002600  1
  H  5055  1  0.58147500  0.51239500  0.06197100  1
  H  5057  1  0.54189900  0.50283900  0.06846300  1
  H  5059  1  0.58524200  0.42302500  0.11182800  1
  H  5069  1  0.04025410  0.45880100  0.38026600  1
  H  5070  1  0.05605010  0.49197700  0.37749900  1
  H  5073  1  0.10964100  0.43044500  0.45209800  1
  H  5074  1  0.08171110  0.42343000  0.43045500  1
  H  5076  1  0.04413710  0.43068700  0.42423500  1
  H  5078  1  0.08541010  0.51267000  0.38026200  1
  H  5088  1  0.79020800  0.10405400  0.75716500  1
  H  5089  1  0.80600400  0.10127400  0.72402600  1
  H  5092  1  0.85964600  0.17577300  0.78532000  1
  H  5093  1  0.83162100  0.15400400  0.79239900  1
  H  5095  1  0.79354500  0.14744000  0.78428800  1
  H  5097  1  0.83533800  0.10401500  0.70327100  1
  H  5107  1  0.29020500  0.83538600  0.73882400  1
  H  5108  1  0.30612700  0.83827700  0.77170900  1
  H  5111  1  0.35938900  0.76376700  0.71056200  1
  H  5112  1  0.33084600  0.78531500  0.70356300  1
  H  5114  1  0.28799300  0.79513600  0.71152000  1
  H  5116  1  0.33523400  0.83547500  0.79267900  1
  H  5126  1  0.60005400  0.45878700  0.88227500  1
  H  5127  1  0.58427000  0.49195200  0.87948000  1
  H  5130  1  0.53063100  0.43046800  0.95406600  1
  H  5131  1  0.55863300  0.42341900  0.93230300  1
  H  5133  1  0.59661800  0.43149900  0.92564200  1
  H  5135  1  0.55483200  0.51269700  0.88227400  1
  H  5145  1  0.10022200  0.47715600  0.60951200  1
  H  5146  1  0.08427610  0.44413900  0.61264700  1
  H  5149  1  0.03066410  0.50527900  0.53802900  1
  H  5150  1  0.05877810  0.51245300  0.55976800  1
  H  5152  1  0.09787910  0.50622900  0.56631600  1
  H  5154  1  0.05504110  0.42305400  0.60979100  1
  H  5164  1  0.35013700  0.83142600  0.23680900  1
  H  5165  1  0.33419800  0.83438400  0.26972200  1
  H  5168  1  0.28083700  0.75985900  0.20862200  1
  H  5169  1  0.30929400  0.78143100  0.20157600  1
  H  5171  1  0.35092300  0.79006700  0.20896500  1
  H  5173  1  0.30509400  0.83157900  0.29071500  1
  H  5183  1  0.85009900  0.10405900  0.25520700  1
  H  5184  1  0.83432300  0.10127700  0.22207900  1
  H  5187  1  0.78065200  0.17577400  0.28336300  1
  H  5188  1  0.80867200  0.15401100  0.29044700  1
  H  5190  1  0.84670800  0.14743400  0.28238400  1
  H  5192  1  0.80501400  0.10399500  0.20135600  1
  H  5202  1  0.04023810  0.97877600  0.61377800  1
  H  5203  1  0.05602310  0.94562700  0.61656600  1
  H  5206  1  0.10955600  0.00716600  0.54200400  1
  H  5207  1  0.08150810  0.01418200  0.56380500  1
  H  5209  1  0.04296110  0.00550500  0.57051600  1
  H  5211  1  0.08566410  0.92480600  0.61387800  1
  H  5221  1  0.54024500  0.96080500  0.88222200  1
  H  5222  1  0.55603300  0.99397600  0.87944900  1
  H  5225  1  0.60960800  0.93241400  0.95405100  1
  H  5226  1  0.58158500  0.92540500  0.93227700  1
  H  5228  1  0.54353000  0.93374200  0.92546700  1
  H  5230  1  0.58567500  0.01471400  0.88213500  1
  H  5240  1  0.29015400  0.60218300  0.25519000  1
  H  5241  1  0.30599600  0.59935400  0.22203400  1
  H  5244  1  0.35960900  0.67381100  0.28334400  1
  H  5245  1  0.33163800  0.65195300  0.29048100  1
  H  5247  1  0.29318700  0.64545800  0.28160500  1
  H  5249  1  0.33571000  0.60206400  0.20116800  1
  H  5259  1  0.79015700  0.33343200  0.23695700  1
  H  5260  1  0.80598300  0.33629100  0.27009100  1
  H  5263  1  0.85958000  0.26184400  0.20881700  1
  H  5264  1  0.83163400  0.28372400  0.20166300  1
  H  5266  1  0.79301300  0.29009000  0.21046500  1
  H  5268  1  0.83569700  0.33360200  0.29098600  1
  H  5278  1  0.09975210  0.96130100  0.38338800  1
  H  5279  1  0.08380610  0.99438900  0.38110900  1
  H  5282  1  0.03091710  0.93222700  0.45589600  1
  H  5283  1  0.05936610  0.92567000  0.43449700  1
  H  5285  1  0.09539910  0.93276300  0.42510600  1
  H  5287  1  0.05434110  0.01479500  0.38409900  1
  H  5297  1  0.60009000  0.97881700  0.11179800  1
  H  5298  1  0.58427100  0.94563800  0.11462800  1
  H  5301  1  0.53066900  0.00714600  0.04004300  1
  H  5302  1  0.55866200  0.01420600  0.06185800  1
  H  5304  1  0.59687000  0.00571300  0.06839900  1
  H  5306  1  0.55455700  0.92479500  0.11195700  1
  H  5316  1  0.85002400  0.33367100  0.73899100  1
  H  5317  1  0.83419700  0.33641000  0.77214900  1
  H  5320  1  0.78066200  0.26187700  0.71074100  1
  H  5321  1  0.80871700  0.28359100  0.70371800  1
  H  5323  1  0.84656100  0.29042400  0.71159800  1
  H  5325  1  0.80456500  0.33363500  0.79292100  1
  H  5335  1  0.35003400  0.60593600  0.75704400  1
  H  5336  1  0.33422200  0.60320000  0.72389000  1
  H  5339  1  0.28067700  0.67770300  0.78529900  1
  H  5340  1  0.30869300  0.65592400  0.79235000  1
  H  5342  1  0.34659500  0.64913100  0.78400500  1
  H  5344  1  0.30460400  0.60581900  0.70308800  1
  H  5354  1  0.46792600  0.55005400  0.16463500  1
  H  5355  1  0.43060900  0.54729600  0.16693100  1
  H  5358  1  0.45896200  0.62250600  0.09101700  1
  H  5359  1  0.47938100  0.60091700  0.11221100  1
  H  5361  1  0.49547900  0.59109000  0.14261200  1
  H  5363  1  0.39785400  0.55047000  0.14815400  1
  H  5373  1  0.96793700  0.38561200  0.32752100  1
  H  5374  1  0.93062100  0.38837500  0.32522000  1
  H  5377  1  0.95895500  0.31318800  0.40116100  1
  H  5378  1  0.97938100  0.33479000  0.37997700  1
  H  5380  1  0.99538600  0.34449700  0.34956300  1
  H  5382  1  0.89784800  0.38519600  0.34396900  1
  H  5392  1  0.71797300  0.05128500  0.83034800  1
  H  5393  1  0.68067500  0.04898900  0.82756200  1
  H  5396  1  0.70896100  0.12480400  0.90261400  1
  H  5397  1  0.72939300  0.10367600  0.88104700  1
  H  5399  1  0.74536900  0.07323600  0.87143600  1
  H  5401  1  0.64802300  0.06790900  0.83052800  1
  H  5411  1  0.21795300  0.88828000  0.66573900  1
  H  5412  1  0.18064900  0.89057300  0.66849600  1
  H  5415  1  0.20899200  0.81480000  0.59343600  1
  H  5416  1  0.22939400  0.83593300  0.61500100  1
  H  5418  1  0.24552900  0.86619200  0.62476400  1
  H  5420  1  0.14798200  0.87172500  0.66549300  1
  H  5430  1  0.17216900  0.55010000  0.32764800  1
  H  5431  1  0.20947300  0.54735100  0.32528000  1
  H  5434  1  0.18126700  0.62245300  0.40105500  1
  H  5435  1  0.16082700  0.60091200  0.37992700  1
  H  5437  1  0.14439500  0.59079400  0.34988900  1
  H  5439  1  0.24196400  0.54999600  0.34440400  1
  H  5449  1  0.67215900  0.38557600  0.16450300  1
  H  5450  1  0.70945800  0.38832600  0.16687900  1
  H  5453  1  0.68128300  0.31324200  0.09107900  1
  H  5454  1  0.66083500  0.33475900  0.11222400  1
  H  5456  1  0.64439500  0.34487800  0.14226000  1
  H  5458  1  0.74195000  0.38567000  0.14775400  1
  H  5468  1  0.92213300  0.05130700  0.66584700  1
  H  5469  1  0.95941700  0.04890700  0.66860700  1
  H  5472  1  0.93128400  0.12487700  0.59337800  1
  H  5473  1  0.91084400  0.10367400  0.61492300  1
  H  5475  1  0.89436600  0.07365000  0.62513300  1
  H  5477  1  0.99182000  0.06816400  0.66603300  1
  H  5487  1  0.42214200  0.88827700  0.83022800  1
  H  5488  1  0.45942700  0.89067400  0.82747500  1
  H  5491  1  0.43127500  0.81471900  0.90270800  1
  H  5492  1  0.41083200  0.83590300  0.88113000  1
  H  5494  1  0.39441400  0.86594100  0.87096600  1
  H  5496  1  0.49183500  0.87145800  0.83004500  1
  H  5506  1  0.67233300  0.38560400  0.82949900  1
  H  5507  1  0.70965700  0.38837000  0.82718500  1
  H  5510  1  0.68135000  0.31315900  0.90310000  1
  H  5511  1  0.66092000  0.33473800  0.88195200  1
  H  5513  1  0.64478500  0.34453100  0.85164800  1
  H  5515  1  0.74242000  0.38521800  0.84600400  1
  H  5525  1  0.17277200  0.54994300  0.66239300  1
  H  5526  1  0.21015000  0.54757400  0.66497300  1
  H  5529  1  0.18169500  0.62250300  0.58899600  1
  H  5530  1  0.16129500  0.60090600  0.61008800  1
  H  5532  1  0.14509900  0.59115700  0.64027500  1
  H  5534  1  0.24399700  0.55282600  0.64821900  1
  H  5544  1  0.42223600  0.88430500  0.16381300  1
  H  5545  1  0.45945200  0.88694500  0.16656900  1
  H  5548  1  0.43180200  0.81092000  0.09154800  1
  H  5549  1  0.41120700  0.83198600  0.11295800  1
  H  5551  1  0.39494100  0.86215700  0.12271700  1
  H  5553  1  0.49250700  0.86875900  0.16328000  1
  H  5563  1  0.92289500  0.05142200  0.32832000  1
  H  5564  1  0.96034800  0.04930000  0.32583200  1
  H  5567  1  0.93122200  0.12480200  0.40077800  1
  H  5568  1  0.91097200  0.10371000  0.37911700  1
  H  5570  1  0.89508500  0.07326100  0.36938000  1
  H  5572  1  0.99400500  0.06648700  0.33094700  1
  H  5582  1  0.96830400  0.38559800  0.66244300  1
  H  5583  1  0.93109100  0.38835900  0.66518000  1
  H  5586  1  0.95854200  0.31327100  0.58917200  1
  H  5587  1  0.97916600  0.33466300  0.61019800  1
  H  5589  1  0.99588500  0.34482000  0.64001500  1
  H  5591  1  0.89826900  0.38554500  0.64667000  1
  H  5601  1  0.46767900  0.55004300  0.82975700  1
  H  5602  1  0.43023700  0.54754900  0.82753200  1
  H  5605  1  0.45909000  0.62252900  0.90305900  1
  H  5606  1  0.47938600  0.60092000  0.88194000  1
  H  5608  1  0.49578600  0.59073800  0.85198500  1
  H  5610  1  0.39679400  0.55217600  0.84506000  1
  H  5620  1  0.21768500  0.88412200  0.32815700  1
  H  5621  1  0.18033900  0.88674300  0.32578100  1
  H  5624  1  0.20867600  0.81076400  0.40075200  1
  H  5625  1  0.22909900  0.83186200  0.37919100  1
  H  5627  1  0.24557500  0.86185000  0.36899700  1
  H  5629  1  0.14670000  0.86968500  0.33061500  1
  H  5639  1  0.71814200  0.05131000  0.16388400  1
  H  5640  1  0.68084600  0.04892100  0.16663100  1
  H  5643  1  0.70904000  0.12485400  0.09139000  1
  H  5644  1  0.72948700  0.10369800  0.11293900  1
  H  5646  1  0.74591300  0.07369600  0.12315900  1
  H  5648  1  0.64836200  0.06809400  0.16395900  1
  H  5658  1  0.49920400  0.69568000  0.08561300  1
  H  5659  1  0.49732500  0.73199500  0.08906100  1
  H  5662  1  0.57539700  0.70491000  0.01518000  1
  H  5663  1  0.55371600  0.68509000  0.03559400  1
  H  5665  1  0.52580200  0.66811500  0.04502100  1
  H  5667  1  0.49867000  0.76419800  0.07270000  1
  H  5677  1  0.99898100  0.24012900  0.40643900  1
  H  5678  1  0.99680600  0.20348600  0.40341200  1
  H  5681  1  0.07564910  0.23122000  0.47659700  1
  H  5682  1  0.05379710  0.25093300  0.45622400  1
  H  5684  1  0.02563710  0.26773400  0.44709700  1
  H  5686  1  0.02012410  0.17200900  0.40484900  1
  H  5696  1  0.74937300  0.13034600  0.97495100  1
  H  5697  1  0.74718900  0.12664500  0.01116600  1
  H  5700  1  0.82487100  0.20173200  0.98493700  1
  H  5701  1  0.80384900  0.18070800  0.96495200  1
  H  5703  1  0.77603700  0.17105500  0.94789900  1
  H  5705  1  0.74785100  0.14343300  0.04299700  1
  H  5715  1  0.24933300  0.80932300  0.51998100  1
  H  5716  1  0.24748000  0.81248900  0.48361500  1
  H  5719  1  0.32448000  0.73740300  0.51133200  1
  H  5720  1  0.30362600  0.75887300  0.53108400  1
  H  5722  1  0.27583700  0.76876300  0.54790500  1
  H  5724  1  0.24928000  0.79693600  0.45145700  1
  H  5734  1  0.14102700  0.69590200  0.40642600  1
  H  5735  1  0.14289200  0.73229600  0.40331000  1
  H  5738  1  0.06478110  0.70443500  0.47692300  1
  H  5739  1  0.08648910  0.68475200  0.45644300  1
  H  5741  1  0.11456300  0.66795100  0.44705500  1
  H  5743  1  0.14142000  0.76431900  0.41954100  1
  H  5753  1  0.64096600  0.24090200  0.08560100  1
  H  5754  1  0.64318500  0.20465500  0.08926400  1
  H  5757  1  0.56470500  0.23094200  0.01520800  1
  H  5758  1  0.58631400  0.25091200  0.03554200  1
  H  5760  1  0.61430900  0.26800900  0.04487100  1
  H  5762  1  0.64272300  0.17283200  0.07196700  1
  H  5772  1  0.89104000  0.13031500  0.52020200  1
  H  5773  1  0.89287100  0.12686200  0.48392000  1
  H  5776  1  0.81571400  0.20188400  0.51092100  1
  H  5777  1  0.83674600  0.18070800  0.53078800  1
  H  5779  1  0.86439000  0.17081900  0.54780700  1
  H  5781  1  0.89140400  0.14284900  0.45187300  1
  H  5791  1  0.39125500  0.80935800  0.97571800  1
  H  5792  1  0.39345000  0.81240600  0.01234900  1
  H  5795  1  0.31566300  0.73779700  0.98470200  1
  H  5796  1  0.33671300  0.75911800  0.96493000  1
  H  5798  1  0.36457600  0.76878100  0.94808000  1
  H  5800  1  0.37044200  0.81105800  0.04401500  1
  H  5810  1  0.64107900  0.24089400  0.90851800  1
  H  5811  1  0.64307200  0.20469200  0.90482000  1
  H  5814  1  0.56472400  0.23088600  0.97888000  1
  H  5815  1  0.58641800  0.25089000  0.95856400  1
  H  5817  1  0.61445500  0.26798800  0.94927200  1
  H  5819  1  0.64237300  0.17292100  0.92174100  1
  H  5829  1  0.14119800  0.69564400  0.58359100  1
  H  5830  1  0.14297200  0.73186000  0.58743900  1
  H  5833  1  0.06507010  0.70531200  0.51317800  1
  H  5834  1  0.08674610  0.68538800  0.53349600  1
  H  5836  1  0.11435500  0.66812600  0.54307100  1
  H  5838  1  0.14172000  0.76418300  0.57114500  1
  H  5848  1  0.99923400  0.24090900  0.58356900  1
  H  5849  1  0.99710300  0.20474400  0.58756500  1
  H  5852  1  0.07540010  0.23059700  0.51313600  1
  H  5853  1  0.05382910  0.25064700  0.53343800  1
  H  5855  1  0.02612710  0.26799000  0.54290900  1
  H  5857  1  0.99747800  0.17280400  0.57005200  1
  H  5867  1  0.49913800  0.69578300  0.90852000  1
  H  5868  1  0.49740800  0.73206600  0.90499100  1
  H  5871  1  0.57538400  0.70480700  0.97893400  1
  H  5872  1  0.55367100  0.68501600  0.95856500  1
  H  5874  1  0.52590400  0.66790400  0.94902600  1
  H  5876  1  0.49893700  0.76410900  0.92090800  1
  H  5886  1  0.24926900  0.62829900  0.47419200  1
  H  5887  1  0.24746700  0.62512000  0.51056900  1
  H  5890  1  0.32447800  0.70018000  0.48271600  1
  H  5891  1  0.30356200  0.67873000  0.46301100  1
  H  5893  1  0.27574100  0.66896500  0.44620600  1
  H  5895  1  0.24894000  0.64137600  0.54256600  1
  H  5905  1  0.74930400  0.30726900  0.01909000  1
  H  5906  1  0.74715700  0.31099600  0.98285900  1
  H  5909  1  0.82485800  0.23591900  0.00920900  1
  H  5910  1  0.80377300  0.25691600  0.02915600  1
  H  5912  1  0.77597400  0.26648700  0.04624800  1
  H  5914  1  0.74762200  0.29367800  0.95105500  1
  H  5924  1  0.39134300  0.62829700  0.01830500  1
  H  5925  1  0.39337800  0.62520500  0.98166300  1
  H  5928  1  0.31563400  0.69977700  0.00946000  1
  H  5929  1  0.33677000  0.67851600  0.02919600  1
  H  5931  1  0.36463500  0.66894300  0.04606000  1
  H  5933  1  0.36998200  0.62659500  0.95025700  1
  H  5943  1  0.89111800  0.30729100  0.47394500  1
  H  5944  1  0.89294500  0.31079400  0.51023900  1
  H  5947  1  0.81573800  0.23576800  0.48315700  1
  H  5948  1  0.83681200  0.25693900  0.46332500  1
  H  5950  1  0.86447000  0.26669600  0.44629300  1
  H  5952  1  0.89163800  0.29436800  0.54239500  1
  C  1  1  0.89609800  0.58133600  0.09241500  1
  C  2  1  0.88589300  0.58144100  0.11207500  1
  C  3  1  0.88018200  0.56293800  0.12296100  1
  C  4  1  0.88658800  0.54364100  0.11464000  1
  C  5  1  0.89847300  0.54265800  0.09605700  1
  C  6  1  0.90262200  0.56136000  0.08464700  1
  C  9  1  0.90046600  0.60109800  0.08178900  1
  C  10  1  0.88637800  0.61881700  0.08004000  1
  C  11  1  0.89285400  0.63803000  0.07011500  1
  C  12  1  0.91331800  0.63807000  0.06072200  1
  C  13  1  0.92721500  0.62108200  0.06183500  1
  C  14  1  0.92149300  0.60407200  0.07449200  1
  C  25  1  0.39596300  0.35422700  0.39977600  1
  C  26  1  0.38582100  0.35414300  0.38006100  1
  C  27  1  0.38005900  0.37263300  0.36921500  1
  C  28  1  0.38631400  0.39181700  0.37778900  1
  C  29  1  0.39753600  0.39298100  0.39653200  1
  C  30  1  0.40234200  0.37410700  0.40783300  1
  C  33  1  0.40047500  0.33454300  0.41033600  1
  C  34  1  0.38636500  0.31687900  0.41210800  1
  C  35  1  0.39285700  0.29769800  0.42202600  1
  C  36  1  0.41332400  0.29763700  0.43141400  1
  C  37  1  0.42723600  0.31461200  0.43029200  1
  C  38  1  0.42151700  0.33161300  0.41762500  1
  C  49  1  0.14597000  0.12346500  0.86163900  1
  C  50  1  0.13580200  0.10377400  0.86178200  1
  C  51  1  0.13006000  0.09292100  0.84330300  1
  C  52  1  0.13631100  0.10130200  0.82399400  1
  C  53  1  0.14808200  0.11990000  0.82304500  1
  C  54  1  0.15229200  0.13139000  0.84165300  1
  C  57  1  0.15048100  0.13402500  0.88133200  1
  C  58  1  0.13637600  0.13581100  0.89899700  1
  C  59  1  0.14288800  0.14576300  0.91811700  1
  C  60  1  0.16336700  0.15511800  0.91814700  1
  C  61  1  0.17726100  0.15398700  0.90118900  1
  C  62  1  0.17152200  0.14132200  0.88424300  1
  C  73  1  0.64598700  0.81575000  0.63473100  1
  C  74  1  0.63589000  0.83547000  0.63448000  1
  C  75  1  0.63005600  0.84626200  0.65290000  1
  C  76  1  0.63588200  0.83758900  0.67219200  1
  C  77  1  0.64762100  0.81899100  0.67376100  1
  C  78  1  0.65238500  0.80791100  0.65487700  1
  C  81  1  0.65048800  0.80546700  0.61480600  1
  C  82  1  0.63638900  0.80377100  0.59706700  1
  C  83  1  0.64284000  0.79385200  0.57787300  1
  C  84  1  0.66330400  0.78445900  0.57785400  1
  C  85  1  0.67723000  0.78560300  0.59481100  1
  C  86  1  0.67152400  0.79824100  0.61179600  1
  C  97  1  0.46634700  0.58083000  0.40035200  1
  C  98  1  0.47644900  0.58088300  0.38066100  1
  C  99  1  0.48234400  0.56240500  0.36998300  1
  C  100  1  0.47679100  0.54312300  0.37901800  1
  C  101  1  0.46546500  0.54171100  0.39804700  1
  C  102  1  0.46026400  0.56075500  0.40851700  1
  C  105  1  0.46209900  0.60084800  0.41058400  1
  C  106  1  0.47621100  0.61862600  0.41212900  1
  C  107  1  0.46982600  0.63790500  0.42197100  1
  C  108  1  0.44937800  0.63799000  0.43138000  1
  C  109  1  0.43541700  0.62105900  0.43027000  1
  C  110  1  0.44107200  0.60398800  0.41773000  1
  C  121  1  0.96634400  0.35486800  0.09180900  1
  C  122  1  0.97644600  0.35480400  0.11149700  1
  C  123  1  0.98234300  0.37328100  0.12217100  1
  C  124  1  0.97678300  0.39256600  0.11313700  1
  C  125  1  0.96544500  0.39399200  0.09411700  1
  C  126  1  0.96026200  0.37494300  0.08364100  1
  C  129  1  0.96208800  0.33486200  0.08158000  1
  C  130  1  0.97620700  0.31710000  0.08002700  1
  C  131  1  0.96978500  0.29786100  0.07016200  1
  C  132  1  0.94933100  0.29775800  0.06077500  1
  C  133  1  0.93539100  0.31468100  0.06187200  1
  C  134  1  0.94105800  0.33173200  0.07442800  1
  C  145  1  0.21635900  0.12407300  0.63507000  1
  C  146  1  0.22643200  0.10437300  0.63504700  1
  C  147  1  0.23235000  0.09367500  0.65354500  1
  C  148  1  0.22682400  0.10269300  0.67281300  1
  C  149  1  0.21551600  0.12173000  0.67419300  1
  C  150  1  0.21029700  0.13221800  0.65512500  1
  C  153  1  0.21211000  0.13432200  0.61503400  1
  C  154  1  0.22621400  0.13587500  0.59724600  1
  C  155  1  0.21981400  0.14572600  0.57793800  1
  C  156  1  0.19935400  0.15512200  0.57784300  1
  C  157  1  0.18541200  0.15400400  0.59479200  1
  C  158  1  0.19108000  0.14145700  0.61189500  1
  C  169  1  0.71634500  0.81552500  0.86097200  1
  C  170  1  0.72644000  0.83521400  0.86100400  1
  C  171  1  0.73239700  0.84588200  0.84250500  1
  C  172  1  0.72683000  0.83689100  0.82323100  1
  C  173  1  0.71548100  0.81787500  0.82183800  1
  C  174  1  0.71028600  0.80737900  0.84091500  1
  C  177  1  0.71209100  0.80527800  0.88100100  1
  C  178  1  0.72621000  0.80372900  0.89877100  1
  C  179  1  0.71980600  0.79388600  0.91806700  1
  C  180  1  0.69935900  0.78446800  0.91818800  1
  C  181  1  0.68541400  0.78554800  0.90124300  1
  C  182  1  0.69106600  0.79811900  0.88414700  1
  C  193  1  0.96638200  0.35411600  0.90199500  1
  C  194  1  0.97672100  0.35406600  0.88232600  1
  C  195  1  0.98252600  0.37253800  0.87141100  1
  C  196  1  0.97628500  0.39179800  0.87980500  1
  C  197  1  0.96444300  0.39267000  0.89839200  1
  C  198  1  0.96013300  0.37406300  0.90996500  1
  C  201  1  0.96151300  0.33427900  0.91225100  1
  C  202  1  0.97585200  0.31671700  0.91375100  1
  C  203  1  0.96956500  0.29730000  0.92322400  1
  C  204  1  0.94860900  0.29634000  0.93109400  1
  C  205  1  0.93396100  0.31255900  0.92939800  1
  C  206  1  0.94049800  0.33136600  0.91996500  1
  C  217  1  0.46635000  0.58128600  0.58989900  1
  C  218  1  0.47671900  0.58153000  0.60956100  1
  C  219  1  0.48268600  0.56318600  0.62049900  1
  C  220  1  0.47667300  0.54390700  0.61207700  1
  C  221  1  0.46496400  0.54232400  0.59344600  1
  C  222  1  0.46012900  0.56111700  0.58206300  1
  C  225  1  0.46151700  0.60132500  0.57980300  1
  C  226  1  0.47584600  0.61897900  0.57837600  1
  C  227  1  0.46963000  0.63848000  0.56891700  1
  C  228  1  0.44868400  0.63938700  0.56099800  1
  C  229  1  0.43402800  0.62315000  0.56267600  1
  C  230  1  0.44051700  0.60431900  0.57211500  1
  C  241  1  0.71670400  0.81198900  0.13297900  1
  C  242  1  0.72684700  0.83165900  0.13261100  1
  C  243  1  0.73275400  0.84244100  0.15099200  1
  C  244  1  0.72689300  0.83385800  0.17030500  1
  C  245  1  0.71513900  0.81527700  0.17192700  1
  C  246  1  0.71037100  0.80409500  0.15311500  1
  C  249  1  0.71199800  0.80195500  0.11307400  1
  C  250  1  0.72633800  0.79957300  0.09558000  1
  C  251  1  0.71952300  0.78952500  0.07660500  1
  C  252  1  0.69836900  0.78217300  0.07611100  1
  C  253  1  0.68481900  0.78252000  0.09324500  1
  C  254  1  0.69090600  0.79468800  0.11037900  1
  C  265  1  0.21668700  0.12351600  0.35970300  1
  C  266  1  0.22693800  0.10383400  0.35985400  1
  C  267  1  0.23266800  0.09291300  0.34138500  1
  C  268  1  0.22640600  0.10127400  0.32207100  1
  C  269  1  0.21467000  0.11990700  0.32108800  1
  C  270  1  0.21041400  0.13139300  0.33967900  1
  C  273  1  0.21192900  0.13410000  0.37937600  1
  C  274  1  0.22591700  0.13625900  0.39706200  1
  C  275  1  0.21874700  0.14556800  0.41631200  1
  C  276  1  0.19825700  0.15431500  0.41665100  1
  C  277  1  0.18486600  0.15380100  0.39927900  1
  C  278  1  0.19087400  0.14142800  0.38215300  1
  C  289  1  0.39670800  0.35471900  0.58957200  1
  C  290  1  0.38639400  0.35472600  0.60921800  1
  C  291  1  0.38042000  0.37317500  0.61991000  1
  C  292  1  0.38604300  0.39243000  0.61086500  1
  C  293  1  0.39747100  0.39384500  0.59186100  1
  C  294  1  0.40273500  0.37478300  0.58133500  1
  C  297  1  0.40130900  0.33456900  0.57965800  1
  C  298  1  0.38695000  0.31691200  0.57837200  1
  C  299  1  0.39313200  0.29739700  0.56897500  1
  C  300  1  0.41407800  0.29642300  0.56109200  1
  C  301  1  0.42875000  0.31261800  0.56271700  1
  C  302  1  0.42229600  0.33147700  0.57203000  1
  C  313  1  0.89668500  0.58097400  0.90256500  1
  C  314  1  0.88635000  0.58095200  0.88291800  1
  C  315  1  0.88037000  0.56250200  0.87222300  1
  C  316  1  0.88601600  0.54326200  0.88128000  1
  C  317  1  0.89743100  0.54186800  0.90029300  1
  C  318  1  0.90272200  0.56091700  0.91080900  1
  C  321  1  0.90128600  0.60112500  0.91249500  1
  C  322  1  0.88693600  0.61879800  0.91378200  1
  C  323  1  0.89307900  0.63834300  0.92316600  1
  C  324  1  0.91402400  0.63929500  0.93105400  1
  C  325  1  0.92874500  0.62312300  0.92935900  1
  C  326  1  0.92228100  0.60423000  0.92010200  1
  C  337  1  0.64637700  0.81158700  0.35896500  1
  C  338  1  0.63619800  0.83125700  0.35904700  1
  C  339  1  0.63020300  0.84196800  0.34056800  1
  C  340  1  0.63583700  0.83301900  0.32128200  1
  C  341  1  0.64718700  0.81400000  0.31985300  1
  C  342  1  0.65239900  0.80347400  0.33889800  1
  C  345  1  0.65085400  0.80127600  0.37891500  1
  C  346  1  0.63680800  0.79942900  0.39666800  1
  C  347  1  0.64394300  0.79044100  0.41612200  1
  C  348  1  0.66440300  0.78158500  0.41652900  1
  C  349  1  0.67779200  0.78175900  0.39915200  1
  C  350  1  0.67189600  0.79408200  0.38192400  1
  C  361  1  0.14664800  0.12394100  0.13348000  1
  C  362  1  0.13638800  0.10432600  0.13327500  1
  C  363  1  0.13029400  0.09365800  0.15172300  1
  C  364  1  0.13580200  0.10263800  0.17101800  1
  C  365  1  0.14711300  0.12168000  0.17245100  1
  C  366  1  0.15249300  0.13217800  0.15348500  1
  C  369  1  0.15129800  0.13424500  0.11371600  1
  C  370  1  0.13703500  0.13638000  0.09628100  1
  C  371  1  0.14420000  0.14566600  0.07712200  1
  C  372  1  0.16480800  0.15398200  0.07611200  1
  C  373  1  0.17830300  0.15360700  0.09335200  1
  C  374  1  0.17237600  0.14138200  0.11066200  1
  C  385  1  0.39640900  0.08317900  0.59372700  1
  C  386  1  0.38703400  0.08344800  0.61371000  1
  C  387  1  0.37771400  0.06545100  0.62267100  1
  C  388  1  0.38441400  0.04590000  0.61520300  1
  C  389  1  0.39737000  0.04461700  0.59730100  1
  C  390  1  0.40214400  0.06311900  0.58577700  1
  C  393  1  0.40158500  0.10280700  0.58360200  1
  C  394  1  0.38736000  0.12019600  0.58111000  1
  C  395  1  0.39459300  0.13926900  0.57175000  1
  C  396  1  0.41523600  0.14015800  0.56360400  1
  C  397  1  0.42865400  0.12286200  0.56421600  1
  C  398  1  0.42268400  0.10561200  0.57649000  1
  C  409  1  0.89612200  0.85611900  0.90252200  1
  C  410  1  0.88694700  0.85596200  0.88244000  1
  C  411  1  0.87769400  0.87399200  0.87342900  1
  C  412  1  0.88438700  0.89354200  0.88088300  1
  C  413  1  0.89745800  0.89474200  0.89871000  1
  C  414  1  0.90201500  0.87623200  0.91033000  1
  C  417  1  0.90115700  0.83634800  0.91269100  1
  C  418  1  0.88714200  0.81868500  0.91494000  1
  C  419  1  0.89430900  0.79935700  0.92403900  1
  C  420  1  0.91482600  0.79895500  0.93267900  1
  C  421  1  0.92815300  0.81639100  0.93220300  1
  C  422  1  0.92221800  0.83357000  0.91983000  1
  C  433  1  0.64648300  0.62251400  0.35988200  1
  C  434  1  0.63710000  0.60248100  0.35999400  1
  C  435  1  0.62788200  0.59347300  0.34197800  1
  C  436  1  0.63467900  0.60100100  0.32246100  1
  C  437  1  0.64780200  0.61883100  0.32126500  1
  C  438  1  0.65240900  0.63043000  0.33978700  1
  C  441  1  0.65155800  0.63236400  0.37980900  1
  C  442  1  0.63720100  0.63390400  0.39737900  1
  C  443  1  0.64340300  0.64319200  0.41685600  1
  C  444  1  0.66435900  0.65099900  0.41781100  1
  C  445  1  0.67898500  0.64934200  0.40154100  1
  C  446  1  0.67256200  0.63994300  0.38271800  1
  C  457  1  0.14649400  0.31315700  0.13229600  1
  C  458  1  0.13709800  0.33318500  0.13217100  1
  C  459  1  0.12788200  0.34218600  0.15018400  1
  C  460  1  0.13469300  0.33464900  0.16969100  1
  C  461  1  0.14774300  0.31677100  0.17093500  1
  C  462  1  0.15242800  0.30522400  0.15239000  1
  C  465  1  0.15157300  0.30332200  0.11237900  1
  C  466  1  0.13720800  0.30176900  0.09482900  1
  C  467  1  0.14345800  0.29246800  0.07539100  1
  C  468  1  0.16442900  0.28471500  0.07440100  1
  C  469  1  0.17904400  0.28639000  0.09065600  1
  C  470  1  0.17258500  0.29576500  0.10947600  1
  C  481  1  0.96592500  0.08248100  0.90290300  1
  C  482  1  0.97534300  0.08276400  0.88296300  1
  C  483  1  0.98455600  0.06478000  0.87406700  1
  C  484  1  0.97851000  0.04519900  0.88217900  1
  C  485  1  0.96608500  0.04346700  0.90057900  1
  C  486  1  0.96044900  0.06234300  0.91114300  1
  C  489  1  0.96100500  0.10232000  0.91277700  1
  C  490  1  0.97528200  0.11972500  0.91501300  1
  C  491  1  0.96817100  0.13891600  0.92409400  1
  C  492  1  0.94753300  0.13997500  0.93228900  1
  C  493  1  0.93405700  0.12269900  0.93188100  1
  C  494  1  0.93991600  0.10538400  0.91970400  1
  C  505  1  0.46615200  0.85664800  0.59297000  1
  C  506  1  0.47541100  0.85657900  0.61298800  1
  C  507  1  0.48451300  0.87462800  0.62192700  1
  C  508  1  0.47845400  0.89419600  0.61380600  1
  C  509  1  0.46601300  0.89587500  0.59542600  1
  C  510  1  0.46050200  0.87689000  0.58487700  1
  C  513  1  0.46141500  0.83649100  0.58317400  1
  C  514  1  0.47543500  0.81868200  0.58103700  1
  C  515  1  0.46838000  0.79932200  0.57173800  1
  C  516  1  0.44787700  0.79897600  0.56315300  1
  C  517  1  0.43444300  0.81629100  0.56393300  1
  C  518  1  0.44035100  0.83351500  0.57618600  1
  C  529  1  0.71587700  0.62311500  0.13292800  1
  C  530  1  0.72530000  0.60313400  0.13290600  1
  C  531  1  0.73442800  0.59415100  0.15093600  1
  C  532  1  0.72832600  0.60230500  0.17044700  1
  C  533  1  0.71585000  0.62070600  0.17207000  1
  C  534  1  0.71024900  0.63133000  0.15307000  1
  C  537  1  0.71101800  0.63263000  0.11268700  1
  C  538  1  0.72539100  0.63396500  0.09504200  1
  C  539  1  0.71923400  0.64315100  0.07544800  1
  C  540  1  0.69828300  0.65094500  0.07439100  1
  C  541  1  0.68357900  0.64922200  0.09059900  1
  C  542  1  0.68999500  0.63999000  0.10955100  1
  C  553  1  0.21587900  0.31255100  0.35924900  1
  C  554  1  0.22529900  0.33253300  0.35925800  1
  C  555  1  0.23442600  0.34151500  0.34122400  1
  C  556  1  0.22832200  0.33333333  0.32171500  1
  C  557  1  0.21584300  0.31496300  0.32009200  1
  C  558  1  0.21024700  0.30434200  0.33910000  1
  C  561  1  0.21102800  0.30303800  0.37950800  1
  C  562  1  0.22538700  0.30170000  0.39717400  1
  C  563  1  0.21923400  0.29250300  0.41678100  1
  C  564  1  0.19829100  0.28467600  0.41780100  1
  C  565  1  0.18363200  0.28634400  0.40155200  1
  C  566  1  0.19001700  0.29565300  0.38263200  1
  C  577  1  0.46667200  0.85595100  0.40476900  1
  C  578  1  0.47692500  0.85566200  0.38512600  1
  C  579  1  0.48580600  0.87356600  0.37559600  1
  C  580  1  0.47876500  0.89309400  0.38284900  1
  C  581  1  0.46585300  0.89419800  0.40079800  1
  C  582  1  0.46085800  0.87595800  0.41264600  1
  C  585  1  0.46105600  0.83622000  0.41457200  1
  C  586  1  0.47538700  0.81876400  0.41644400  1
  C  587  1  0.46836200  0.79912700  0.42481100  1
  C  588  1  0.44737400  0.79780400  0.43192900  1
  C  589  1  0.43321200  0.81449400  0.43103300  1
  C  590  1  0.44000700  0.83349700  0.42214600  1
  C  601  1  0.96593600  0.08320900  0.09147900  1
  C  602  1  0.97552300  0.08350600  0.11142800  1
  C  603  1  0.98489300  0.06555800  0.12047000  1
  C  604  1  0.97815400  0.04601900  0.11302100  1
  C  605  1  0.96511200  0.04474700  0.09513500  1
  C  606  1  0.96028900  0.06317600  0.08348200  1
  C  609  1  0.96042700  0.10286600  0.08157400  1
  C  610  1  0.97491800  0.12008500  0.07939600  1
  C  611  1  0.96792600  0.13944400  0.07066900  1
  C  612  1  0.94681400  0.14144600  0.06428900  1
  C  613  1  0.93256100  0.12487400  0.06532500  1
  C  614  1  0.93938300  0.10573900  0.07400900  1
  C  625  1  0.21646300  0.31282100  0.63416500  1
  C  626  1  0.22655300  0.33250500  0.63378500  1
  C  627  1  0.23558200  0.34187300  0.65165300  1
  C  628  1  0.22845500  0.33481800  0.67127100  1
  C  629  1  0.21535800  0.31694300  0.67272000  1
  C  630  1  0.21051100  0.30518600  0.65434000  1
  C  633  1  0.21087200  0.30308000  0.61432500  1
  C  634  1  0.22510600  0.30100500  0.59677100  1
  C  635  1  0.21808700  0.29251700  0.57717700  1
  C  636  1  0.19705100  0.28569700  0.57584700  1
  C  637  1  0.18290700  0.28687400  0.59253500  1
  C  638  1  0.18977500  0.29568900  0.61154700  1
  C  649  1  0.71643600  0.62608000  0.86160500  1
  C  650  1  0.72618000  0.60620600  0.86184600  1
  C  651  1  0.73520100  0.59701200  0.84383100  1
  C  652  1  0.72824400  0.60451100  0.82434400  1
  C  653  1  0.71512800  0.62236500  0.82316300  1
  C  654  1  0.71052900  0.63406000  0.84157400  1
  C  657  1  0.71111700  0.63577100  0.88142500  1
  C  658  1  0.72580400  0.63792700  0.89864500  1
  C  659  1  0.71922900  0.64725900  0.91794900  1
  C  660  1  0.69764700  0.65288600  0.91957200  1
  C  661  1  0.68317400  0.65199100  0.90319500  1
  C  662  1  0.69010300  0.64352900  0.88412600  1
  C  673  1  0.89666500  0.85657900  0.09052700  1
  C  674  1  0.88652500  0.85628600  0.11015300  1
  C  675  1  0.87764800  0.87418700  0.11947100  1
  C  676  1  0.88417300  0.89384200  0.11177200  1
  C  677  1  0.89671400  0.89571000  0.09338000  1
  C  678  1  0.90239300  0.87683500  0.08262600  1
  C  681  1  0.90195400  0.83641200  0.08107400  1
  C  682  1  0.88770200  0.81876100  0.07921600  1
  C  683  1  0.89463000  0.79905200  0.07082600  1
  C  684  1  0.91564500  0.79766000  0.06397000  1
  C  685  1  0.92983500  0.81431700  0.06511500  1
  C  686  1  0.92303500  0.83341400  0.07381100  1
  C  697  1  0.39667600  0.08273900  0.40488300  1
  C  698  1  0.38688100  0.08289200  0.38506300  1
  C  699  1  0.37802300  0.06486400  0.37589300  1
  C  700  1  0.38425400  0.04537200  0.38409200  1
  C  701  1  0.39666600  0.04372800  0.40255600  1
  C  702  1  0.40231800  0.06262900  0.41317300  1
  C  705  1  0.40172200  0.10288400  0.41425500  1
  C  706  1  0.38703400  0.12021800  0.41621500  1
  C  707  1  0.39353700  0.13961600  0.42551700  1
  C  708  1  0.41510700  0.14128000  0.43114500  1
  C  709  1  0.42956000  0.12488500  0.43032200  1
  C  710  1  0.42271000  0.10576800  0.42191700  1
  C  721  1  0.14715300  0.31266500  0.86082800  1
  C  722  1  0.13750400  0.33255700  0.86103600  1
  C  723  1  0.12825200  0.34154300  0.84307000  1
  C  724  1  0.13432400  0.33342600  0.82353200  1
  C  725  1  0.14677000  0.31500400  0.82184600  1
  C  726  1  0.15253900  0.30436900  0.84073500  1
  C  729  1  0.15240200  0.30307400  0.88079900  1
  C  730  1  0.13789100  0.30112500  0.89810900  1
  C  731  1  0.14479500  0.29248400  0.91757600  1
  C  732  1  0.16588100  0.28605800  0.91963400  1
  C  733  1  0.18017300  0.28704000  0.90309000  1
  C  734  1  0.17342800  0.29561700  0.88387800  1
  C  745  1  0.64644900  0.62698900  0.63495200  1
  C  746  1  0.63616400  0.60741100  0.63462600  1
  C  747  1  0.62743500  0.59787000  0.65251900  1
  C  748  1  0.63398100  0.60563500  0.67213900  1
  C  749  1  0.64646500  0.62408900  0.67399300  1
  C  750  1  0.65217900  0.63489300  0.65514500  1
  C  753  1  0.65173200  0.63658700  0.61487200  1
  C  754  1  0.63742100  0.63822900  0.59727200  1
  C  755  1  0.64436600  0.64650000  0.57751400  1
  C  756  1  0.66534300  0.65361400  0.57613000  1
  C  757  1  0.67956500  0.65269400  0.59277800  1
  C  758  1  0.67277900  0.64400100  0.61189500  1
  C  769  1  0.95422900  0.61402600  0.97441000  1
  C  770  1  0.94346200  0.59910000  0.98726500  1
  C  771  1  0.94420100  0.60135600  0.00954700  1
  C  772  1  0.95400800  0.61932300  0.01887000  1
  C  773  1  0.96280000  0.63453200  0.00531100  1
  C  774  1  0.96284300  0.63206900  0.98364000  1
  C  775  1  0.93541800  0.58438800  0.02084400  1
  C  777  1  0.92434400  0.56681000  0.99065600  1
  C  784  1  0.95576500  0.61182400  0.95293700  1
  C  786  1  0.95886300  0.62276100  0.03999100  1
  C  788  1  0.45414900  0.32160100  0.51777900  1
  C  789  1  0.44343000  0.33654500  0.50490500  1
  C  790  1  0.44418000  0.33429300  0.48261900  1
  C  791  1  0.45403700  0.31635100  0.47329700  1
  C  792  1  0.46279600  0.30113100  0.48685900  1
  C  793  1  0.46283600  0.30359700  0.50853100  1
  C  794  1  0.43541600  0.35126700  0.47132000  1
  C  796  1  0.42434200  0.36884800  0.50150600  1
  C  803  1  0.45596000  0.32391300  0.53925400  1
  C  805  1  0.45885500  0.31289100  0.45216200  1
  C  807  1  0.20416100  0.24137400  0.89423000  1
  C  808  1  0.19340400  0.22858700  0.87930400  1
  C  809  1  0.19416900  0.20630900  0.88158100  1
  C  810  1  0.20399700  0.19695600  0.89955500  1
  C  811  1  0.21277700  0.21046100  0.91476200  1
  C  812  1  0.21280600  0.23212500  0.91228100  1
  C  813  1  0.18541400  0.19505200  0.86461600  1
  C  815  1  0.17433200  0.22529300  0.84700300  1
  C  822  1  0.20629500  0.26279000  0.89179100  1
  C  824  1  0.20888200  0.17583700  0.90298700  1
  C  826  1  0.70420200  0.69819500  0.60186200  1
  C  827  1  0.69344100  0.71099300  0.61677700  1
  C  828  1  0.69419100  0.73327400  0.61448600  1
  C  829  1  0.70400300  0.74262800  0.59650300  1
  C  830  1  0.71279800  0.72911000  0.58131100  1
  C  831  1  0.71283700  0.70744000  0.58380500  1
  C  832  1  0.68543400  0.74452700  0.63145100  1
  C  834  1  0.67433800  0.71429800  0.64906300  1
  C  841  1  0.70596800  0.67678500  0.60421200  1
  C  843  1  0.70886600  0.76375600  0.59305300  1
  C  845  1  0.40856200  0.61401300  0.51779300  1
  C  846  1  0.41928600  0.59909200  0.50494500  1
  C  847  1  0.41851300  0.60137200  0.48265400  1
  C  848  1  0.40864000  0.61931200  0.47328300  1
  C  849  1  0.39990200  0.63452100  0.48680400  1
  C  850  1  0.39988900  0.63203500  0.50848400  1
  C  851  1  0.42724200  0.58440800  0.47138500  1
  C  853  1  0.43838300  0.56679800  0.50159200  1
  C  860  1  0.40687900  0.61179300  0.53933500  1
  C  862  1  0.40381400  0.62278900  0.45214000  1
  C  864  1  0.90852700  0.32165100  0.97440700  1
  C  865  1  0.91925800  0.33657400  0.98723400  1
  C  866  1  0.91849600  0.33428800  0.00951900  1
  C  867  1  0.90867600  0.31631700  0.01888500  1
  C  868  1  0.89989200  0.30112500  0.00536500  1
  C  869  1  0.89987000  0.30361300  0.98368600  1
  C  870  1  0.92727500  0.35123000  0.02078100  1
  C  872  1  0.93835900  0.36886700  0.99056800  1
  C  879  1  0.90690500  0.32393600  0.95293800  1
  C  881  1  0.90380300  0.31286200  0.04001300  1
  C  883  1  0.15843200  0.24137400  0.60183400  1
  C  884  1  0.16923800  0.22858300  0.61676000  1
  C  885  1  0.16851500  0.20631200  0.61449200  1
  C  886  1  0.15870500  0.19697100  0.59653100  1
  C  887  1  0.14989500  0.21051000  0.58131900  1
  C  888  1  0.14982900  0.23216900  0.58377700  1
  C  889  1  0.17729000  0.19504600  0.63146700  1
  C  891  1  0.18836100  0.22523200  0.64904300  1
  C  898  1  0.15660600  0.26276200  0.60416700  1
  C  900  1  0.15382300  0.17585700  0.59310000  1
  C  902  1  0.65853700  0.69807500  0.89421500  1
  C  903  1  0.66926900  0.71095600  0.87929200  1
  C  904  1  0.66852000  0.73323400  0.88156600  1
  C  905  1  0.65867700  0.74254700  0.89951600  1
  C  906  1  0.64991900  0.72897400  0.91472800  1
  C  907  1  0.64989200  0.70729800  0.91224800  1
  C  908  1  0.67729500  0.74454100  0.86461300  1
  C  910  1  0.68837200  0.71437800  0.84700000  1
  C  917  1  0.65696200  0.67658800  0.89194600  1
  C  919  1  0.65382200  0.76367300  0.90298200  1
  C  921  1  0.65845200  0.69430100  0.09990800  1
  C  922  1  0.66924800  0.70708400  0.11482000  1
  C  923  1  0.66850800  0.72937100  0.11255100  1
  C  924  1  0.65871900  0.73877600  0.09457900  1
  C  925  1  0.64992400  0.72526000  0.07937400  1
  C  926  1  0.64986000  0.70358000  0.08184700  1
  C  927  1  0.67727100  0.74060000  0.12952800  1
  C  929  1  0.68836700  0.71036000  0.14710900  1
  C  936  1  0.65684500  0.67285000  0.10211800  1
  C  938  1  0.65368300  0.75992000  0.09129300  1
  C  940  1  0.15853300  0.24142400  0.39228400  1
  C  941  1  0.16927600  0.22861100  0.37736000  1
  C  942  1  0.16851100  0.20632300  0.37963600  1
  C  943  1  0.15863700  0.19697000  0.39759500  1
  C  944  1  0.14991000  0.21048800  0.41281600  1
  C  945  1  0.14986000  0.23215200  0.41031400  1
  C  946  1  0.17726600  0.19508000  0.36265900  1
  C  948  1  0.18836700  0.22530900  0.34506000  1
  C  955  1  0.15667600  0.26287700  0.38997900  1
  C  957  1  0.15359000  0.17586400  0.40096900  1
  C  959  1  0.70416800  0.69418100  0.39229800  1
  C  960  1  0.69341100  0.70703200  0.37736400  1
  C  961  1  0.69417600  0.72931200  0.37961900  1
  C  962  1  0.70400500  0.73865400  0.39756800  1
  C  963  1  0.71277400  0.72509900  0.41278400  1
  C  964  1  0.71281900  0.70343500  0.41032000  1
  C  965  1  0.68540800  0.74059400  0.36264600  1
  C  967  1  0.67433300  0.71042900  0.34505400  1
  C  974  1  0.70607300  0.67269200  0.39002600  1
  C  976  1  0.70910400  0.75975400  0.40087500  1
  C  978  1  0.20418700  0.24147000  0.09985000  1
  C  979  1  0.19342300  0.22862600  0.11477700  1
  C  980  1  0.19419000  0.20634700  0.11251800  1
  C  981  1  0.20403000  0.19700600  0.09456200  1
  C  982  1  0.21277100  0.21058200  0.07934000  1
  C  983  1  0.21283300  0.23224100  0.08182000  1
  C  984  1  0.18542400  0.19509600  0.12951600  1
  C  986  1  0.17433900  0.22525900  0.14708800  1
  C  993  1  0.20607600  0.26291600  0.10217300  1
  C  995  1  0.20926200  0.17592600  0.09125400  1
  C  997  1  0.45407000  0.11601900  0.47626900  1
  C  998  1  0.44337800  0.10108500  0.48916800  1
  C  999  1  0.44418300  0.10333800  0.51145200  1
  C  1000  1  0.45411800  0.12126900  0.52074600  1
  C  1001  1  0.46275000  0.13652200  0.50714500  1
  C  1002  1  0.46275500  0.13403600  0.48548000  1
  C  1003  1  0.43545700  0.08633100  0.52273000  1
  C  1005  1  0.42431000  0.06877200  0.49257000  1
  C  1012  1  0.45594200  0.11366100  0.45479100  1
  C  1014  1  0.45945200  0.12459800  0.54179100  1
  C  1016  1  0.95425800  0.82358500  0.01961700  1
  C  1017  1  0.94344700  0.83850800  0.00682300  1
  C  1018  1  0.94420000  0.83624400  0.98455700  1
  C  1019  1  0.95405200  0.81828000  0.97525400  1
  C  1020  1  0.96278200  0.80303400  0.98879700  1
  C  1021  1  0.96285300  0.80551500  0.01044100  1
  C  1022  1  0.93541100  0.85322400  0.97329600  1
  C  1024  1  0.92434100  0.87080300  0.00347900  1
  C  1031  1  0.95610400  0.82591300  0.04098800  1
  C  1033  1  0.95929900  0.81496400  0.95421700  1
  C  1035  1  0.90851900  0.11599200  0.01962900  1
  C  1036  1  0.91929400  0.10108000  0.00685400  1
  C  1037  1  0.91850700  0.10336700  0.98458000  1
  C  1038  1  0.90863300  0.12133000  0.97521600  1
  C  1039  1  0.89992600  0.13655600  0.98874500  1
  C  1040  1  0.89989400  0.13405900  0.01040100  1
  C  1041  1  0.92725900  0.08637000  0.97338700  1
  C  1043  1  0.93838300  0.06877700  0.00358900  1
  C  1050  1  0.90643000  0.11350800  0.04101100  1
  C  1052  1  0.90324100  0.12461000  0.95417400  1
  C  1054  1  0.40857000  0.82361600  0.47634000  1
  C  1055  1  0.41931000  0.83852200  0.48917100  1
  C  1056  1  0.41851300  0.83621700  0.51144700  1
  C  1057  1  0.40861800  0.81825500  0.52076800  1
  C  1058  1  0.39992900  0.80303400  0.50723800  1
  C  1059  1  0.39990000  0.80556800  0.48558300  1
  C  1060  1  0.42726500  0.85317200  0.52270200  1
  C  1062  1  0.43837700  0.87082900  0.49252000  1
  C  1069  1  0.40663500  0.82598500  0.45487600  1
  C  1071  1  0.40337500  0.81485600  0.54181200  1
  C  1073  1  0.92310300  0.48983300  0.08988700  1
  C  1074  1  0.94078700  0.48397800  0.07707200  1
  C  1075  1  0.95047600  0.46350500  0.07827600  1
  C  1076  1  0.94217300  0.44792200  0.09228300  1
  C  1077  1  0.92429800  0.45424200  0.10447900  1
  C  1078  1  0.91503200  0.47424900  0.10334700  1
  C  1079  1  0.96822700  0.46047000  0.06479600  1
  C  1081  1  0.96505200  0.49418600  0.05016700  1
  C  1088  1  0.90915500  0.50556700  0.08256600  1
  C  1090  1  0.94994100  0.42754400  0.09727700  1
  C  1092  1  0.42307100  0.44611400  0.40228900  1
  C  1093  1  0.44071000  0.45195700  0.41525800  1
  C  1094  1  0.45041000  0.47239000  0.41404100  1
  C  1095  1  0.44216600  0.48789200  0.39990400  1
  C  1096  1  0.42425600  0.48165400  0.38769700  1
  C  1097  1  0.41491800  0.46166700  0.38884400  1
  C  1098  1  0.46827400  0.47529500  0.42741500  1
  C  1100  1  0.46515700  0.44157700  0.44203800  1
  C  1107  1  0.41020900  0.42909900  0.40964900  1
  C  1109  1  0.45002400  0.50818700  0.39484700  1
  C  1111  1  0.17322100  0.12596300  0.76980900  1
  C  1112  1  0.19077400  0.13894900  0.76394300  1
  C  1113  1  0.20044300  0.13772500  0.74349700  1
  C  1114  1  0.19216000  0.12363800  0.72801300  1
  C  1115  1  0.17425600  0.11142600  0.73432300  1
  C  1116  1  0.16494200  0.11257700  0.75430900  1
  C  1117  1  0.21828700  0.15111800  0.74054400  1
  C  1119  1  0.21516300  0.16571900  0.77422200  1
  C  1126  1  0.16001200  0.13290100  0.78626800  1
  C  1128  1  0.20001700  0.11857500  0.70772300  1
  C  1130  1  0.67238400  0.81269700  0.72634900  1
  C  1131  1  0.69040000  0.80030100  0.73191700  1
  C  1132  1  0.70039600  0.80184000  0.75225800  1
  C  1133  1  0.69221600  0.81587800  0.76783700  1
  C  1134  1  0.67438500  0.82810100  0.76144700  1
  C  1135  1  0.66491000  0.82677100  0.74157100  1
  C  1136  1  0.71824100  0.78849400  0.75530300  1
  C  1138  1  0.71497000  0.77391300  0.72159900  1
  C  1145  1  0.65877100  0.80735300  0.70958000  1
  C  1147  1  0.70000000  0.82094300  0.78821500  1
  C  1149  1  0.93944500  0.44604100  0.90415400  1
  C  1150  1  0.92194100  0.45192000  0.91721400  1
  C  1151  1  0.91228000  0.47237700  0.91598800  1
  C  1152  1  0.92053500  0.48789100  0.90186400  1
  C  1153  1  0.93843300  0.48162500  0.88965400  1
  C  1154  1  0.94774000  0.46163000  0.89082600  1
  C  1155  1  0.89442700  0.47530400  0.92936200  1
  C  1157  1  0.89752400  0.44158900  0.94400300  1
  C  1164  1  0.95255200  0.42949100  0.91112100  1
  C  1166  1  0.91270300  0.50822800  0.89687900  1
  C  1168  1  0.44019400  0.48952500  0.58690800  1
  C  1169  1  0.42210000  0.48393700  0.57466700  1
  C  1170  1  0.41227200  0.46354400  0.57620500  1
  C  1171  1  0.42056200  0.44798300  0.59025700  1
  C  1172  1  0.43838600  0.45442800  0.60247800  1
  C  1173  1  0.44783700  0.47436000  0.60105300  1
  C  1174  1  0.39445300  0.46049800  0.56283500  1
  C  1176  1  0.39755400  0.49421100  0.54815000  1
  C  1183  1  0.45325400  0.50649200  0.58075400  1
  C  1185  1  0.41280100  0.42755200  0.59522700  1
  C  1187  1  0.69030600  0.80872900  0.22443100  1
  C  1188  1  0.67225500  0.79638000  0.22997100  1
  C  1189  1  0.66229300  0.79793300  0.25031400  1
  C  1190  1  0.67049800  0.81198300  0.26587400  1
  C  1191  1  0.68833500  0.82419900  0.25946700  1
  C  1192  1  0.69780200  0.82286000  0.23958400  1
  C  1193  1  0.64445300  0.78458700  0.25336100  1
  C  1195  1  0.64768700  0.76997700  0.21966900  1
  C  1202  1  0.70370800  0.80315400  0.20759700  1
  C  1204  1  0.66271100  0.81705000  0.28624700  1
  C  1206  1  0.18949100  0.12593200  0.26787700  1
  C  1207  1  0.17195100  0.13895600  0.26199200  1
  C  1208  1  0.16226900  0.13773400  0.24155200  1
  C  1209  1  0.17054700  0.12362300  0.22609500  1
  C  1210  1  0.18846300  0.11143000  0.23237500  1
  C  1211  1  0.19776700  0.11259200  0.25235400  1
  C  1212  1  0.14441500  0.15112000  0.23859300  1
  C  1214  1  0.14753600  0.16572200  0.27226500  1
  C  1221  1  0.20265400  0.13289700  0.28434300  1
  C  1223  1  0.16269700  0.11854300  0.20583600  1
  C  1225  1  0.42323200  0.99161900  0.59194300  1
  C  1226  1  0.44077200  0.98573200  0.57895400  1
  C  1227  1  0.45044400  0.96526700  0.58016400  1
  C  1228  1  0.44218400  0.94970000  0.59424900  1
  C  1229  1  0.42429600  0.95598300  0.60645100  1
  C  1230  1  0.41500800  0.97599500  0.60529300  1
  C  1231  1  0.46825500  0.96233800  0.56673000  1
  C  1233  1  0.46510900  0.99605600  0.55210700  1
  C  1240  1  0.40974600  0.00781900  0.58487500  1
  C  1242  1  0.45010300  0.92936400  0.59928700  1
  C  1244  1  0.92329300  0.94799800  0.90402000  1
  C  1245  1  0.94075600  0.95388200  0.91714300  1
  C  1246  1  0.95042500  0.97434100  0.91593700  1
  C  1247  1  0.94218400  0.98985700  0.90178800  1
  C  1248  1  0.92426100  0.98363000  0.88961100  1
  C  1249  1  0.91496600  0.96363000  0.89076200  1
  C  1250  1  0.96826300  0.97725200  0.92934800  1
  C  1252  1  0.96513000  0.94353800  0.94397900  1
  C  1259  1  0.91007800  0.93153400  0.91100900  1
  C  1261  1  0.95011500  0.01014200  0.89672700  1
  C  1263  1  0.67326800  0.62390500  0.26794700  1
  C  1264  1  0.69082300  0.63687600  0.26204600  1
  C  1265  1  0.70046100  0.63568000  0.24156700  1
  C  1266  1  0.69218900  0.62162800  0.22603000  1
  C  1267  1  0.67428600  0.60943300  0.23237300  1
  C  1268  1  0.66497300  0.61059400  0.25238600  1
  C  1269  1  0.71826200  0.64912500  0.23859100  1
  C  1271  1  0.71513300  0.66373800  0.27226000  1
  C  1278  1  0.65982600  0.63108000  0.28415600  1
  C  1280  1  0.70009100  0.61666500  0.20566900  1
  C  1282  1  0.17320500  0.31168500  0.22415800  1
  C  1283  1  0.19082000  0.29880500  0.23009000  1
  C  1284  1  0.20047100  0.30001100  0.25056500  1
  C  1285  1  0.19219800  0.31404800  0.26611100  1
  C  1286  1  0.17430000  0.32623300  0.25975000  1
  C  1287  1  0.16499500  0.32504200  0.23973400  1
  C  1288  1  0.21826000  0.28655700  0.25355400  1
  C  1290  1  0.21512800  0.27194300  0.21988800  1
  C  1297  1  0.15972300  0.30445700  0.20802100  1
  C  1299  1  0.20008700  0.31900400  0.28648300  1
  C  1301  1  0.43950400  0.94867100  0.40567500  1
  C  1302  1  0.42228700  0.95423200  0.41932600  1
  C  1303  1  0.41239500  0.97454400  0.41813400  1
  C  1304  1  0.42044500  0.99010300  0.40390900  1
  C  1305  1  0.43838600  0.98412800  0.39162500  1
  C  1306  1  0.44794600  0.96432300  0.39264000  1
  C  1307  1  0.39439800  0.97720000  0.43138000  1
  C  1309  1  0.39769800  0.94339900  0.44582400  1
  C  1316  1  0.45135200  0.93074800  0.41059000  1
  C  1318  1  0.41239800  0.01028100  0.39873400  1
  C  1320  1  0.93942500  0.99157300  0.08996200  1
  C  1321  1  0.92188600  0.98572300  0.07697400  1
  C  1322  1  0.91225000  0.96524500  0.07820200  1
  C  1323  1  0.92051400  0.94967600  0.09229600  1
  C  1324  1  0.93840700  0.95598800  0.10449800  1
  C  1325  1  0.94771800  0.97600400  0.10332300  1
  C  1326  1  0.89443700  0.96231800  0.06477400  1
  C  1328  1  0.89754800  0.99603200  0.05012400  1
  C  1335  1  0.95276000  0.00791000  0.08287200  1
  C  1337  1  0.91257700  0.92932000  0.09734800  1
  C  1339  1  0.18944600  0.31179500  0.72625800  1
  C  1340  1  0.17197200  0.29867800  0.73217500  1
  C  1341  1  0.16227500  0.29988600  0.75261800  1
  C  1342  1  0.17051100  0.31399800  0.76812100  1
  C  1343  1  0.18840800  0.32622100  0.76184500  1
  C  1344  1  0.19774100  0.32507000  0.74185700  1
  C  1345  1  0.14440700  0.28650500  0.75553200  1
  C  1347  1  0.14754600  0.27191200  0.72185500  1
  C  1354  1  0.20249900  0.30496000  0.70958600  1
  C  1356  1  0.16256900  0.31903600  0.78840400  1
  C  1358  1  0.68938000  0.62768600  0.76982100  1
  C  1359  1  0.67193200  0.64084000  0.76388900  1
  C  1360  1  0.66226100  0.63965200  0.74342100  1
  C  1361  1  0.67045500  0.62552800  0.72788800  1
  C  1362  1  0.68839100  0.61336000  0.73419400  1
  C  1363  1  0.69771800  0.61449300  0.75419100  1
  C  1364  1  0.64441800  0.65306100  0.74051500  1
  C  1366  1  0.64755400  0.66765400  0.77419500  1
  C  1373  1  0.70254500  0.63464600  0.78631800  1
  C  1375  1  0.66248600  0.62039600  0.70757100  1
  C  1377  1  0.82956200  0.57393400  0.14170400  1
  C  1378  1  0.81656000  0.58644300  0.12837700  1
  C  1379  1  0.79383300  0.58477500  0.12996100  1
  C  1380  1  0.78385700  0.57073700  0.14452300  1
  C  1381  1  0.79777200  0.55793900  0.15643500  1
  C  1382  1  0.82000000  0.55930500  0.15505800  1
  C  1383  1  0.78262100  0.59767900  0.11595000  1
  C  1385  1  0.81337000  0.61259700  0.10164100  1
  C  1392  1  0.85136600  0.57647500  0.14266000  1
  C  1394  1  0.76198400  0.56571600  0.14721800  1
  C  1396  1  0.32957400  0.36176000  0.35048000  1
  C  1397  1  0.31656700  0.34924200  0.36379200  1
  C  1398  1  0.29383800  0.35090000  0.36219800  1
  C  1399  1  0.28386800  0.36497800  0.34767200  1
  C  1400  1  0.29778300  0.37773200  0.33571700  1
  C  1401  1  0.32001000  0.37636400  0.33709900  1
  C  1402  1  0.28262200  0.33799000  0.37619900  1
  C  1404  1  0.31337100  0.32306200  0.39050100  1
  C  1411  1  0.35138000  0.35913400  0.34937900  1
  C  1413  1  0.26198900  0.36995300  0.34493000  1
  C  1415  1  0.07958500  0.07421500  0.85414200  1
  C  1416  1  0.06657700  0.08750800  0.86663000  1
  C  1417  1  0.04385100  0.08592200  0.86495900  1
  C  1418  1  0.03390600  0.07138200  0.85093200  1
  C  1419  1  0.04782400  0.05947800  0.83818300  1
  C  1420  1  0.07004200  0.06087100  0.83954700  1
  C  1421  1  0.03262500  0.09990500  0.87783400  1
  C  1423  1  0.06337800  0.11416600  0.89275600  1
  C  1430  1  0.10138000  0.07308800  0.85679300  1
  C  1432  1  0.01208000  0.06873300  0.84579200  1
  C  1434  1  0.57960800  0.86538100  0.64192300  1
  C  1435  1  0.56657600  0.85209200  0.62943400  1
  C  1436  1  0.54383800  0.85365500  0.63108900  1
  C  1437  1  0.53388400  0.86818800  0.64511800  1
  C  1438  1  0.54780500  0.88009700  0.65786900  1
  C  1439  1  0.57003200  0.87872000  0.65650600  1
  C  1440  1  0.53263700  0.83966400  0.61818100  1
  C  1442  1  0.56339300  0.82540200  0.60332100  1
  C  1449  1  0.60144500  0.86633400  0.63938500  1
  C  1451  1  0.51204700  0.87083900  0.65023500  1
  C  1453  1  0.53290800  0.57387900  0.35058100  1
  C  1454  1  0.54599200  0.58643000  0.36377100  1
  C  1455  1  0.56872700  0.58475500  0.36219800  1
  C  1456  1  0.57865600  0.57062600  0.34775100  1
  C  1457  1  0.56472400  0.55801100  0.33573000  1
  C  1458  1  0.54249700  0.55937800  0.33715100  1
  C  1459  1  0.57994000  0.59760600  0.37622200  1
  C  1461  1  0.54923800  0.61257900  0.39043000  1
  C  1468  1  0.51100800  0.57622000  0.34988700  1
  C  1470  1  0.60045200  0.56528300  0.34530400  1
  C  1472  1  0.03290600  0.36179500  0.14157000  1
  C  1473  1  0.04599300  0.34924700  0.12838100  1
  C  1474  1  0.06872600  0.35092400  0.12996500  1
  C  1475  1  0.07865500  0.36500600  0.14445600  1
  C  1476  1  0.06471500  0.37767200  0.15642000  1
  C  1477  1  0.04248700  0.37631000  0.15498900  1
  C  1478  1  0.07994800  0.33804000  0.11598000  1
  C  1480  1  0.04925100  0.32310500  0.10171800  1
  C  1487  1  0.01100800  0.35945200  0.14226500  1
  C  1489  1  0.10044300  0.37038100  0.14688000  1
  C  1491  1  0.28289800  0.07428500  0.64201500  1
  C  1492  1  0.29599600  0.08748900  0.62943600  1
  C  1493  1  0.31873200  0.08590600  0.63111900  1
  C  1494  1  0.32862700  0.07138000  0.64524500  1
  C  1495  1  0.31468500  0.05938200  0.65791800  1
  C  1496  1  0.29246600  0.06083100  0.65655600  1
  C  1497  1  0.32995900  0.09992100  0.61819900  1
  C  1499  1  0.29926000  0.11420500  0.60324200  1
  C  1506  1  0.26099700  0.07361500  0.63970200  1
  C  1508  1  0.35036900  0.06896300  0.65072700  1
  C  1510  1  0.78288100  0.86526600  0.85402400  1
  C  1511  1  0.79598300  0.85207700  0.86661700  1
  C  1512  1  0.81872100  0.85366500  0.86494600  1
  C  1513  1  0.82862600  0.86816700  0.85080400  1
  C  1514  1  0.81469000  0.88018800  0.83814900  1
  C  1515  1  0.79246800  0.87874800  0.83951900  1
  C  1516  1  0.82994500  0.83965600  0.87786800  1
  C  1518  1  0.79924400  0.82537600  0.89282200  1
  C  1525  1  0.76096400  0.86604500  0.85638200  1
  C  1527  1  0.85038200  0.87059200  0.84534600  1
  C  1529  1  0.03309300  0.36173100  0.85243400  1
  C  1530  1  0.04612500  0.34922500  0.86574400  1
  C  1531  1  0.06886100  0.35089400  0.86415600  1
  C  1532  1  0.07882300  0.36493400  0.84958700  1
  C  1533  1  0.06489400  0.37772600  0.83768000  1
  C  1534  1  0.04265900  0.37635400  0.83906900  1
  C  1535  1  0.08009800  0.33799600  0.87817200  1
  C  1537  1  0.04934000  0.32306900  0.89247700  1
  C  1544  1  0.01126800  0.35915700  0.85151700  1
  C  1546  1  0.10069300  0.36996900  0.84689900  1
  C  1548  1  0.53340300  0.57389000  0.63954500  1
  C  1549  1  0.54650800  0.58646600  0.62632100  1
  C  1550  1  0.56929000  0.58501100  0.62797100  1
  C  1551  1  0.57918600  0.57124900  0.64279200  1
  C  1552  1  0.56532900  0.55807200  0.65436400  1
  C  1553  1  0.54306500  0.55925000  0.65284900  1
  C  1554  1  0.58065600  0.59774000  0.61381800  1
  C  1556  1  0.54971400  0.61265800  0.59966500  1
  C  1563  1  0.51148400  0.57651400  0.64053200  1
  C  1565  1  0.60113600  0.56778400  0.64681300  1
  C  1567  1  0.78316900  0.86142900  0.13997400  1
  C  1568  1  0.79632300  0.84824500  0.12749300  1
  C  1569  1  0.81906900  0.84995800  0.12921200  1
  C  1570  1  0.82887500  0.86468200  0.14315900  1
  C  1571  1  0.81482800  0.87636200  0.15597100  1
  C  1572  1  0.79262600  0.87477900  0.15461400  1
  C  1573  1  0.83048500  0.83587500  0.11658000  1
  C  1575  1  0.79973100  0.82160100  0.10140500  1
  C  1582  1  0.76132800  0.86242800  0.13735400  1
  C  1584  1  0.85066600  0.86813600  0.14803800  1
  C  1586  1  0.28340200  0.07428000  0.35218200  1
  C  1587  1  0.29632100  0.08764400  0.36471900  1
  C  1588  1  0.31908500  0.08619700  0.36324800  1
  C  1589  1  0.32910100  0.07163000  0.34938200  1
  C  1590  1  0.31539600  0.05982100  0.33629800  1
  C  1591  1  0.29312300  0.06105700  0.33755800  1
  C  1592  1  0.33028600  0.10024400  0.37617000  1
  C  1594  1  0.29931100  0.11424400  0.39090500  1
  C  1601  1  0.26156700  0.07319700  0.35475500  1
  C  1603  1  0.35112100  0.06833000  0.34584200  1
  C  1605  1  0.32976300  0.36177600  0.63955700  1
  C  1606  1  0.31651100  0.34924500  0.62648700  1
  C  1607  1  0.29376000  0.35098500  0.62819600  1
  C  1608  1  0.28401200  0.36505900  0.64283000  1
  C  1609  1  0.29808900  0.37770800  0.65463400  1
  C  1610  1  0.32029200  0.37632900  0.65300600  1
  C  1611  1  0.28233000  0.33837900  0.61408200  1
  C  1613  1  0.31302900  0.32314100  0.59985200  1
  C  1620  1  0.35169900  0.35940600  0.64009700  1
  C  1622  1  0.26229100  0.37026100  0.64604800  1
  C  1624  1  0.82959200  0.57384500  0.85266800  1
  C  1625  1  0.81654000  0.58645700  0.86587800  1
  C  1626  1  0.79377000  0.58497500  0.86442200  1
  C  1627  1  0.78381500  0.57103100  0.84990300  1
  C  1628  1  0.79755800  0.55805500  0.83803200  1
  C  1629  1  0.81983600  0.55932500  0.83933400  1
  C  1630  1  0.78252500  0.59790000  0.87844900  1
  C  1632  1  0.81343700  0.61268200  0.89245700  1
  C  1639  1  0.85157200  0.57616100  0.85197700  1
  C  1641  1  0.76185700  0.56713500  0.84684900  1
  C  1643  1  0.57945300  0.86122300  0.35205600  1
  C  1644  1  0.56630800  0.84807800  0.36469600  1
  C  1645  1  0.54352400  0.84972200  0.36322000  1
  C  1646  1  0.53366500  0.86451500  0.34940600  1
  C  1647  1  0.54753400  0.87614200  0.33630000  1
  C  1648  1  0.56978800  0.87459100  0.33747500  1
  C  1649  1  0.53215000  0.83558000  0.37596300  1
  C  1651  1  0.56305300  0.82144100  0.39091500  1
  C  1658  1  0.60143100  0.86199200  0.35441100  1
  C  1660  1  0.51176500  0.86833200  0.34562700  1
  C  1662  1  0.07981100  0.07431300  0.14007700  1
  C  1663  1  0.06671500  0.08751100  0.12748700  1
  C  1664  1  0.04397200  0.08592000  0.12916000  1
  C  1665  1  0.03405300  0.07141100  0.14328800  1
  C  1666  1  0.04798600  0.05940300  0.15596000  1
  C  1667  1  0.07021300  0.06083900  0.15458900  1
  C  1668  1  0.03272800  0.09993300  0.11625900  1
  C  1670  1  0.06344900  0.11420900  0.10128500  1
  C  1677  1  0.10173400  0.07355000  0.13773300  1
  C  1679  1  0.01226500  0.06897200  0.14866500  1
  C  1681  1  0.88404200  0.69478900  0.06217400  1
  C  1682  1  0.89742200  0.70840100  0.04993000  1
  C  1683  1  0.89582500  0.73099600  0.05145600  1
  C  1684  1  0.88140500  0.74083100  0.06606100  1
  C  1685  1  0.86924300  0.72648600  0.07827400  1
  C  1686  1  0.87025500  0.70457200  0.07642800  1
  C  1687  1  0.90905100  0.74215300  0.03725200  1
  C  1689  1  0.92526100  0.71169900  0.02440400  1
  C  1696  1  0.88393000  0.67268000  0.05952700  1
  C  1698  1  0.87524600  0.76239700  0.06928400  1
  C  1700  1  0.38370000  0.24106900  0.43001700  1
  C  1701  1  0.39706400  0.22760100  0.44240300  1
  C  1702  1  0.39514400  0.20506200  0.44126200  1
  C  1703  1  0.38020400  0.19526000  0.42708400  1
  C  1704  1  0.36826500  0.20928100  0.41446400  1
  C  1705  1  0.36970200  0.23122800  0.41593400  1
  C  1706  1  0.40876700  0.19403700  0.45528600  1
  C  1708  1  0.42548700  0.22441200  0.46741000  1
  C  1715  1  0.38383200  0.26315500  0.43258200  1
  C  1717  1  0.37955400  0.17389900  0.42020900  1
  C  1719  1  0.13423600  0.15384600  0.97449700  1
  C  1720  1  0.14762200  0.16603000  0.98812000  1
  C  1721  1  0.14578600  0.16448500  0.01064200  1
  C  1722  1  0.13111000  0.14983700  0.02001800  1
  C  1723  1  0.11915400  0.13747300  0.00575600  1
  C  1724  1  0.12035300  0.13946600  0.98395600  1
  C  1725  1  0.15883300  0.17871700  0.02198000  1
  C  1727  1  0.17522700  0.19182100  0.99164400  1
  C  1734  1  0.13409000  0.15656500  0.95250800  1
  C  1736  1  0.12447500  0.14670100  0.04118100  1
  C  1738  1  0.63418600  0.78588300  0.52114600  1
  C  1739  1  0.64764500  0.77357700  0.50770500  1
  C  1740  1  0.64602600  0.77501100  0.48511800  1
  C  1741  1  0.63152300  0.78938600  0.47504200  1
  C  1742  1  0.61939400  0.80175400  0.48925300  1
  C  1743  1  0.62040700  0.80009100  0.51120000  1
  C  1744  1  0.65921400  0.76079300  0.47407800  1
  C  1746  1  0.67507500  0.74750500  0.50452600  1
  C  1753  1  0.63399200  0.78326000  0.54325700  1
  C  1755  1  0.62553800  0.79238800  0.45333800  1
  C  1757  1  0.47862900  0.69469800  0.42990900  1
  C  1758  1  0.46518100  0.70815900  0.44220100  1
  C  1759  1  0.46681900  0.73075100  0.44087800  1
  C  1760  1  0.48135700  0.74078100  0.42653600  1
  C  1761  1  0.49338400  0.72662100  0.41403900  1
  C  1762  1  0.49236800  0.70467200  0.41568400  1
  C  1763  1  0.45369700  0.74178600  0.45518400  1
  C  1765  1  0.43727800  0.71129300  0.46767900  1
  C  1772  1  0.47881300  0.67256600  0.43254300  1
  C  1774  1  0.48745900  0.76241400  0.42374500  1
  C  1776  1  0.97854300  0.24138000  0.06207000  1
  C  1777  1  0.96517500  0.22773700  0.04988900  1
  C  1778  1  0.96704600  0.20521100  0.05134400  1
  C  1779  1  0.98174700  0.19588100  0.06597900  1
  C  1780  1  0.99361700  0.21009600  0.07844700  1
  C  1781  1  0.99239700  0.23190000  0.07646400  1
  C  1782  1  0.95402800  0.19387700  0.03705800  1
  C  1784  1  0.93726700  0.22421800  0.02447200  1
  C  1791  1  0.97865800  0.26339100  0.05936300  1
  C  1793  1  0.98847700  0.17477300  0.06887900  1
  C  1795  1  0.22856500  0.15373200  0.52110800  1
  C  1796  1  0.21517300  0.16599700  0.50750800  1
  C  1797  1  0.21672700  0.16440200  0.48491400  1
  C  1798  1  0.23110300  0.14978400  0.47503400  1
  C  1799  1  0.24335500  0.13765900  0.48941100  1
  C  1800  1  0.24237400  0.13950200  0.51132100  1
  C  1801  1  0.20348100  0.17854300  0.47373700  1
  C  1803  1  0.18766600  0.19193800  0.50416300  1
  C  1810  1  0.22864200  0.15632800  0.54322900  1
  C  1812  1  0.23722900  0.14641500  0.45344100  1
  C  1814  1  0.72889400  0.78580900  0.97477700  1
  C  1815  1  0.71550800  0.77341100  0.98823600  1
  C  1816  1  0.71738600  0.77465200  0.01077300  1
  C  1817  1  0.73236000  0.78880300  0.02057600  1
  C  1818  1  0.74435500  0.80137600  0.00656300  1
  C  1819  1  0.74291100  0.79988200  0.98462000  1
  C  1820  1  0.70372900  0.76070700  0.02184300  1
  C  1822  1  0.68754500  0.74781900  0.99146300  1
  C  1829  1  0.72878900  0.78328200  0.95267700  1
  C  1831  1  0.73307100  0.79570000  0.04193200  1
  C  1833  1  0.97870100  0.24135100  0.93210500  1
  C  1834  1  0.96522100  0.22773100  0.94424100  1
  C  1835  1  0.96698400  0.20521100  0.94276000  1
  C  1836  1  0.98157000  0.19585100  0.92808100  1
  C  1837  1  0.99354200  0.21010800  0.91566000  1
  C  1838  1  0.99246100  0.23190000  0.91765300  1
  C  1839  1  0.95396200  0.19386900  0.95706000  1
  C  1841  1  0.93728500  0.22417300  0.96963300  1
  C  1848  1  0.97911700  0.26331300  0.93487900  1
  C  1850  1  0.98813500  0.17469300  0.92500000  1
  C  1852  1  0.47880600  0.69491600  0.56011700  1
  C  1853  1  0.46540300  0.70862600  0.54798900  1
  C  1854  1  0.46689800  0.73123200  0.54978400  1
  C  1855  1  0.48125100  0.74096200  0.56457600  1
  C  1856  1  0.49347000  0.72647900  0.57656600  1
  C  1857  1  0.49253900  0.70459700  0.57446800  1
  C  1858  1  0.45359000  0.74246700  0.53569700  1
  C  1860  1  0.43762400  0.71205100  0.52241200  1
  C  1867  1  0.47899600  0.67279200  0.55745400  1
  C  1869  1  0.48739000  0.76248600  0.56837800  1
  C  1871  1  0.38400300  0.24126300  0.56000300  1
  C  1872  1  0.39738800  0.22753300  0.54791500  1
  C  1873  1  0.39562600  0.20499400  0.54962200  1
  C  1874  1  0.38103100  0.19574600  0.56445500  1
  C  1875  1  0.36905500  0.21008100  0.57668200  1
  C  1876  1  0.37021000  0.23186100  0.57449100  1
  C  1877  1  0.40876800  0.19359100  0.53547900  1
  C  1879  1  0.42523200  0.22391500  0.52243300  1
  C  1886  1  0.38375700  0.26329900  0.55727500  1
  C  1888  1  0.37428100  0.17467600  0.56779800  1
  C  1890  1  0.88392100  0.69477500  0.93201400  1
  C  1891  1  0.89737400  0.70834000  0.94420900  1
  C  1892  1  0.89584500  0.73094100  0.94263300  1
  C  1893  1  0.88151700  0.74084200  0.92797100  1
  C  1894  1  0.86929000  0.72653000  0.91581500  1
  C  1895  1  0.87020600  0.70461900  0.91770800  1
  C  1896  1  0.90906700  0.74207600  0.95680300  1
  C  1898  1  0.92524500  0.71161700  0.96970300  1
  C  1905  1  0.88365200  0.67263900  0.93464500  1
  C  1907  1  0.87547200  0.76242900  0.92457200  1
  C  1909  1  0.63405500  0.65181300  0.47301500  1
  C  1910  1  0.64762300  0.66404000  0.48642000  1
  C  1911  1  0.64602600  0.66262700  0.50900700  1
  C  1912  1  0.63145000  0.64830900  0.51905200  1
  C  1913  1  0.61938800  0.63583500  0.50489900  1
  C  1914  1  0.62037000  0.63751600  0.48296200  1
  C  1915  1  0.65914400  0.67692800  0.52005000  1
  C  1917  1  0.67509900  0.69006700  0.48954100  1
  C  1924  1  0.63359600  0.65454900  0.45093300  1
  C  1926  1  0.62531700  0.64552800  0.54069800  1
  C  1928  1  0.13410100  0.28370400  0.01955500  1
  C  1929  1  0.14759000  0.27159700  0.00596200  1
  C  1930  1  0.14576100  0.27312800  0.98344100  1
  C  1931  1  0.13102700  0.28773500  0.97409200  1
  C  1932  1  0.11913200  0.30018900  0.98829900  1
  C  1933  1  0.12031400  0.29817200  0.01009400  1
  C  1934  1  0.15879400  0.25886000  0.97211200  1
  C  1936  1  0.17522800  0.24583200  0.00248300  1
  C  1943  1  0.13372100  0.28087700  0.04152000  1
  C  1945  1  0.12427600  0.29063200  0.95297500  1
  C  1947  1  0.72904500  0.65191600  0.01928900  1
  C  1948  1  0.71555100  0.66424800  0.00587500  1
  C  1949  1  0.71739400  0.66301600  0.98334200  1
  C  1950  1  0.73238100  0.64890900  0.97351200  1
  C  1951  1  0.74433700  0.63626300  0.98748700  1
  C  1952  1  0.74298000  0.63777700  0.00942700  1
  C  1953  1  0.70378600  0.67702500  0.97229100  1
  C  1955  1  0.68750800  0.68976500  0.00267400  1
  C  1962  1  0.72916100  0.65453500  0.04136400  1
  C  1964  1  0.73284500  0.64197400  0.95220500  1
  C  1966  1  0.22870400  0.28381300  0.47305500  1
  C  1967  1  0.21520600  0.27164000  0.48663100  1
  C  1968  1  0.21675400  0.27324400  0.50922300  1
  C  1969  1  0.23124700  0.28779100  0.51904800  1
  C  1970  1  0.24341300  0.30001700  0.50473000  1
  C  1971  1  0.24242900  0.29813300  0.48282900  1
  C  1972  1  0.20349900  0.25908800  0.52040000  1
  C  1974  1  0.18767500  0.24572000  0.48992700  1
  C  1981  1  0.22904600  0.28110000  0.45095900  1
  C  1983  1  0.23745100  0.29099200  0.54058900  1
  C  1985  1  0.21549900  0.58133600  0.09241500  1
  C  1986  1  0.20529400  0.58144100  0.11207500  1
  C  1987  1  0.19958300  0.56293800  0.12296100  1
  C  1988  1  0.20598900  0.54364100  0.11464000  1
  C  1989  1  0.21787400  0.54265800  0.09605700  1
  C  1990  1  0.22202300  0.56136000  0.08464700  1
  C  1993  1  0.21986700  0.60109800  0.08178900  1
  C  1994  1  0.20577900  0.61881700  0.08004000  1
  C  1995  1  0.21225500  0.63803000  0.07011500  1
  C  1996  1  0.23271900  0.63807000  0.06072200  1
  C  1997  1  0.24661600  0.62108200  0.06183500  1
  C  1998  1  0.24089400  0.60407200  0.07449200  1
  C  2009  1  0.71536400  0.35422700  0.39977600  1
  C  2010  1  0.70522200  0.35414300  0.38006100  1
  C  2011  1  0.69946000  0.37263300  0.36921500  1
  C  2012  1  0.70571500  0.39181700  0.37778900  1
  C  2013  1  0.71693700  0.39298100  0.39653200  1
  C  2014  1  0.72174300  0.37410700  0.40783300  1
  C  2017  1  0.71987600  0.33454300  0.41033600  1
  C  2018  1  0.70576600  0.31687900  0.41210800  1
  C  2019  1  0.71225800  0.29769800  0.42202600  1
  C  2020  1  0.73272500  0.29763700  0.43141400  1
  C  2021  1  0.74663700  0.31461200  0.43029200  1
  C  2022  1  0.74091800  0.33161300  0.41762500  1
  C  2033  1  0.46537100  0.12346500  0.86163900  1
  C  2034  1  0.45520300  0.10377400  0.86178200  1
  C  2035  1  0.44946100  0.09292100  0.84330300  1
  C  2036  1  0.45571200  0.10130200  0.82399400  1
  C  2037  1  0.46748300  0.11990000  0.82304500  1
  C  2038  1  0.47169300  0.13139000  0.84165300  1
  C  2041  1  0.46988200  0.13402500  0.88133200  1
  C  2042  1  0.45577700  0.13581100  0.89899700  1
  C  2043  1  0.46228900  0.14576300  0.91811700  1
  C  2044  1  0.48276800  0.15511800  0.91814700  1
  C  2045  1  0.49666200  0.15398700  0.90118900  1
  C  2046  1  0.49092300  0.14132200  0.88424300  1
  C  2057  1  0.96538800  0.81575000  0.63473100  1
  C  2058  1  0.95529100  0.83547000  0.63448000  1
  C  2059  1  0.94945700  0.84626200  0.65290000  1
  C  2060  1  0.95528300  0.83758900  0.67219200  1
  C  2061  1  0.96702200  0.81899100  0.67376100  1
  C  2062  1  0.97178600  0.80791100  0.65487700  1
  C  2065  1  0.96988900  0.80546700  0.61480600  1
  C  2066  1  0.95579000  0.80377100  0.59706700  1
  C  2067  1  0.96224100  0.79385200  0.57787300  1
  C  2068  1  0.98270500  0.78445900  0.57785400  1
  C  2069  1  0.99663100  0.78560300  0.59481100  1
  C  2070  1  0.99092500  0.79824100  0.61179600  1
  C  2081  1  0.78574800  0.58083000  0.40035200  1
  C  2082  1  0.79585000  0.58088300  0.38066100  1
  C  2083  1  0.80174500  0.56240500  0.36998300  1
  C  2084  1  0.79619200  0.54312300  0.37901800  1
  C  2085  1  0.78486600  0.54171100  0.39804700  1
  C  2086  1  0.77966500  0.56075500  0.40851700  1
  C  2089  1  0.78150000  0.60084800  0.41058400  1
  C  2090  1  0.79561200  0.61862600  0.41212900  1
  C  2091  1  0.78922700  0.63790500  0.42197100  1
  C  2092  1  0.76877900  0.63799000  0.43138000  1
  C  2093  1  0.75481800  0.62105900  0.43027000  1
  C  2094  1  0.76047300  0.60398800  0.41773000  1
  C  2105  1  0.28574500  0.35486800  0.09180900  1
  C  2106  1  0.29584700  0.35480400  0.11149700  1
  C  2107  1  0.30174400  0.37328100  0.12217100  1
  C  2108  1  0.29618400  0.39256600  0.11313700  1
  C  2109  1  0.28484600  0.39399200  0.09411700  1
  C  2110  1  0.27966300  0.37494300  0.08364100  1
  C  2113  1  0.28148900  0.33486200  0.08158000  1
  C  2114  1  0.29560800  0.31710000  0.08002700  1
  C  2115  1  0.28918600  0.29786100  0.07016200  1
  C  2116  1  0.26873200  0.29775800  0.06077500  1
  C  2117  1  0.25479200  0.31468100  0.06187200  1
  C  2118  1  0.26045900  0.33173200  0.07442800  1
  C  2129  1  0.53576000  0.12407300  0.63507000  1
  C  2130  1  0.54583300  0.10437300  0.63504700  1
  C  2131  1  0.55175100  0.09367500  0.65354500  1
  C  2132  1  0.54622500  0.10269300  0.67281300  1
  C  2133  1  0.53491700  0.12173000  0.67419300  1
  C  2134  1  0.52969800  0.13221800  0.65512500  1
  C  2137  1  0.53151100  0.13432200  0.61503400  1
  C  2138  1  0.54561500  0.13587500  0.59724600  1
  C  2139  1  0.53921500  0.14572600  0.57793800  1
  C  2140  1  0.51875500  0.15512200  0.57784300  1
  C  2141  1  0.50481300  0.15400400  0.59479200  1
  C  2142  1  0.51048100  0.14145700  0.61189500  1
  C  2153  1  0.03574610  0.81552500  0.86097200  1
  C  2154  1  0.04584110  0.83521400  0.86100400  1
  C  2155  1  0.05179810  0.84588200  0.84250500  1
  C  2156  1  0.04623110  0.83689100  0.82323100  1
  C  2157  1  0.03488210  0.81787500  0.82183800  1
  C  2158  1  0.02968710  0.80737900  0.84091500  1
  C  2161  1  0.03149210  0.80527800  0.88100100  1
  C  2162  1  0.04561110  0.80372900  0.89877100  1
  C  2163  1  0.03920710  0.79388600  0.91806700  1
  C  2164  1  0.01876010  0.78446800  0.91818800  1
  C  2165  1  0.00481506  0.78554800  0.90124300  1
  C  2166  1  0.01046710  0.79811900  0.88414700  1
  C  2177  1  0.28578300  0.35411600  0.90199500  1
  C  2178  1  0.29612200  0.35406600  0.88232600  1
  C  2179  1  0.30192700  0.37253800  0.87141100  1
  C  2180  1  0.29568600  0.39179800  0.87980500  1
  C  2181  1  0.28384400  0.39267000  0.89839200  1
  C  2182  1  0.27953400  0.37406300  0.90996500  1
  C  2185  1  0.28091400  0.33427900  0.91225100  1
  C  2186  1  0.29525300  0.31671700  0.91375100  1
  C  2187  1  0.28896600  0.29730000  0.92322400  1
  C  2188  1  0.26801000  0.29634000  0.93109400  1
  C  2189  1  0.25336200  0.31255900  0.92939800  1
  C  2190  1  0.25989900  0.33136600  0.91996500  1
  C  2201  1  0.78575100  0.58128600  0.58989900  1
  C  2202  1  0.79612000  0.58153000  0.60956100  1
  C  2203  1  0.80208700  0.56318600  0.62049900  1
  C  2204  1  0.79607400  0.54390700  0.61207700  1
  C  2205  1  0.78436500  0.54232400  0.59344600  1
  C  2206  1  0.77953000  0.56111700  0.58206300  1
  C  2209  1  0.78091800  0.60132500  0.57980300  1
  C  2210  1  0.79524700  0.61897900  0.57837600  1
  C  2211  1  0.78903100  0.63848000  0.56891700  1
  C  2212  1  0.76808500  0.63938700  0.56099800  1
  C  2213  1  0.75342900  0.62315000  0.56267600  1
  C  2214  1  0.75991800  0.60431900  0.57211500  1
  C  2225  1  0.03610510  0.81198900  0.13297900  1
  C  2226  1  0.04624810  0.83165900  0.13261100  1
  C  2227  1  0.05215510  0.84244100  0.15099200  1
  C  2228  1  0.04629410  0.83385800  0.17030500  1
  C  2229  1  0.03454010  0.81527700  0.17192700  1
  C  2230  1  0.02977210  0.80409500  0.15311500  1
  C  2233  1  0.03139910  0.80195500  0.11307400  1
  C  2234  1  0.04573910  0.79957300  0.09558000  1
  C  2235  1  0.03892410  0.78952500  0.07660500  1
  C  2236  1  0.01777010  0.78217300  0.07611100  1
  C  2237  1  0.00422006  0.78252000  0.09324500  1
  C  2238  1  0.01030710  0.79468800  0.11037900  1
  C  2249  1  0.53608800  0.12351600  0.35970300  1
  C  2250  1  0.54633900  0.10383400  0.35985400  1
  C  2251  1  0.55206900  0.09291300  0.34138500  1
  C  2252  1  0.54580700  0.10127400  0.32207100  1
  C  2253  1  0.53407100  0.11990700  0.32108800  1
  C  2254  1  0.52981500  0.13139300  0.33967900  1
  C  2257  1  0.53133000  0.13410000  0.37937600  1
  C  2258  1  0.54531800  0.13625900  0.39706200  1
  C  2259  1  0.53814800  0.14556800  0.41631200  1
  C  2260  1  0.51765800  0.15431500  0.41665100  1
  C  2261  1  0.50426700  0.15380100  0.39927900  1
  C  2262  1  0.51027500  0.14142800  0.38215300  1
  C  2273  1  0.71610900  0.35471900  0.58957200  1
  C  2274  1  0.70579500  0.35472600  0.60921800  1
  C  2275  1  0.69982100  0.37317500  0.61991000  1
  C  2276  1  0.70544400  0.39243000  0.61086500  1
  C  2277  1  0.71687200  0.39384500  0.59186100  1
  C  2278  1  0.72213600  0.37478300  0.58133500  1
  C  2281  1  0.72071000  0.33456900  0.57965800  1
  C  2282  1  0.70635100  0.31691200  0.57837200  1
  C  2283  1  0.71253300  0.29739700  0.56897500  1
  C  2284  1  0.73347900  0.29642300  0.56109200  1
  C  2285  1  0.74815100  0.31261800  0.56271700  1
  C  2286  1  0.74169700  0.33147700  0.57203000  1
  C  2297  1  0.21608600  0.58097400  0.90256500  1
  C  2298  1  0.20575100  0.58095200  0.88291800  1
  C  2299  1  0.19977100  0.56250200  0.87222300  1
  C  2300  1  0.20541700  0.54326200  0.88128000  1
  C  2301  1  0.21683200  0.54186800  0.90029300  1
  C  2302  1  0.22212300  0.56091700  0.91080900  1
  C  2305  1  0.22068700  0.60112500  0.91249500  1
  C  2306  1  0.20633700  0.61879800  0.91378200  1
  C  2307  1  0.21248000  0.63834300  0.92316600  1
  C  2308  1  0.23342500  0.63929500  0.93105400  1
  C  2309  1  0.24814600  0.62312300  0.92935900  1
  C  2310  1  0.24168200  0.60423000  0.92010200  1
  C  2321  1  0.96577800  0.81158700  0.35896500  1
  C  2322  1  0.95559900  0.83125700  0.35904700  1
  C  2323  1  0.94960400  0.84196800  0.34056800  1
  C  2324  1  0.95523800  0.83301900  0.32128200  1
  C  2325  1  0.96658800  0.81400000  0.31985300  1
  C  2326  1  0.97180000  0.80347400  0.33889800  1
  C  2329  1  0.97025500  0.80127600  0.37891500  1
  C  2330  1  0.95620900  0.79942900  0.39666800  1
  C  2331  1  0.96334400  0.79044100  0.41612200  1
  C  2332  1  0.98380400  0.78158500  0.41652900  1
  C  2333  1  0.99719300  0.78175900  0.39915200  1
  C  2334  1  0.99129700  0.79408200  0.38192400  1
  C  2345  1  0.46604900  0.12394100  0.13348000  1
  C  2346  1  0.45578900  0.10432600  0.13327500  1
  C  2347  1  0.44969500  0.09365800  0.15172300  1
  C  2348  1  0.45520300  0.10263800  0.17101800  1
  C  2349  1  0.46651400  0.12168000  0.17245100  1
  C  2350  1  0.47189400  0.13217800  0.15348500  1
  C  2353  1  0.47069900  0.13424500  0.11371600  1
  C  2354  1  0.45643600  0.13638000  0.09628100  1
  C  2355  1  0.46360100  0.14566600  0.07712200  1
  C  2356  1  0.48420900  0.15398200  0.07611200  1
  C  2357  1  0.49770400  0.15360700  0.09335200  1
  C  2358  1  0.49177700  0.14138200  0.11066200  1
  C  2369  1  0.71581000  0.08317900  0.59372700  1
  C  2370  1  0.70643500  0.08344800  0.61371000  1
  C  2371  1  0.69711500  0.06545100  0.62267100  1
  C  2372  1  0.70381500  0.04590000  0.61520300  1
  C  2373  1  0.71677100  0.04461700  0.59730100  1
  C  2374  1  0.72154500  0.06311900  0.58577700  1
  C  2377  1  0.72098600  0.10280700  0.58360200  1
  C  2378  1  0.70676100  0.12019600  0.58111000  1
  C  2379  1  0.71399400  0.13926900  0.57175000  1
  C  2380  1  0.73463700  0.14015800  0.56360400  1
  C  2381  1  0.74805500  0.12286200  0.56421600  1
  C  2382  1  0.74208500  0.10561200  0.57649000  1
  C  2393  1  0.21552300  0.85611900  0.90252200  1
  C  2394  1  0.20634800  0.85596200  0.88244000  1
  C  2395  1  0.19709500  0.87399200  0.87342900  1
  C  2396  1  0.20378800  0.89354200  0.88088300  1
  C  2397  1  0.21685900  0.89474200  0.89871000  1
  C  2398  1  0.22141600  0.87623200  0.91033000  1
  C  2401  1  0.22055800  0.83634800  0.91269100  1
  C  2402  1  0.20654300  0.81868500  0.91494000  1
  C  2403  1  0.21371000  0.79935700  0.92403900  1
  C  2404  1  0.23422700  0.79895500  0.93267900  1
  C  2405  1  0.24755400  0.81639100  0.93220300  1
  C  2406  1  0.24161900  0.83357000  0.91983000  1
  C  2417  1  0.96588400  0.62251400  0.35988200  1
  C  2418  1  0.95650100  0.60248100  0.35999400  1
  C  2419  1  0.94728300  0.59347300  0.34197800  1
  C  2420  1  0.95408000  0.60100100  0.32246100  1
  C  2421  1  0.96720300  0.61883100  0.32126500  1
  C  2422  1  0.97181000  0.63043000  0.33978700  1
  C  2425  1  0.97095900  0.63236400  0.37980900  1
  C  2426  1  0.95660200  0.63390400  0.39737900  1
  C  2427  1  0.96280400  0.64319200  0.41685600  1
  C  2428  1  0.98376000  0.65099900  0.41781100  1
  C  2429  1  0.99838600  0.64934200  0.40154100  1
  C  2430  1  0.99196300  0.63994300  0.38271800  1
  C  2441  1  0.46589500  0.31315700  0.13229600  1
  C  2442  1  0.45649900  0.33318500  0.13217100  1
  C  2443  1  0.44728300  0.34218600  0.15018400  1
  C  2444  1  0.45409400  0.33464900  0.16969100  1
  C  2445  1  0.46714400  0.31677100  0.17093500  1
  C  2446  1  0.47182900  0.30522400  0.15239000  1
  C  2449  1  0.47097400  0.30332200  0.11237900  1
  C  2450  1  0.45660900  0.30176900  0.09482900  1
  C  2451  1  0.46285900  0.29246800  0.07539100  1
  C  2452  1  0.48383000  0.28471500  0.07440100  1
  C  2453  1  0.49844500  0.28639000  0.09065600  1
  C  2454  1  0.49198600  0.29576500  0.10947600  1
  C  2465  1  0.28532600  0.08248100  0.90290300  1
  C  2466  1  0.29474400  0.08276400  0.88296300  1
  C  2467  1  0.30395700  0.06478000  0.87406700  1
  C  2468  1  0.29791100  0.04519900  0.88217900  1
  C  2469  1  0.28548600  0.04346700  0.90057900  1
  C  2470  1  0.27985000  0.06234300  0.91114300  1
  C  2473  1  0.28040600  0.10232000  0.91277700  1
  C  2474  1  0.29468300  0.11972500  0.91501300  1
  C  2475  1  0.28757200  0.13891600  0.92409400  1
  C  2476  1  0.26693400  0.13997500  0.93228900  1
  C  2477  1  0.25345800  0.12269900  0.93188100  1
  C  2478  1  0.25931700  0.10538400  0.91970400  1
  C  2489  1  0.78555300  0.85664800  0.59297000  1
  C  2490  1  0.79481200  0.85657900  0.61298800  1
  C  2491  1  0.80391400  0.87462800  0.62192700  1
  C  2492  1  0.79785500  0.89419600  0.61380600  1
  C  2493  1  0.78541400  0.89587500  0.59542600  1
  C  2494  1  0.77990300  0.87689000  0.58487700  1
  C  2497  1  0.78081600  0.83649100  0.58317400  1
  C  2498  1  0.79483600  0.81868200  0.58103700  1
  C  2499  1  0.78778100  0.79932200  0.57173800  1
  C  2500  1  0.76727800  0.79897600  0.56315300  1
  C  2501  1  0.75384400  0.81629100  0.56393300  1
  C  2502  1  0.75975200  0.83351500  0.57618600  1
  C  2513  1  0.03527810  0.62311500  0.13292800  1
  C  2514  1  0.04470110  0.60313400  0.13290600  1
  C  2515  1  0.05382910  0.59415100  0.15093600  1
  C  2516  1  0.04772710  0.60230500  0.17044700  1
  C  2517  1  0.03525110  0.62070600  0.17207000  1
  C  2518  1  0.02965010  0.63133000  0.15307000  1
  C  2521  1  0.03041910  0.63263000  0.11268700  1
  C  2522  1  0.04479210  0.63396500  0.09504200  1
  C  2523  1  0.03863510  0.64315100  0.07544800  1
  C  2524  1  0.01768410  0.65094500  0.07439100  1
  C  2525  1  0.00298006  0.64922200  0.09059900  1
  C  2526  1  0.00939606  0.63999000  0.10955100  1
  C  2537  1  0.53528000  0.31255100  0.35924900  1
  C  2538  1  0.54470000  0.33253300  0.35925800  1
  C  2539  1  0.55382700  0.34151500  0.34122400  1
  C  2540  1  0.54772300  0.33333333  0.32171500  1
  C  2541  1  0.53524400  0.31496300  0.32009200  1
  C  2542  1  0.52964800  0.30434200  0.33910000  1
  C  2545  1  0.53042900  0.30303800  0.37950800  1
  C  2546  1  0.54478800  0.30170000  0.39717400  1
  C  2547  1  0.53863500  0.29250300  0.41678100  1
  C  2548  1  0.51769200  0.28467600  0.41780100  1
  C  2549  1  0.50303300  0.28634400  0.40155200  1
  C  2550  1  0.50941800  0.29565300  0.38263200  1
  C  2561  1  0.78607300  0.85595100  0.40476900  1
  C  2562  1  0.79632600  0.85566200  0.38512600  1
  C  2563  1  0.80520700  0.87356600  0.37559600  1
  C  2564  1  0.79816600  0.89309400  0.38284900  1
  C  2565  1  0.78525400  0.89419800  0.40079800  1
  C  2566  1  0.78025900  0.87595800  0.41264600  1
  C  2569  1  0.78045700  0.83622000  0.41457200  1
  C  2570  1  0.79478800  0.81876400  0.41644400  1
  C  2571  1  0.78776300  0.79912700  0.42481100  1
  C  2572  1  0.76677500  0.79780400  0.43192900  1
  C  2573  1  0.75261300  0.81449400  0.43103300  1
  C  2574  1  0.75940800  0.83349700  0.42214600  1
  C  2585  1  0.28533700  0.08320900  0.09147900  1
  C  2586  1  0.29492400  0.08350600  0.11142800  1
  C  2587  1  0.30429400  0.06555800  0.12047000  1
  C  2588  1  0.29755500  0.04601900  0.11302100  1
  C  2589  1  0.28451300  0.04474700  0.09513500  1
  C  2590  1  0.27969000  0.06317600  0.08348200  1
  C  2593  1  0.27982800  0.10286600  0.08157400  1
  C  2594  1  0.29431900  0.12008500  0.07939600  1
  C  2595  1  0.28732700  0.13944400  0.07066900  1
  C  2596  1  0.26621500  0.14144600  0.06428900  1
  C  2597  1  0.25196200  0.12487400  0.06532500  1
  C  2598  1  0.25878400  0.10573900  0.07400900  1
  C  2609  1  0.53586400  0.31282100  0.63416500  1
  C  2610  1  0.54595400  0.33250500  0.63378500  1
  C  2611  1  0.55498300  0.34187300  0.65165300  1
  C  2612  1  0.54785600  0.33481800  0.67127100  1
  C  2613  1  0.53475900  0.31694300  0.67272000  1
  C  2614  1  0.52991200  0.30518600  0.65434000  1
  C  2617  1  0.53027300  0.30308000  0.61432500  1
  C  2618  1  0.54450700  0.30100500  0.59677100  1
  C  2619  1  0.53748800  0.29251700  0.57717700  1
  C  2620  1  0.51645200  0.28569700  0.57584700  1
  C  2621  1  0.50230800  0.28687400  0.59253500  1
  C  2622  1  0.50917600  0.29568900  0.61154700  1
  C  2633  1  0.03583710  0.62608000  0.86160500  1
  C  2634  1  0.04558110  0.60620600  0.86184600  1
  C  2635  1  0.05460210  0.59701200  0.84383100  1
  C  2636  1  0.04764510  0.60451100  0.82434400  1
  C  2637  1  0.03452910  0.62236500  0.82316300  1
  C  2638  1  0.02993010  0.63406000  0.84157400  1
  C  2641  1  0.03051810  0.63577100  0.88142500  1
  C  2642  1  0.04520510  0.63792700  0.89864500  1
  C  2643  1  0.03863010  0.64725900  0.91794900  1
  C  2644  1  0.01704810  0.65288600  0.91957200  1
  C  2645  1  0.00257506  0.65199100  0.90319500  1
  C  2646  1  0.00950406  0.64352900  0.88412600  1
  C  2657  1  0.21606600  0.85657900  0.09052700  1
  C  2658  1  0.20592600  0.85628600  0.11015300  1
  C  2659  1  0.19704900  0.87418700  0.11947100  1
  C  2660  1  0.20357400  0.89384200  0.11177200  1
  C  2661  1  0.21611500  0.89571000  0.09338000  1
  C  2662  1  0.22179400  0.87683500  0.08262600  1
  C  2665  1  0.22135500  0.83641200  0.08107400  1
  C  2666  1  0.20710300  0.81876100  0.07921600  1
  C  2667  1  0.21403100  0.79905200  0.07082600  1
  C  2668  1  0.23504600  0.79766000  0.06397000  1
  C  2669  1  0.24923600  0.81431700  0.06511500  1
  C  2670  1  0.24243600  0.83341400  0.07381100  1
  C  2681  1  0.71607700  0.08273900  0.40488300  1
  C  2682  1  0.70628200  0.08289200  0.38506300  1
  C  2683  1  0.69742400  0.06486400  0.37589300  1
  C  2684  1  0.70365500  0.04537200  0.38409200  1
  C  2685  1  0.71606700  0.04372800  0.40255600  1
  C  2686  1  0.72171900  0.06262900  0.41317300  1
  C  2689  1  0.72112300  0.10288400  0.41425500  1
  C  2690  1  0.70643500  0.12021800  0.41621500  1
  C  2691  1  0.71293800  0.13961600  0.42551700  1
  C  2692  1  0.73450800  0.14128000  0.43114500  1
  C  2693  1  0.74896100  0.12488500  0.43032200  1
  C  2694  1  0.74211100  0.10576800  0.42191700  1
  C  2705  1  0.46655400  0.31266500  0.86082800  1
  C  2706  1  0.45690500  0.33255700  0.86103600  1
  C  2707  1  0.44765300  0.34154300  0.84307000  1
  C  2708  1  0.45372500  0.33342600  0.82353200  1
  C  2709  1  0.46617100  0.31500400  0.82184600  1
  C  2710  1  0.47194000  0.30436900  0.84073500  1
  C  2713  1  0.47180300  0.30307400  0.88079900  1
  C  2714  1  0.45729200  0.30112500  0.89810900  1
  C  2715  1  0.46419600  0.29248400  0.91757600  1
  C  2716  1  0.48528200  0.28605800  0.91963400  1
  C  2717  1  0.49957400  0.28704000  0.90309000  1
  C  2718  1  0.49282900  0.29561700  0.88387800  1
  C  2729  1  0.96585000  0.62698900  0.63495200  1
  C  2730  1  0.95556500  0.60741100  0.63462600  1
  C  2731  1  0.94683600  0.59787000  0.65251900  1
  C  2732  1  0.95338200  0.60563500  0.67213900  1
  C  2733  1  0.96586600  0.62408900  0.67399300  1
  C  2734  1  0.97158000  0.63489300  0.65514500  1
  C  2737  1  0.97113300  0.63658700  0.61487200  1
  C  2738  1  0.95682200  0.63822900  0.59727200  1
  C  2739  1  0.96376700  0.64650000  0.57751400  1
  C  2740  1  0.98474400  0.65361400  0.57613000  1
  C  2741  1  0.99896600  0.65269400  0.59277800  1
  C  2742  1  0.99218000  0.64400100  0.61189500  1
  C  2753  1  0.27363000  0.61402600  0.97441000  1
  C  2754  1  0.26286300  0.59910000  0.98726500  1
  C  2755  1  0.26360200  0.60135600  0.00954700  1
  C  2756  1  0.27340900  0.61932300  0.01887000  1
  C  2757  1  0.28220100  0.63453200  0.00531100  1
  C  2758  1  0.28224400  0.63206900  0.98364000  1
  C  2759  1  0.25481900  0.58438800  0.02084400  1
  C  2761  1  0.24374500  0.56681000  0.99065600  1
  C  2768  1  0.27516600  0.61182400  0.95293700  1
  C  2770  1  0.27826400  0.62276100  0.03999100  1
  C  2772  1  0.77355000  0.32160100  0.51777900  1
  C  2773  1  0.76283100  0.33654500  0.50490500  1
  C  2774  1  0.76358100  0.33429300  0.48261900  1
  C  2775  1  0.77343800  0.31635100  0.47329700  1
  C  2776  1  0.78219700  0.30113100  0.48685900  1
  C  2777  1  0.78223700  0.30359700  0.50853100  1
  C  2778  1  0.75481700  0.35126700  0.47132000  1
  C  2780  1  0.74374300  0.36884800  0.50150600  1
  C  2787  1  0.77536100  0.32391300  0.53925400  1
  C  2789  1  0.77825600  0.31289100  0.45216200  1
  C  2791  1  0.52356200  0.24137400  0.89423000  1
  C  2792  1  0.51280500  0.22858700  0.87930400  1
  C  2793  1  0.51357000  0.20630900  0.88158100  1
  C  2794  1  0.52339800  0.19695600  0.89955500  1
  C  2795  1  0.53217800  0.21046100  0.91476200  1
  C  2796  1  0.53220700  0.23212500  0.91228100  1
  C  2797  1  0.50481500  0.19505200  0.86461600  1
  C  2799  1  0.49373300  0.22529300  0.84700300  1
  C  2806  1  0.52569600  0.26279000  0.89179100  1
  C  2808  1  0.52828300  0.17583700  0.90298700  1
  C  2810  1  0.02360310  0.69819500  0.60186200  1
  C  2811  1  0.01284210  0.71099300  0.61677700  1
  C  2812  1  0.01359210  0.73327400  0.61448600  1
  C  2813  1  0.02340410  0.74262800  0.59650300  1
  C  2814  1  0.03219910  0.72911000  0.58131100  1
  C  2815  1  0.03223810  0.70744000  0.58380500  1
  C  2816  1  0.00483506  0.74452700  0.63145100  1
  C  2818  1  0.99373900  0.71429800  0.64906300  1
  C  2825  1  0.02536910  0.67678500  0.60421200  1
  C  2827  1  0.02826710  0.76375600  0.59305300  1
  C  2829  1  0.72796300  0.61401300  0.51779300  1
  C  2830  1  0.73868700  0.59909200  0.50494500  1
  C  2831  1  0.73791400  0.60137200  0.48265400  1
  C  2832  1  0.72804100  0.61931200  0.47328300  1
  C  2833  1  0.71930300  0.63452100  0.48680400  1
  C  2834  1  0.71929000  0.63203500  0.50848400  1
  C  2835  1  0.74664300  0.58440800  0.47138500  1
  C  2837  1  0.75778400  0.56679800  0.50159200  1
  C  2844  1  0.72628000  0.61179300  0.53933500  1
  C  2846  1  0.72321500  0.62278900  0.45214000  1
  C  2848  1  0.22792800  0.32165100  0.97440700  1
  C  2849  1  0.23865900  0.33657400  0.98723400  1
  C  2850  1  0.23789700  0.33428800  0.00951900  1
  C  2851  1  0.22807700  0.31631700  0.01888500  1
  C  2852  1  0.21929300  0.30112500  0.00536500  1
  C  2853  1  0.21927100  0.30361300  0.98368600  1
  C  2854  1  0.24667600  0.35123000  0.02078100  1
  C  2856  1  0.25776000  0.36886700  0.99056800  1
  C  2863  1  0.22630600  0.32393600  0.95293800  1
  C  2865  1  0.22320400  0.31286200  0.04001300  1
  C  2867  1  0.47783300  0.24137400  0.60183400  1
  C  2868  1  0.48863900  0.22858300  0.61676000  1
  C  2869  1  0.48791600  0.20631200  0.61449200  1
  C  2870  1  0.47810600  0.19697100  0.59653100  1
  C  2871  1  0.46929600  0.21051000  0.58131900  1
  C  2872  1  0.46923000  0.23216900  0.58377700  1
  C  2873  1  0.49669100  0.19504600  0.63146700  1
  C  2875  1  0.50776200  0.22523200  0.64904300  1
  C  2882  1  0.47600700  0.26276200  0.60416700  1
  C  2884  1  0.47322400  0.17585700  0.59310000  1
  C  2886  1  0.97793800  0.69807500  0.89421500  1
  C  2887  1  0.98867000  0.71095600  0.87929200  1
  C  2888  1  0.98792100  0.73323400  0.88156600  1
  C  2889  1  0.97807800  0.74254700  0.89951600  1
  C  2890  1  0.96932000  0.72897400  0.91472800  1
  C  2891  1  0.96929300  0.70729800  0.91224800  1
  C  2892  1  0.99669600  0.74454100  0.86461300  1
  C  2894  1  0.00777306  0.71437800  0.84700000  1
  C  2901  1  0.97636300  0.67658800  0.89194600  1
  C  2903  1  0.97322300  0.76367300  0.90298200  1
  C  2905  1  0.97785300  0.69430100  0.09990800  1
  C  2906  1  0.98864900  0.70708400  0.11482000  1
  C  2907  1  0.98790900  0.72937100  0.11255100  1
  C  2908  1  0.97812000  0.73877600  0.09457900  1
  C  2909  1  0.96932500  0.72526000  0.07937400  1
  C  2910  1  0.96926100  0.70358000  0.08184700  1
  C  2911  1  0.99667200  0.74060000  0.12952800  1
  C  2913  1  0.00776806  0.71036000  0.14710900  1
  C  2920  1  0.97624600  0.67285000  0.10211800  1
  C  2922  1  0.97308400  0.75992000  0.09129300  1
  C  2924  1  0.47793400  0.24142400  0.39228400  1
  C  2925  1  0.48867700  0.22861100  0.37736000  1
  C  2926  1  0.48791200  0.20632300  0.37963600  1
  C  2927  1  0.47803800  0.19697000  0.39759500  1
  C  2928  1  0.46931100  0.21048800  0.41281600  1
  C  2929  1  0.46926100  0.23215200  0.41031400  1
  C  2930  1  0.49666700  0.19508000  0.36265900  1
  C  2932  1  0.50776800  0.22530900  0.34506000  1
  C  2939  1  0.47607700  0.26287700  0.38997900  1
  C  2941  1  0.47299100  0.17586400  0.40096900  1
  C  2943  1  0.02356910  0.69418100  0.39229800  1
  C  2944  1  0.01281210  0.70703200  0.37736400  1
  C  2945  1  0.01357710  0.72931200  0.37961900  1
  C  2946  1  0.02340610  0.73865400  0.39756800  1
  C  2947  1  0.03217510  0.72509900  0.41278400  1
  C  2948  1  0.03222010  0.70343500  0.41032000  1
  C  2949  1  0.00480906  0.74059400  0.36264600  1
  C  2951  1  0.99373400  0.71042900  0.34505400  1
  C  2958  1  0.02547410  0.67269200  0.39002600  1
  C  2960  1  0.02850510  0.75975400  0.40087500  1
  C  2962  1  0.52358800  0.24147000  0.09985000  1
  C  2963  1  0.51282400  0.22862600  0.11477700  1
  C  2964  1  0.51359100  0.20634700  0.11251800  1
  C  2965  1  0.52343100  0.19700600  0.09456200  1
  C  2966  1  0.53217200  0.21058200  0.07934000  1
  C  2967  1  0.53223400  0.23224100  0.08182000  1
  C  2968  1  0.50482500  0.19509600  0.12951600  1
  C  2970  1  0.49374000  0.22525900  0.14708800  1
  C  2977  1  0.52547700  0.26291600  0.10217300  1
  C  2979  1  0.52866300  0.17592600  0.09125400  1
  C  2981  1  0.77347100  0.11601900  0.47626900  1
  C  2982  1  0.76277900  0.10108500  0.48916800  1
  C  2983  1  0.76358400  0.10333800  0.51145200  1
  C  2984  1  0.77351900  0.12126900  0.52074600  1
  C  2985  1  0.78215100  0.13652200  0.50714500  1
  C  2986  1  0.78215600  0.13403600  0.48548000  1
  C  2987  1  0.75485800  0.08633100  0.52273000  1
  C  2989  1  0.74371100  0.06877200  0.49257000  1
  C  2996  1  0.77534300  0.11366100  0.45479100  1
  C  2998  1  0.77885300  0.12459800  0.54179100  1
  C  3000  1  0.27365900  0.82358500  0.01961700  1
  C  3001  1  0.26284800  0.83850800  0.00682300  1
  C  3002  1  0.26360100  0.83624400  0.98455700  1
  C  3003  1  0.27345300  0.81828000  0.97525400  1
  C  3004  1  0.28218300  0.80303400  0.98879700  1
  C  3005  1  0.28225400  0.80551500  0.01044100  1
  C  3006  1  0.25481200  0.85322400  0.97329600  1
  C  3008  1  0.24374200  0.87080300  0.00347900  1
  C  3015  1  0.27550500  0.82591300  0.04098800  1
  C  3017  1  0.27870000  0.81496400  0.95421700  1
  C  3019  1  0.22792000  0.11599200  0.01962900  1
  C  3020  1  0.23869500  0.10108000  0.00685400  1
  C  3021  1  0.23790800  0.10336700  0.98458000  1
  C  3022  1  0.22803400  0.12133000  0.97521600  1
  C  3023  1  0.21932700  0.13655600  0.98874500  1
  C  3024  1  0.21929500  0.13405900  0.01040100  1
  C  3025  1  0.24666000  0.08637000  0.97338700  1
  C  3027  1  0.25778400  0.06877700  0.00358900  1
  C  3034  1  0.22583100  0.11350800  0.04101100  1
  C  3036  1  0.22264200  0.12461000  0.95417400  1
  C  3038  1  0.72797100  0.82361600  0.47634000  1
  C  3039  1  0.73871100  0.83852200  0.48917100  1
  C  3040  1  0.73791400  0.83621700  0.51144700  1
  C  3041  1  0.72801900  0.81825500  0.52076800  1
  C  3042  1  0.71933000  0.80303400  0.50723800  1
  C  3043  1  0.71930100  0.80556800  0.48558300  1
  C  3044  1  0.74666600  0.85317200  0.52270200  1
  C  3046  1  0.75777800  0.87082900  0.49252000  1
  C  3053  1  0.72603600  0.82598500  0.45487600  1
  C  3055  1  0.72277600  0.81485600  0.54181200  1
  C  3057  1  0.24250400  0.48983300  0.08988700  1
  C  3058  1  0.26018800  0.48397800  0.07707200  1
  C  3059  1  0.26987700  0.46350500  0.07827600  1
  C  3060  1  0.26157400  0.44792200  0.09228300  1
  C  3061  1  0.24369900  0.45424200  0.10447900  1
  C  3062  1  0.23443300  0.47424900  0.10334700  1
  C  3063  1  0.28762800  0.46047000  0.06479600  1
  C  3065  1  0.28445300  0.49418600  0.05016700  1
  C  3072  1  0.22855600  0.50556700  0.08256600  1
  C  3074  1  0.26934200  0.42754400  0.09727700  1
  C  3076  1  0.74247200  0.44611400  0.40228900  1
  C  3077  1  0.76011100  0.45195700  0.41525800  1
  C  3078  1  0.76981100  0.47239000  0.41404100  1
  C  3079  1  0.76156700  0.48789200  0.39990400  1
  C  3080  1  0.74365700  0.48165400  0.38769700  1
  C  3081  1  0.73431900  0.46166700  0.38884400  1
  C  3082  1  0.78767500  0.47529500  0.42741500  1
  C  3084  1  0.78455800  0.44157700  0.44203800  1
  C  3091  1  0.72961000  0.42909900  0.40964900  1
  C  3093  1  0.76942500  0.50818700  0.39484700  1
  C  3095  1  0.49262200  0.12596300  0.76980900  1
  C  3096  1  0.51017500  0.13894900  0.76394300  1
  C  3097  1  0.51984400  0.13772500  0.74349700  1
  C  3098  1  0.51156100  0.12363800  0.72801300  1
  C  3099  1  0.49365700  0.11142600  0.73432300  1
  C  3100  1  0.48434300  0.11257700  0.75430900  1
  C  3101  1  0.53768800  0.15111800  0.74054400  1
  C  3103  1  0.53456400  0.16571900  0.77422200  1
  C  3110  1  0.47941300  0.13290100  0.78626800  1
  C  3112  1  0.51941800  0.11857500  0.70772300  1
  C  3114  1  0.99178500  0.81269700  0.72634900  1
  C  3115  1  0.00980106  0.80030100  0.73191700  1
  C  3116  1  0.01979710  0.80184000  0.75225800  1
  C  3117  1  0.01161710  0.81587800  0.76783700  1
  C  3118  1  0.99378600  0.82810100  0.76144700  1
  C  3119  1  0.98431100  0.82677100  0.74157100  1
  C  3120  1  0.03764210  0.78849400  0.75530300  1
  C  3122  1  0.03437110  0.77391300  0.72159900  1
  C  3129  1  0.97817200  0.80735300  0.70958000  1
  C  3131  1  0.01940110  0.82094300  0.78821500  1
  C  3133  1  0.25884600  0.44604100  0.90415400  1
  C  3134  1  0.24134200  0.45192000  0.91721400  1
  C  3135  1  0.23168100  0.47237700  0.91598800  1
  C  3136  1  0.23993600  0.48789100  0.90186400  1
  C  3137  1  0.25783400  0.48162500  0.88965400  1
  C  3138  1  0.26714100  0.46163000  0.89082600  1
  C  3139  1  0.21382800  0.47530400  0.92936200  1
  C  3141  1  0.21692500  0.44158900  0.94400300  1
  C  3148  1  0.27195300  0.42949100  0.91112100  1
  C  3150  1  0.23210400  0.50822800  0.89687900  1
  C  3152  1  0.75959500  0.48952500  0.58690800  1
  C  3153  1  0.74150100  0.48393700  0.57466700  1
  C  3154  1  0.73167300  0.46354400  0.57620500  1
  C  3155  1  0.73996300  0.44798300  0.59025700  1
  C  3156  1  0.75778700  0.45442800  0.60247800  1
  C  3157  1  0.76723800  0.47436000  0.60105300  1
  C  3158  1  0.71385400  0.46049800  0.56283500  1
  C  3160  1  0.71695500  0.49421100  0.54815000  1
  C  3167  1  0.77265500  0.50649200  0.58075400  1
  C  3169  1  0.73220200  0.42755200  0.59522700  1
  C  3171  1  0.00970706  0.80872900  0.22443100  1
  C  3172  1  0.99165600  0.79638000  0.22997100  1
  C  3173  1  0.98169400  0.79793300  0.25031400  1
  C  3174  1  0.98989900  0.81198300  0.26587400  1
  C  3175  1  0.00773606  0.82419900  0.25946700  1
  C  3176  1  0.01720310  0.82286000  0.23958400  1
  C  3177  1  0.96385400  0.78458700  0.25336100  1
  C  3179  1  0.96708800  0.76997700  0.21966900  1
  C  3186  1  0.02310910  0.80315400  0.20759700  1
  C  3188  1  0.98211200  0.81705000  0.28624700  1
  C  3190  1  0.50889200  0.12593200  0.26787700  1
  C  3191  1  0.49135200  0.13895600  0.26199200  1
  C  3192  1  0.48167000  0.13773400  0.24155200  1
  C  3193  1  0.48994800  0.12362300  0.22609500  1
  C  3194  1  0.50786400  0.11143000  0.23237500  1
  C  3195  1  0.51716800  0.11259200  0.25235400  1
  C  3196  1  0.46381600  0.15112000  0.23859300  1
  C  3198  1  0.46693700  0.16572200  0.27226500  1
  C  3205  1  0.52205500  0.13289700  0.28434300  1
  C  3207  1  0.48209800  0.11854300  0.20583600  1
  C  3209  1  0.74263300  0.99161900  0.59194300  1
  C  3210  1  0.76017300  0.98573200  0.57895400  1
  C  3211  1  0.76984500  0.96526700  0.58016400  1
  C  3212  1  0.76158500  0.94970000  0.59424900  1
  C  3213  1  0.74369700  0.95598300  0.60645100  1
  C  3214  1  0.73440900  0.97599500  0.60529300  1
  C  3215  1  0.78765600  0.96233800  0.56673000  1
  C  3217  1  0.78451000  0.99605600  0.55210700  1
  C  3224  1  0.72914700  0.00781900  0.58487500  1
  C  3226  1  0.76950400  0.92936400  0.59928700  1
  C  3228  1  0.24269400  0.94799800  0.90402000  1
  C  3229  1  0.26015700  0.95388200  0.91714300  1
  C  3230  1  0.26982600  0.97434100  0.91593700  1
  C  3231  1  0.26158500  0.98985700  0.90178800  1
  C  3232  1  0.24366200  0.98363000  0.88961100  1
  C  3233  1  0.23436700  0.96363000  0.89076200  1
  C  3234  1  0.28766400  0.97725200  0.92934800  1
  C  3236  1  0.28453100  0.94353800  0.94397900  1
  C  3243  1  0.22947900  0.93153400  0.91100900  1
  C  3245  1  0.26951600  0.01014200  0.89672700  1
  C  3247  1  0.99266900  0.62390500  0.26794700  1
  C  3248  1  0.01022410  0.63687600  0.26204600  1
  C  3249  1  0.01986210  0.63568000  0.24156700  1
  C  3250  1  0.01159010  0.62162800  0.22603000  1
  C  3251  1  0.99368700  0.60943300  0.23237300  1
  C  3252  1  0.98437400  0.61059400  0.25238600  1
  C  3253  1  0.03766310  0.64912500  0.23859100  1
  C  3255  1  0.03453410  0.66373800  0.27226000  1
  C  3262  1  0.97922700  0.63108000  0.28415600  1
  C  3264  1  0.01949210  0.61666500  0.20566900  1
  C  3266  1  0.49260600  0.31168500  0.22415800  1
  C  3267  1  0.51022100  0.29880500  0.23009000  1
  C  3268  1  0.51987200  0.30001100  0.25056500  1
  C  3269  1  0.51159900  0.31404800  0.26611100  1
  C  3270  1  0.49370100  0.32623300  0.25975000  1
  C  3271  1  0.48439600  0.32504200  0.23973400  1
  C  3272  1  0.53766100  0.28655700  0.25355400  1
  C  3274  1  0.53452900  0.27194300  0.21988800  1
  C  3281  1  0.47912400  0.30445700  0.20802100  1
  C  3283  1  0.51948800  0.31900400  0.28648300  1
  C  3285  1  0.75890500  0.94867100  0.40567500  1
  C  3286  1  0.74168800  0.95423200  0.41932600  1
  C  3287  1  0.73179600  0.97454400  0.41813400  1
  C  3288  1  0.73984600  0.99010300  0.40390900  1
  C  3289  1  0.75778700  0.98412800  0.39162500  1
  C  3290  1  0.76734700  0.96432300  0.39264000  1
  C  3291  1  0.71379900  0.97720000  0.43138000  1
  C  3293  1  0.71709900  0.94339900  0.44582400  1
  C  3300  1  0.77075300  0.93074800  0.41059000  1
  C  3302  1  0.73179900  0.01028100  0.39873400  1
  C  3304  1  0.25882600  0.99157300  0.08996200  1
  C  3305  1  0.24128700  0.98572300  0.07697400  1
  C  3306  1  0.23165100  0.96524500  0.07820200  1
  C  3307  1  0.23991500  0.94967600  0.09229600  1
  C  3308  1  0.25780800  0.95598800  0.10449800  1
  C  3309  1  0.26711900  0.97600400  0.10332300  1
  C  3310  1  0.21383800  0.96231800  0.06477400  1
  C  3312  1  0.21694900  0.99603200  0.05012400  1
  C  3319  1  0.27216100  0.00791000  0.08287200  1
  C  3321  1  0.23197800  0.92932000  0.09734800  1
  C  3323  1  0.50884700  0.31179500  0.72625800  1
  C  3324  1  0.49137300  0.29867800  0.73217500  1
  C  3325  1  0.48167600  0.29988600  0.75261800  1
  C  3326  1  0.48991200  0.31399800  0.76812100  1
  C  3327  1  0.50780900  0.32622100  0.76184500  1
  C  3328  1  0.51714200  0.32507000  0.74185700  1
  C  3329  1  0.46380800  0.28650500  0.75553200  1
  C  3331  1  0.46694700  0.27191200  0.72185500  1
  C  3338  1  0.52190000  0.30496000  0.70958600  1
  C  3340  1  0.48197000  0.31903600  0.78840400  1
  C  3342  1  0.00878106  0.62768600  0.76982100  1
  C  3343  1  0.99133300  0.64084000  0.76388900  1
  C  3344  1  0.98166200  0.63965200  0.74342100  1
  C  3345  1  0.98985600  0.62552800  0.72788800  1
  C  3346  1  0.00779206  0.61336000  0.73419400  1
  C  3347  1  0.01711910  0.61449300  0.75419100  1
  C  3348  1  0.96381900  0.65306100  0.74051500  1
  C  3350  1  0.96695500  0.66765400  0.77419500  1
  C  3357  1  0.02194610  0.63464600  0.78631800  1
  C  3359  1  0.98188700  0.62039600  0.70757100  1
  C  3361  1  0.14896300  0.57393400  0.14170400  1
  C  3362  1  0.13596100  0.58644300  0.12837700  1
  C  3363  1  0.11323400  0.58477500  0.12996100  1
  C  3364  1  0.10325800  0.57073700  0.14452300  1
  C  3365  1  0.11717300  0.55793900  0.15643500  1
  C  3366  1  0.13940100  0.55930500  0.15505800  1
  C  3367  1  0.10202200  0.59767900  0.11595000  1
  C  3369  1  0.13277100  0.61259700  0.10164100  1
  C  3376  1  0.17076700  0.57647500  0.14266000  1
  C  3378  1  0.08138510  0.56571600  0.14721800  1
  C  3380  1  0.64897500  0.36176000  0.35048000  1
  C  3381  1  0.63596800  0.34924200  0.36379200  1
  C  3382  1  0.61323900  0.35090000  0.36219800  1
  C  3383  1  0.60326900  0.36497800  0.34767200  1
  C  3384  1  0.61718400  0.37773200  0.33571700  1
  C  3385  1  0.63941100  0.37636400  0.33709900  1
  C  3386  1  0.60202300  0.33799000  0.37619900  1
  C  3388  1  0.63277200  0.32306200  0.39050100  1
  C  3395  1  0.67078100  0.35913400  0.34937900  1
  C  3397  1  0.58139000  0.36995300  0.34493000  1
  C  3399  1  0.39898600  0.07421500  0.85414200  1
  C  3400  1  0.38597800  0.08750800  0.86663000  1
  C  3401  1  0.36325200  0.08592200  0.86495900  1
  C  3402  1  0.35330700  0.07138200  0.85093200  1
  C  3403  1  0.36722500  0.05947800  0.83818300  1
  C  3404  1  0.38944300  0.06087100  0.83954700  1
  C  3405  1  0.35202600  0.09990500  0.87783400  1
  C  3407  1  0.38277900  0.11416600  0.89275600  1
  C  3414  1  0.42078100  0.07308800  0.85679300  1
  C  3416  1  0.33148100  0.06873300  0.84579200  1
  C  3418  1  0.89900900  0.86538100  0.64192300  1
  C  3419  1  0.88597700  0.85209200  0.62943400  1
  C  3420  1  0.86323900  0.85365500  0.63108900  1
  C  3421  1  0.85328500  0.86818800  0.64511800  1
  C  3422  1  0.86720600  0.88009700  0.65786900  1
  C  3423  1  0.88943300  0.87872000  0.65650600  1
  C  3424  1  0.85203800  0.83966400  0.61818100  1
  C  3426  1  0.88279400  0.82540200  0.60332100  1
  C  3433  1  0.92084600  0.86633400  0.63938500  1
  C  3435  1  0.83144800  0.87083900  0.65023500  1
  C  3437  1  0.85230900  0.57387900  0.35058100  1
  C  3438  1  0.86539300  0.58643000  0.36377100  1
  C  3439  1  0.88812800  0.58475500  0.36219800  1
  C  3440  1  0.89805700  0.57062600  0.34775100  1
  C  3441  1  0.88412500  0.55801100  0.33573000  1
  C  3442  1  0.86189800  0.55937800  0.33715100  1
  C  3443  1  0.89934100  0.59760600  0.37622200  1
  C  3445  1  0.86863900  0.61257900  0.39043000  1
  C  3452  1  0.83040900  0.57622000  0.34988700  1
  C  3454  1  0.91985300  0.56528300  0.34530400  1
  C  3456  1  0.35230700  0.36179500  0.14157000  1
  C  3457  1  0.36539400  0.34924700  0.12838100  1
  C  3458  1  0.38812700  0.35092400  0.12996500  1
  C  3459  1  0.39805600  0.36500600  0.14445600  1
  C  3460  1  0.38411600  0.37767200  0.15642000  1
  C  3461  1  0.36188800  0.37631000  0.15498900  1
  C  3462  1  0.39934900  0.33804000  0.11598000  1
  C  3464  1  0.36865200  0.32310500  0.10171800  1
  C  3471  1  0.33040900  0.35945200  0.14226500  1
  C  3473  1  0.41984400  0.37038100  0.14688000  1
  C  3475  1  0.60229900  0.07428500  0.64201500  1
  C  3476  1  0.61539700  0.08748900  0.62943600  1
  C  3477  1  0.63813300  0.08590600  0.63111900  1
  C  3478  1  0.64802800  0.07138000  0.64524500  1
  C  3479  1  0.63408600  0.05938200  0.65791800  1
  C  3480  1  0.61186700  0.06083100  0.65655600  1
  C  3481  1  0.64936000  0.09992100  0.61819900  1
  C  3483  1  0.61866100  0.11420500  0.60324200  1
  C  3490  1  0.58039800  0.07361500  0.63970200  1
  C  3492  1  0.66977000  0.06896300  0.65072700  1
  C  3494  1  0.10228200  0.86526600  0.85402400  1
  C  3495  1  0.11538400  0.85207700  0.86661700  1
  C  3496  1  0.13812200  0.85366500  0.86494600  1
  C  3497  1  0.14802700  0.86816700  0.85080400  1
  C  3498  1  0.13409100  0.88018800  0.83814900  1
  C  3499  1  0.11186900  0.87874800  0.83951900  1
  C  3500  1  0.14934600  0.83965600  0.87786800  1
  C  3502  1  0.11864500  0.82537600  0.89282200  1
  C  3509  1  0.08036510  0.86604500  0.85638200  1
  C  3511  1  0.16978300  0.87059200  0.84534600  1
  C  3513  1  0.35249400  0.36173100  0.85243400  1
  C  3514  1  0.36552600  0.34922500  0.86574400  1
  C  3515  1  0.38826200  0.35089400  0.86415600  1
  C  3516  1  0.39822400  0.36493400  0.84958700  1
  C  3517  1  0.38429500  0.37772600  0.83768000  1
  C  3518  1  0.36206000  0.37635400  0.83906900  1
  C  3519  1  0.39949900  0.33799600  0.87817200  1
  C  3521  1  0.36874100  0.32306900  0.89247700  1
  C  3528  1  0.33066900  0.35915700  0.85151700  1
  C  3530  1  0.42009400  0.36996900  0.84689900  1
  C  3532  1  0.85280400  0.57389000  0.63954500  1
  C  3533  1  0.86590900  0.58646600  0.62632100  1
  C  3534  1  0.88869100  0.58501100  0.62797100  1
  C  3535  1  0.89858700  0.57124900  0.64279200  1
  C  3536  1  0.88473000  0.55807200  0.65436400  1
  C  3537  1  0.86246600  0.55925000  0.65284900  1
  C  3538  1  0.90005700  0.59774000  0.61381800  1
  C  3540  1  0.86911500  0.61265800  0.59966500  1
  C  3547  1  0.83088500  0.57651400  0.64053200  1
  C  3549  1  0.92053700  0.56778400  0.64681300  1
  C  3551  1  0.10257000  0.86142900  0.13997400  1
  C  3552  1  0.11572400  0.84824500  0.12749300  1
  C  3553  1  0.13847000  0.84995800  0.12921200  1
  C  3554  1  0.14827600  0.86468200  0.14315900  1
  C  3555  1  0.13422900  0.87636200  0.15597100  1
  C  3556  1  0.11202700  0.87477900  0.15461400  1
  C  3557  1  0.14988600  0.83587500  0.11658000  1
  C  3559  1  0.11913200  0.82160100  0.10140500  1
  C  3566  1  0.08072910  0.86242800  0.13735400  1
  C  3568  1  0.17006700  0.86813600  0.14803800  1
  C  3570  1  0.60280300  0.07428000  0.35218200  1
  C  3571  1  0.61572200  0.08764400  0.36471900  1
  C  3572  1  0.63848600  0.08619700  0.36324800  1
  C  3573  1  0.64850200  0.07163000  0.34938200  1
  C  3574  1  0.63479700  0.05982100  0.33629800  1
  C  3575  1  0.61252400  0.06105700  0.33755800  1
  C  3576  1  0.64968700  0.10024400  0.37617000  1
  C  3578  1  0.61871200  0.11424400  0.39090500  1
  C  3585  1  0.58096800  0.07319700  0.35475500  1
  C  3587  1  0.67052200  0.06833000  0.34584200  1
  C  3589  1  0.64916400  0.36177600  0.63955700  1
  C  3590  1  0.63591200  0.34924500  0.62648700  1
  C  3591  1  0.61316100  0.35098500  0.62819600  1
  C  3592  1  0.60341300  0.36505900  0.64283000  1
  C  3593  1  0.61749000  0.37770800  0.65463400  1
  C  3594  1  0.63969300  0.37632900  0.65300600  1
  C  3595  1  0.60173100  0.33837900  0.61408200  1
  C  3597  1  0.63243000  0.32314100  0.59985200  1
  C  3604  1  0.67110000  0.35940600  0.64009700  1
  C  3606  1  0.58169200  0.37026100  0.64604800  1
  C  3608  1  0.14899300  0.57384500  0.85266800  1
  C  3609  1  0.13594100  0.58645700  0.86587800  1
  C  3610  1  0.11317100  0.58497500  0.86442200  1
  C  3611  1  0.10321600  0.57103100  0.84990300  1
  C  3612  1  0.11695900  0.55805500  0.83803200  1
  C  3613  1  0.13923700  0.55932500  0.83933400  1
  C  3614  1  0.10192600  0.59790000  0.87844900  1
  C  3616  1  0.13283800  0.61268200  0.89245700  1
  C  3623  1  0.17097300  0.57616100  0.85197700  1
  C  3625  1  0.08125810  0.56713500  0.84684900  1
  C  3627  1  0.89885400  0.86122300  0.35205600  1
  C  3628  1  0.88570900  0.84807800  0.36469600  1
  C  3629  1  0.86292500  0.84972200  0.36322000  1
  C  3630  1  0.85306600  0.86451500  0.34940600  1
  C  3631  1  0.86693500  0.87614200  0.33630000  1
  C  3632  1  0.88918900  0.87459100  0.33747500  1
  C  3633  1  0.85155100  0.83558000  0.37596300  1
  C  3635  1  0.88245400  0.82144100  0.39091500  1
  C  3642  1  0.92083200  0.86199200  0.35441100  1
  C  3644  1  0.83116600  0.86833200  0.34562700  1
  C  3646  1  0.39921200  0.07431300  0.14007700  1
  C  3647  1  0.38611600  0.08751100  0.12748700  1
  C  3648  1  0.36337300  0.08592000  0.12916000  1
  C  3649  1  0.35345400  0.07141100  0.14328800  1
  C  3650  1  0.36738700  0.05940300  0.15596000  1
  C  3651  1  0.38961400  0.06083900  0.15458900  1
  C  3652  1  0.35212900  0.09993300  0.11625900  1
  C  3654  1  0.38285000  0.11420900  0.10128500  1
  C  3661  1  0.42113500  0.07355000  0.13773300  1
  C  3663  1  0.33166600  0.06897200  0.14866500  1
  C  3665  1  0.20344300  0.69478900  0.06217400  1
  C  3666  1  0.21682300  0.70840100  0.04993000  1
  C  3667  1  0.21522600  0.73099600  0.05145600  1
  C  3668  1  0.20080600  0.74083100  0.06606100  1
  C  3669  1  0.18864400  0.72648600  0.07827400  1
  C  3670  1  0.18965600  0.70457200  0.07642800  1
  C  3671  1  0.22845200  0.74215300  0.03725200  1
  C  3673  1  0.24466200  0.71169900  0.02440400  1
  C  3680  1  0.20333100  0.67268000  0.05952700  1
  C  3682  1  0.19464700  0.76239700  0.06928400  1
  C  3684  1  0.70310100  0.24106900  0.43001700  1
  C  3685  1  0.71646500  0.22760100  0.44240300  1
  C  3686  1  0.71454500  0.20506200  0.44126200  1
  C  3687  1  0.69960500  0.19526000  0.42708400  1
  C  3688  1  0.68766600  0.20928100  0.41446400  1
  C  3689  1  0.68910300  0.23122800  0.41593400  1
  C  3690  1  0.72816800  0.19403700  0.45528600  1
  C  3692  1  0.74488800  0.22441200  0.46741000  1
  C  3699  1  0.70323300  0.26315500  0.43258200  1
  C  3701  1  0.69895500  0.17389900  0.42020900  1
  C  3703  1  0.45363700  0.15384600  0.97449700  1
  C  3704  1  0.46702300  0.16603000  0.98812000  1
  C  3705  1  0.46518700  0.16448500  0.01064200  1
  C  3706  1  0.45051100  0.14983700  0.02001800  1
  C  3707  1  0.43855500  0.13747300  0.00575600  1
  C  3708  1  0.43975400  0.13946600  0.98395600  1
  C  3709  1  0.47823400  0.17871700  0.02198000  1
  C  3711  1  0.49462800  0.19182100  0.99164400  1
  C  3718  1  0.45349100  0.15656500  0.95250800  1
  C  3720  1  0.44387600  0.14670100  0.04118100  1
  C  3722  1  0.95358700  0.78588300  0.52114600  1
  C  3723  1  0.96704600  0.77357700  0.50770500  1
  C  3724  1  0.96542700  0.77501100  0.48511800  1
  C  3725  1  0.95092400  0.78938600  0.47504200  1
  C  3726  1  0.93879500  0.80175400  0.48925300  1
  C  3727  1  0.93980800  0.80009100  0.51120000  1
  C  3728  1  0.97861500  0.76079300  0.47407800  1
  C  3730  1  0.99447600  0.74750500  0.50452600  1
  C  3737  1  0.95339300  0.78326000  0.54325700  1
  C  3739  1  0.94493900  0.79238800  0.45333800  1
  C  3741  1  0.79803000  0.69469800  0.42990900  1
  C  3742  1  0.78458200  0.70815900  0.44220100  1
  C  3743  1  0.78622000  0.73075100  0.44087800  1
  C  3744  1  0.80075800  0.74078100  0.42653600  1
  C  3745  1  0.81278500  0.72662100  0.41403900  1
  C  3746  1  0.81176900  0.70467200  0.41568400  1
  C  3747  1  0.77309800  0.74178600  0.45518400  1
  C  3749  1  0.75667900  0.71129300  0.46767900  1
  C  3756  1  0.79821400  0.67256600  0.43254300  1
  C  3758  1  0.80686000  0.76241400  0.42374500  1
  C  3760  1  0.29794400  0.24138000  0.06207000  1
  C  3761  1  0.28457600  0.22773700  0.04988900  1
  C  3762  1  0.28644700  0.20521100  0.05134400  1
  C  3763  1  0.30114800  0.19588100  0.06597900  1
  C  3764  1  0.31301800  0.21009600  0.07844700  1
  C  3765  1  0.31179800  0.23190000  0.07646400  1
  C  3766  1  0.27342900  0.19387700  0.03705800  1
  C  3768  1  0.25666800  0.22421800  0.02447200  1
  C  3775  1  0.29805900  0.26339100  0.05936300  1
  C  3777  1  0.30787800  0.17477300  0.06887900  1
  C  3779  1  0.54796600  0.15373200  0.52110800  1
  C  3780  1  0.53457400  0.16599700  0.50750800  1
  C  3781  1  0.53612800  0.16440200  0.48491400  1
  C  3782  1  0.55050400  0.14978400  0.47503400  1
  C  3783  1  0.56275600  0.13765900  0.48941100  1
  C  3784  1  0.56177500  0.13950200  0.51132100  1
  C  3785  1  0.52288200  0.17854300  0.47373700  1
  C  3787  1  0.50706700  0.19193800  0.50416300  1
  C  3794  1  0.54804300  0.15632800  0.54322900  1
  C  3796  1  0.55663000  0.14641500  0.45344100  1
  C  3798  1  0.04829510  0.78580900  0.97477700  1
  C  3799  1  0.03490910  0.77341100  0.98823600  1
  C  3800  1  0.03678710  0.77465200  0.01077300  1
  C  3801  1  0.05176110  0.78880300  0.02057600  1
  C  3802  1  0.06375610  0.80137600  0.00656300  1
  C  3803  1  0.06231210  0.79988200  0.98462000  1
  C  3804  1  0.02313010  0.76070700  0.02184300  1
  C  3806  1  0.00694606  0.74781900  0.99146300  1
  C  3813  1  0.04819010  0.78328200  0.95267700  1
  C  3815  1  0.05247210  0.79570000  0.04193200  1
  C  3817  1  0.29810200  0.24135100  0.93210500  1
  C  3818  1  0.28462200  0.22773100  0.94424100  1
  C  3819  1  0.28638500  0.20521100  0.94276000  1
  C  3820  1  0.30097100  0.19585100  0.92808100  1
  C  3821  1  0.31294300  0.21010800  0.91566000  1
  C  3822  1  0.31186200  0.23190000  0.91765300  1
  C  3823  1  0.27336300  0.19386900  0.95706000  1
  C  3825  1  0.25668600  0.22417300  0.96963300  1
  C  3832  1  0.29851800  0.26331300  0.93487900  1
  C  3834  1  0.30753600  0.17469300  0.92500000  1
  C  3836  1  0.79820700  0.69491600  0.56011700  1
  C  3837  1  0.78480400  0.70862600  0.54798900  1
  C  3838  1  0.78629900  0.73123200  0.54978400  1
  C  3839  1  0.80065200  0.74096200  0.56457600  1
  C  3840  1  0.81287100  0.72647900  0.57656600  1
  C  3841  1  0.81194000  0.70459700  0.57446800  1
  C  3842  1  0.77299100  0.74246700  0.53569700  1
  C  3844  1  0.75702500  0.71205100  0.52241200  1
  C  3851  1  0.79839700  0.67279200  0.55745400  1
  C  3853  1  0.80679100  0.76248600  0.56837800  1
  C  3855  1  0.70340400  0.24126300  0.56000300  1
  C  3856  1  0.71678900  0.22753300  0.54791500  1
  C  3857  1  0.71502700  0.20499400  0.54962200  1
  C  3858  1  0.70043200  0.19574600  0.56445500  1
  C  3859  1  0.68845600  0.21008100  0.57668200  1
  C  3860  1  0.68961100  0.23186100  0.57449100  1
  C  3861  1  0.72816900  0.19359100  0.53547900  1
  C  3863  1  0.74463300  0.22391500  0.52243300  1
  C  3870  1  0.70315800  0.26329900  0.55727500  1
  C  3872  1  0.69368200  0.17467600  0.56779800  1
  C  3874  1  0.20332200  0.69477500  0.93201400  1
  C  3875  1  0.21677500  0.70834000  0.94420900  1
  C  3876  1  0.21524600  0.73094100  0.94263300  1
  C  3877  1  0.20091800  0.74084200  0.92797100  1
  C  3878  1  0.18869100  0.72653000  0.91581500  1
  C  3879  1  0.18960700  0.70461900  0.91770800  1
  C  3880  1  0.22846800  0.74207600  0.95680300  1
  C  3882  1  0.24464600  0.71161700  0.96970300  1
  C  3889  1  0.20305300  0.67263900  0.93464500  1
  C  3891  1  0.19487300  0.76242900  0.92457200  1
  C  3893  1  0.95345600  0.65181300  0.47301500  1
  C  3894  1  0.96702400  0.66404000  0.48642000  1
  C  3895  1  0.96542700  0.66262700  0.50900700  1
  C  3896  1  0.95085100  0.64830900  0.51905200  1
  C  3897  1  0.93878900  0.63583500  0.50489900  1
  C  3898  1  0.93977100  0.63751600  0.48296200  1
  C  3899  1  0.97854500  0.67692800  0.52005000  1
  C  3901  1  0.99450000  0.69006700  0.48954100  1
  C  3908  1  0.95299700  0.65454900  0.45093300  1
  C  3910  1  0.94471800  0.64552800  0.54069800  1
  C  3912  1  0.45350200  0.28370400  0.01955500  1
  C  3913  1  0.46699100  0.27159700  0.00596200  1
  C  3914  1  0.46516200  0.27312800  0.98344100  1
  C  3915  1  0.45042800  0.28773500  0.97409200  1
  C  3916  1  0.43853300  0.30018900  0.98829900  1
  C  3917  1  0.43971500  0.29817200  0.01009400  1
  C  3918  1  0.47819500  0.25886000  0.97211200  1
  C  3920  1  0.49462900  0.24583200  0.00248300  1
  C  3927  1  0.45312200  0.28087700  0.04152000  1
  C  3929  1  0.44367700  0.29063200  0.95297500  1
  C  3931  1  0.04844610  0.65191600  0.01928900  1
  C  3932  1  0.03495210  0.66424800  0.00587500  1
  C  3933  1  0.03679510  0.66301600  0.98334200  1
  C  3934  1  0.05178210  0.64890900  0.97351200  1
  C  3935  1  0.06373810  0.63626300  0.98748700  1
  C  3936  1  0.06238110  0.63777700  0.00942700  1
  C  3937  1  0.02318710  0.67702500  0.97229100  1
  C  3939  1  0.00690906  0.68976500  0.00267400  1
  C  3946  1  0.04856210  0.65453500  0.04136400  1
  C  3948  1  0.05224610  0.64197400  0.95220500  1
  C  3950  1  0.54810500  0.28381300  0.47305500  1
  C  3951  1  0.53460700  0.27164000  0.48663100  1
  C  3952  1  0.53615500  0.27324400  0.50922300  1
  C  3953  1  0.55064800  0.28779100  0.51904800  1
  C  3954  1  0.56281400  0.30001700  0.50473000  1
  C  3955  1  0.56183000  0.29813300  0.48282900  1
  C  3956  1  0.52290000  0.25908800  0.52040000  1
  C  3958  1  0.50707600  0.24572000  0.48992700  1
  C  3965  1  0.54844700  0.28110000  0.45095900  1
  C  3967  1  0.55685200  0.29099200  0.54058900  1
  C  3969  1  0.53490000  0.58133600  0.09241500  1
  C  3970  1  0.52469500  0.58144100  0.11207500  1
  C  3971  1  0.51898400  0.56293800  0.12296100  1
  C  3972  1  0.52539000  0.54364100  0.11464000  1
  C  3973  1  0.53727500  0.54265800  0.09605700  1
  C  3974  1  0.54142400  0.56136000  0.08464700  1
  C  3977  1  0.53926800  0.60109800  0.08178900  1
  C  3978  1  0.52518000  0.61881700  0.08004000  1
  C  3979  1  0.53165600  0.63803000  0.07011500  1
  C  3980  1  0.55212000  0.63807000  0.06072200  1
  C  3981  1  0.56601700  0.62108200  0.06183500  1
  C  3982  1  0.56029500  0.60407200  0.07449200  1
  C  3993  1  0.03476510  0.35422700  0.39977600  1
  C  3994  1  0.02462310  0.35414300  0.38006100  1
  C  3995  1  0.01886110  0.37263300  0.36921500  1
  C  3996  1  0.02511610  0.39181700  0.37778900  1
  C  3997  1  0.03633810  0.39298100  0.39653200  1
  C  3998  1  0.04114410  0.37410700  0.40783300  1
  C  4001  1  0.03927710  0.33454300  0.41033600  1
  C  4002  1  0.02516710  0.31687900  0.41210800  1
  C  4003  1  0.03165910  0.29769800  0.42202600  1
  C  4004  1  0.05212610  0.29763700  0.43141400  1
  C  4005  1  0.06603810  0.31461200  0.43029200  1
  C  4006  1  0.06031910  0.33161300  0.41762500  1
  C  4017  1  0.78477200  0.12346500  0.86163900  1
  C  4018  1  0.77460400  0.10377400  0.86178200  1
  C  4019  1  0.76886200  0.09292100  0.84330300  1
  C  4020  1  0.77511300  0.10130200  0.82399400  1
  C  4021  1  0.78688400  0.11990000  0.82304500  1
  C  4022  1  0.79109400  0.13139000  0.84165300  1
  C  4025  1  0.78928300  0.13402500  0.88133200  1
  C  4026  1  0.77517800  0.13581100  0.89899700  1
  C  4027  1  0.78169000  0.14576300  0.91811700  1
  C  4028  1  0.80216900  0.15511800  0.91814700  1
  C  4029  1  0.81606300  0.15398700  0.90118900  1
  C  4030  1  0.81032400  0.14132200  0.88424300  1
  C  4041  1  0.28478900  0.81575000  0.63473100  1
  C  4042  1  0.27469200  0.83547000  0.63448000  1
  C  4043  1  0.26885800  0.84626200  0.65290000  1
  C  4044  1  0.27468400  0.83758900  0.67219200  1
  C  4045  1  0.28642300  0.81899100  0.67376100  1
  C  4046  1  0.29118700  0.80791100  0.65487700  1
  C  4049  1  0.28929000  0.80546700  0.61480600  1
  C  4050  1  0.27519100  0.80377100  0.59706700  1
  C  4051  1  0.28164200  0.79385200  0.57787300  1
  C  4052  1  0.30210600  0.78445900  0.57785400  1
  C  4053  1  0.31603200  0.78560300  0.59481100  1
  C  4054  1  0.31032600  0.79824100  0.61179600  1
  C  4065  1  0.10514900  0.58083000  0.40035200  1
  C  4066  1  0.11525100  0.58088300  0.38066100  1
  C  4067  1  0.12114600  0.56240500  0.36998300  1
  C  4068  1  0.11559300  0.54312300  0.37901800  1
  C  4069  1  0.10426700  0.54171100  0.39804700  1
  C  4070  1  0.09906610  0.56075500  0.40851700  1
  C  4073  1  0.10090100  0.60084800  0.41058400  1
  C  4074  1  0.11501300  0.61862600  0.41212900  1
  C  4075  1  0.10862800  0.63790500  0.42197100  1
  C  4076  1  0.08818010  0.63799000  0.43138000  1
  C  4077  1  0.07421910  0.62105900  0.43027000  1
  C  4078  1  0.07987410  0.60398800  0.41773000  1
  C  4089  1  0.60514600  0.35486800  0.09180900  1
  C  4090  1  0.61524800  0.35480400  0.11149700  1
  C  4091  1  0.62114500  0.37328100  0.12217100  1
  C  4092  1  0.61558500  0.39256600  0.11313700  1
  C  4093  1  0.60424700  0.39399200  0.09411700  1
  C  4094  1  0.59906400  0.37494300  0.08364100  1
  C  4097  1  0.60089000  0.33486200  0.08158000  1
  C  4098  1  0.61500900  0.31710000  0.08002700  1
  C  4099  1  0.60858700  0.29786100  0.07016200  1
  C  4100  1  0.58813300  0.29775800  0.06077500  1
  C  4101  1  0.57419300  0.31468100  0.06187200  1
  C  4102  1  0.57986000  0.33173200  0.07442800  1
  C  4113  1  0.85516100  0.12407300  0.63507000  1
  C  4114  1  0.86523400  0.10437300  0.63504700  1
  C  4115  1  0.87115200  0.09367500  0.65354500  1
  C  4116  1  0.86562600  0.10269300  0.67281300  1
  C  4117  1  0.85431800  0.12173000  0.67419300  1
  C  4118  1  0.84909900  0.13221800  0.65512500  1
  C  4121  1  0.85091200  0.13432200  0.61503400  1
  C  4122  1  0.86501600  0.13587500  0.59724600  1
  C  4123  1  0.85861600  0.14572600  0.57793800  1
  C  4124  1  0.83815600  0.15512200  0.57784300  1
  C  4125  1  0.82421400  0.15400400  0.59479200  1
  C  4126  1  0.82988200  0.14145700  0.61189500  1
  C  4137  1  0.35514700  0.81552500  0.86097200  1
  C  4138  1  0.36524200  0.83521400  0.86100400  1
  C  4139  1  0.37119900  0.84588200  0.84250500  1
  C  4140  1  0.36563200  0.83689100  0.82323100  1
  C  4141  1  0.35428300  0.81787500  0.82183800  1
  C  4142  1  0.34908800  0.80737900  0.84091500  1
  C  4145  1  0.35089300  0.80527800  0.88100100  1
  C  4146  1  0.36501200  0.80372900  0.89877100  1
  C  4147  1  0.35860800  0.79388600  0.91806700  1
  C  4148  1  0.33816100  0.78446800  0.91818800  1
  C  4149  1  0.32421600  0.78554800  0.90124300  1
  C  4150  1  0.32986800  0.79811900  0.88414700  1
  C  4161  1  0.60518400  0.35411600  0.90199500  1
  C  4162  1  0.61552300  0.35406600  0.88232600  1
  C  4163  1  0.62132800  0.37253800  0.87141100  1
  C  4164  1  0.61508700  0.39179800  0.87980500  1
  C  4165  1  0.60324500  0.39267000  0.89839200  1
  C  4166  1  0.59893500  0.37406300  0.90996500  1
  C  4169  1  0.60031500  0.33427900  0.91225100  1
  C  4170  1  0.61465400  0.31671700  0.91375100  1
  C  4171  1  0.60836700  0.29730000  0.92322400  1
  C  4172  1  0.58741100  0.29634000  0.93109400  1
  C  4173  1  0.57276300  0.31255900  0.92939800  1
  C  4174  1  0.57930000  0.33136600  0.91996500  1
  C  4185  1  0.10515200  0.58128600  0.58989900  1
  C  4186  1  0.11552100  0.58153000  0.60956100  1
  C  4187  1  0.12148800  0.56318600  0.62049900  1
  C  4188  1  0.11547500  0.54390700  0.61207700  1
  C  4189  1  0.10376600  0.54232400  0.59344600  1
  C  4190  1  0.09893110  0.56111700  0.58206300  1
  C  4193  1  0.10031900  0.60132500  0.57980300  1
  C  4194  1  0.11464800  0.61897900  0.57837600  1
  C  4195  1  0.10843200  0.63848000  0.56891700  1
  C  4196  1  0.08748610  0.63938700  0.56099800  1
  C  4197  1  0.07283010  0.62315000  0.56267600  1
  C  4198  1  0.07931910  0.60431900  0.57211500  1
  C  4209  1  0.35550600  0.81198900  0.13297900  1
  C  4210  1  0.36564900  0.83165900  0.13261100  1
  C  4211  1  0.37155600  0.84244100  0.15099200  1
  C  4212  1  0.36569500  0.83385800  0.17030500  1
  C  4213  1  0.35394100  0.81527700  0.17192700  1
  C  4214  1  0.34917300  0.80409500  0.15311500  1
  C  4217  1  0.35080000  0.80195500  0.11307400  1
  C  4218  1  0.36514000  0.79957300  0.09558000  1
  C  4219  1  0.35832500  0.78952500  0.07660500  1
  C  4220  1  0.33717100  0.78217300  0.07611100  1
  C  4221  1  0.32362100  0.78252000  0.09324500  1
  C  4222  1  0.32970800  0.79468800  0.11037900  1
  C  4233  1  0.85548900  0.12351600  0.35970300  1
  C  4234  1  0.86574000  0.10383400  0.35985400  1
  C  4235  1  0.87147000  0.09291300  0.34138500  1
  C  4236  1  0.86520800  0.10127400  0.32207100  1
  C  4237  1  0.85347200  0.11990700  0.32108800  1
  C  4238  1  0.84921600  0.13139300  0.33967900  1
  C  4241  1  0.85073100  0.13410000  0.37937600  1
  C  4242  1  0.86471900  0.13625900  0.39706200  1
  C  4243  1  0.85754900  0.14556800  0.41631200  1
  C  4244  1  0.83705900  0.15431500  0.41665100  1
  C  4245  1  0.82366800  0.15380100  0.39927900  1
  C  4246  1  0.82967600  0.14142800  0.38215300  1
  C  4257  1  0.03551010  0.35471900  0.58957200  1
  C  4258  1  0.02519610  0.35472600  0.60921800  1
  C  4259  1  0.01922210  0.37317500  0.61991000  1
  C  4260  1  0.02484510  0.39243000  0.61086500  1
  C  4261  1  0.03627310  0.39384500  0.59186100  1
  C  4262  1  0.04153710  0.37478300  0.58133500  1
  C  4265  1  0.04011110  0.33456900  0.57965800  1
  C  4266  1  0.02575210  0.31691200  0.57837200  1
  C  4267  1  0.03193410  0.29739700  0.56897500  1
  C  4268  1  0.05288010  0.29642300  0.56109200  1
  C  4269  1  0.06755210  0.31261800  0.56271700  1
  C  4270  1  0.06109810  0.33147700  0.57203000  1
  C  4281  1  0.53548700  0.58097400  0.90256500  1
  C  4282  1  0.52515200  0.58095200  0.88291800  1
  C  4283  1  0.51917200  0.56250200  0.87222300  1
  C  4284  1  0.52481800  0.54326200  0.88128000  1
  C  4285  1  0.53623300  0.54186800  0.90029300  1
  C  4286  1  0.54152400  0.56091700  0.91080900  1
  C  4289  1  0.54008800  0.60112500  0.91249500  1
  C  4290  1  0.52573800  0.61879800  0.91378200  1
  C  4291  1  0.53188100  0.63834300  0.92316600  1
  C  4292  1  0.55282600  0.63929500  0.93105400  1
  C  4293  1  0.56754700  0.62312300  0.92935900  1
  C  4294  1  0.56108300  0.60423000  0.92010200  1
  C  4305  1  0.28517900  0.81158700  0.35896500  1
  C  4306  1  0.27500000  0.83125700  0.35904700  1
  C  4307  1  0.26900500  0.84196800  0.34056800  1
  C  4308  1  0.27463900  0.83301900  0.32128200  1
  C  4309  1  0.28598900  0.81400000  0.31985300  1
  C  4310  1  0.29120100  0.80347400  0.33889800  1
  C  4313  1  0.28965600  0.80127600  0.37891500  1
  C  4314  1  0.27561000  0.79942900  0.39666800  1
  C  4315  1  0.28274500  0.79044100  0.41612200  1
  C  4316  1  0.30320500  0.78158500  0.41652900  1
  C  4317  1  0.31659400  0.78175900  0.39915200  1
  C  4318  1  0.31069800  0.79408200  0.38192400  1
  C  4329  1  0.78545000  0.12394100  0.13348000  1
  C  4330  1  0.77519000  0.10432600  0.13327500  1
  C  4331  1  0.76909600  0.09365800  0.15172300  1
  C  4332  1  0.77460400  0.10263800  0.17101800  1
  C  4333  1  0.78591500  0.12168000  0.17245100  1
  C  4334  1  0.79129500  0.13217800  0.15348500  1
  C  4337  1  0.79010000  0.13424500  0.11371600  1
  C  4338  1  0.77583700  0.13638000  0.09628100  1
  C  4339  1  0.78300200  0.14566600  0.07712200  1
  C  4340  1  0.80361000  0.15398200  0.07611200  1
  C  4341  1  0.81710500  0.15360700  0.09335200  1
  C  4342  1  0.81117800  0.14138200  0.11066200  1
  C  4353  1  0.03521110  0.08317900  0.59372700  1
  C  4354  1  0.02583610  0.08344800  0.61371000  1
  C  4355  1  0.01651610  0.06545100  0.62267100  1
  C  4356  1  0.02321610  0.04590000  0.61520300  1
  C  4357  1  0.03617210  0.04461700  0.59730100  1
  C  4358  1  0.04094610  0.06311900  0.58577700  1
  C  4361  1  0.04038710  0.10280700  0.58360200  1
  C  4362  1  0.02616210  0.12019600  0.58111000  1
  C  4363  1  0.03339510  0.13926900  0.57175000  1
  C  4364  1  0.05403810  0.14015800  0.56360400  1
  C  4365  1  0.06745610  0.12286200  0.56421600  1
  C  4366  1  0.06148610  0.10561200  0.57649000  1
  C  4377  1  0.53492400  0.85611900  0.90252200  1
  C  4378  1  0.52574900  0.85596200  0.88244000  1
  C  4379  1  0.51649600  0.87399200  0.87342900  1
  C  4380  1  0.52318900  0.89354200  0.88088300  1
  C  4381  1  0.53626000  0.89474200  0.89871000  1
  C  4382  1  0.54081700  0.87623200  0.91033000  1
  C  4385  1  0.53995900  0.83634800  0.91269100  1
  C  4386  1  0.52594400  0.81868500  0.91494000  1
  C  4387  1  0.53311100  0.79935700  0.92403900  1
  C  4388  1  0.55362800  0.79895500  0.93267900  1
  C  4389  1  0.56695500  0.81639100  0.93220300  1
  C  4390  1  0.56102000  0.83357000  0.91983000  1
  C  4401  1  0.28528500  0.62251400  0.35988200  1
  C  4402  1  0.27590200  0.60248100  0.35999400  1
  C  4403  1  0.26668400  0.59347300  0.34197800  1
  C  4404  1  0.27348100  0.60100100  0.32246100  1
  C  4405  1  0.28660400  0.61883100  0.32126500  1
  C  4406  1  0.29121100  0.63043000  0.33978700  1
  C  4409  1  0.29036000  0.63236400  0.37980900  1
  C  4410  1  0.27600300  0.63390400  0.39737900  1
  C  4411  1  0.28220500  0.64319200  0.41685600  1
  C  4412  1  0.30316100  0.65099900  0.41781100  1
  C  4413  1  0.31778700  0.64934200  0.40154100  1
  C  4414  1  0.31136400  0.63994300  0.38271800  1
  C  4425  1  0.78529600  0.31315700  0.13229600  1
  C  4426  1  0.77590000  0.33318500  0.13217100  1
  C  4427  1  0.76668400  0.34218600  0.15018400  1
  C  4428  1  0.77349500  0.33464900  0.16969100  1
  C  4429  1  0.78654500  0.31677100  0.17093500  1
  C  4430  1  0.79123000  0.30522400  0.15239000  1
  C  4433  1  0.79037500  0.30332200  0.11237900  1
  C  4434  1  0.77601000  0.30176900  0.09482900  1
  C  4435  1  0.78226000  0.29246800  0.07539100  1
  C  4436  1  0.80323100  0.28471500  0.07440100  1
  C  4437  1  0.81784600  0.28639000  0.09065600  1
  C  4438  1  0.81138700  0.29576500  0.10947600  1
  C  4449  1  0.60472700  0.08248100  0.90290300  1
  C  4450  1  0.61414500  0.08276400  0.88296300  1
  C  4451  1  0.62335800  0.06478000  0.87406700  1
  C  4452  1  0.61731200  0.04519900  0.88217900  1
  C  4453  1  0.60488700  0.04346700  0.90057900  1
  C  4454  1  0.59925100  0.06234300  0.91114300  1
  C  4457  1  0.59980700  0.10232000  0.91277700  1
  C  4458  1  0.61408400  0.11972500  0.91501300  1
  C  4459  1  0.60697300  0.13891600  0.92409400  1
  C  4460  1  0.58633500  0.13997500  0.93228900  1
  C  4461  1  0.57285900  0.12269900  0.93188100  1
  C  4462  1  0.57871800  0.10538400  0.91970400  1
  C  4473  1  0.10495400  0.85664800  0.59297000  1
  C  4474  1  0.11421300  0.85657900  0.61298800  1
  C  4475  1  0.12331500  0.87462800  0.62192700  1
  C  4476  1  0.11725600  0.89419600  0.61380600  1
  C  4477  1  0.10481500  0.89587500  0.59542600  1
  C  4478  1  0.09930410  0.87689000  0.58487700  1
  C  4481  1  0.10021700  0.83649100  0.58317400  1
  C  4482  1  0.11423700  0.81868200  0.58103700  1
  C  4483  1  0.10718200  0.79932200  0.57173800  1
  C  4484  1  0.08667910  0.79897600  0.56315300  1
  C  4485  1  0.07324510  0.81629100  0.56393300  1
  C  4486  1  0.07915310  0.83351500  0.57618600  1
  C  4497  1  0.35467900  0.62311500  0.13292800  1
  C  4498  1  0.36410200  0.60313400  0.13290600  1
  C  4499  1  0.37323000  0.59415100  0.15093600  1
  C  4500  1  0.36712800  0.60230500  0.17044700  1
  C  4501  1  0.35465200  0.62070600  0.17207000  1
  C  4502  1  0.34905100  0.63133000  0.15307000  1
  C  4505  1  0.34982000  0.63263000  0.11268700  1
  C  4506  1  0.36419300  0.63396500  0.09504200  1
  C  4507  1  0.35803600  0.64315100  0.07544800  1
  C  4508  1  0.33708500  0.65094500  0.07439100  1
  C  4509  1  0.32238100  0.64922200  0.09059900  1
  C  4510  1  0.32879700  0.63999000  0.10955100  1
  C  4521  1  0.85468100  0.31255100  0.35924900  1
  C  4522  1  0.86410100  0.33253300  0.35925800  1
  C  4523  1  0.87322800  0.34151500  0.34122400  1
  C  4524  1  0.86712400  0.33333333  0.32171500  1
  C  4525  1  0.85464500  0.31496300  0.32009200  1
  C  4526  1  0.84904900  0.30434200  0.33910000  1
  C  4529  1  0.84983000  0.30303800  0.37950800  1
  C  4530  1  0.86418900  0.30170000  0.39717400  1
  C  4531  1  0.85803600  0.29250300  0.41678100  1
  C  4532  1  0.83709300  0.28467600  0.41780100  1
  C  4533  1  0.82243400  0.28634400  0.40155200  1
  C  4534  1  0.82881900  0.29565300  0.38263200  1
  C  4545  1  0.10547400  0.85595100  0.40476900  1
  C  4546  1  0.11572700  0.85566200  0.38512600  1
  C  4547  1  0.12460800  0.87356600  0.37559600  1
  C  4548  1  0.11756700  0.89309400  0.38284900  1
  C  4549  1  0.10465500  0.89419800  0.40079800  1
  C  4550  1  0.09966010  0.87595800  0.41264600  1
  C  4553  1  0.09985810  0.83622000  0.41457200  1
  C  4554  1  0.11418900  0.81876400  0.41644400  1
  C  4555  1  0.10716400  0.79912700  0.42481100  1
  C  4556  1  0.08617610  0.79780400  0.43192900  1
  C  4557  1  0.07201410  0.81449400  0.43103300  1
  C  4558  1  0.07880910  0.83349700  0.42214600  1
  C  4569  1  0.60473800  0.08320900  0.09147900  1
  C  4570  1  0.61432500  0.08350600  0.11142800  1
  C  4571  1  0.62369500  0.06555800  0.12047000  1
  C  4572  1  0.61695600  0.04601900  0.11302100  1
  C  4573  1  0.60391400  0.04474700  0.09513500  1
  C  4574  1  0.59909100  0.06317600  0.08348200  1
  C  4577  1  0.59922900  0.10286600  0.08157400  1
  C  4578  1  0.61372000  0.12008500  0.07939600  1
  C  4579  1  0.60672800  0.13944400  0.07066900  1
  C  4580  1  0.58561600  0.14144600  0.06428900  1
  C  4581  1  0.57136300  0.12487400  0.06532500  1
  C  4582  1  0.57818500  0.10573900  0.07400900  1
  C  4593  1  0.85526500  0.31282100  0.63416500  1
  C  4594  1  0.86535500  0.33250500  0.63378500  1
  C  4595  1  0.87438400  0.34187300  0.65165300  1
  C  4596  1  0.86725700  0.33481800  0.67127100  1
  C  4597  1  0.85416000  0.31694300  0.67272000  1
  C  4598  1  0.84931300  0.30518600  0.65434000  1
  C  4601  1  0.84967400  0.30308000  0.61432500  1
  C  4602  1  0.86390800  0.30100500  0.59677100  1
  C  4603  1  0.85688900  0.29251700  0.57717700  1
  C  4604  1  0.83585300  0.28569700  0.57584700  1
  C  4605  1  0.82170900  0.28687400  0.59253500  1
  C  4606  1  0.82857700  0.29568900  0.61154700  1
  C  4617  1  0.35523800  0.62608000  0.86160500  1
  C  4618  1  0.36498200  0.60620600  0.86184600  1
  C  4619  1  0.37400300  0.59701200  0.84383100  1
  C  4620  1  0.36704600  0.60451100  0.82434400  1
  C  4621  1  0.35393000  0.62236500  0.82316300  1
  C  4622  1  0.34933100  0.63406000  0.84157400  1
  C  4625  1  0.34991900  0.63577100  0.88142500  1
  C  4626  1  0.36460600  0.63792700  0.89864500  1
  C  4627  1  0.35803100  0.64725900  0.91794900  1
  C  4628  1  0.33644900  0.65288600  0.91957200  1
  C  4629  1  0.32197600  0.65199100  0.90319500  1
  C  4630  1  0.32890500  0.64352900  0.88412600  1
  C  4641  1  0.53546700  0.85657900  0.09052700  1
  C  4642  1  0.52532700  0.85628600  0.11015300  1
  C  4643  1  0.51645000  0.87418700  0.11947100  1
  C  4644  1  0.52297500  0.89384200  0.11177200  1
  C  4645  1  0.53551600  0.89571000  0.09338000  1
  C  4646  1  0.54119500  0.87683500  0.08262600  1
  C  4649  1  0.54075600  0.83641200  0.08107400  1
  C  4650  1  0.52650400  0.81876100  0.07921600  1
  C  4651  1  0.53343200  0.79905200  0.07082600  1
  C  4652  1  0.55444700  0.79766000  0.06397000  1
  C  4653  1  0.56863700  0.81431700  0.06511500  1
  C  4654  1  0.56183700  0.83341400  0.07381100  1
  C  4665  1  0.03547810  0.08273900  0.40488300  1
  C  4666  1  0.02568310  0.08289200  0.38506300  1
  C  4667  1  0.01682510  0.06486400  0.37589300  1
  C  4668  1  0.02305610  0.04537200  0.38409200  1
  C  4669  1  0.03546810  0.04372800  0.40255600  1
  C  4670  1  0.04112010  0.06262900  0.41317300  1
  C  4673  1  0.04052410  0.10288400  0.41425500  1
  C  4674  1  0.02583610  0.12021800  0.41621500  1
  C  4675  1  0.03233910  0.13961600  0.42551700  1
  C  4676  1  0.05390910  0.14128000  0.43114500  1
  C  4677  1  0.06836210  0.12488500  0.43032200  1
  C  4678  1  0.06151210  0.10576800  0.42191700  1
  C  4689  1  0.78595500  0.31266500  0.86082800  1
  C  4690  1  0.77630600  0.33255700  0.86103600  1
  C  4691  1  0.76705400  0.34154300  0.84307000  1
  C  4692  1  0.77312600  0.33342600  0.82353200  1
  C  4693  1  0.78557200  0.31500400  0.82184600  1
  C  4694  1  0.79134100  0.30436900  0.84073500  1
  C  4697  1  0.79120400  0.30307400  0.88079900  1
  C  4698  1  0.77669300  0.30112500  0.89810900  1
  C  4699  1  0.78359700  0.29248400  0.91757600  1
  C  4700  1  0.80468300  0.28605800  0.91963400  1
  C  4701  1  0.81897500  0.28704000  0.90309000  1
  C  4702  1  0.81223000  0.29561700  0.88387800  1
  C  4713  1  0.28525100  0.62698900  0.63495200  1
  C  4714  1  0.27496600  0.60741100  0.63462600  1
  C  4715  1  0.26623700  0.59787000  0.65251900  1
  C  4716  1  0.27278300  0.60563500  0.67213900  1
  C  4717  1  0.28526700  0.62408900  0.67399300  1
  C  4718  1  0.29098100  0.63489300  0.65514500  1
  C  4721  1  0.29053400  0.63658700  0.61487200  1
  C  4722  1  0.27622300  0.63822900  0.59727200  1
  C  4723  1  0.28316800  0.64650000  0.57751400  1
  C  4724  1  0.30414500  0.65361400  0.57613000  1
  C  4725  1  0.31836700  0.65269400  0.59277800  1
  C  4726  1  0.31158100  0.64400100  0.61189500  1
  C  4737  1  0.59303100  0.61402600  0.97441000  1
  C  4738  1  0.58226400  0.59910000  0.98726500  1
  C  4739  1  0.58300300  0.60135600  0.00954700  1
  C  4740  1  0.59281000  0.61932300  0.01887000  1
  C  4741  1  0.60160200  0.63453200  0.00531100  1
  C  4742  1  0.60164500  0.63206900  0.98364000  1
  C  4743  1  0.57422000  0.58438800  0.02084400  1
  C  4745  1  0.56314600  0.56681000  0.99065600  1
  C  4752  1  0.59456700  0.61182400  0.95293700  1
  C  4754  1  0.59766500  0.62276100  0.03999100  1
  C  4756  1  0.09295110  0.32160100  0.51777900  1
  C  4757  1  0.08223210  0.33654500  0.50490500  1
  C  4758  1  0.08298210  0.33429300  0.48261900  1
  C  4759  1  0.09283910  0.31635100  0.47329700  1
  C  4760  1  0.10159800  0.30113100  0.48685900  1
  C  4761  1  0.10163800  0.30359700  0.50853100  1
  C  4762  1  0.07421810  0.35126700  0.47132000  1
  C  4764  1  0.06314410  0.36884800  0.50150600  1
  C  4771  1  0.09476210  0.32391300  0.53925400  1
  C  4773  1  0.09765710  0.31289100  0.45216200  1
  C  4775  1  0.84296300  0.24137400  0.89423000  1
  C  4776  1  0.83220600  0.22858700  0.87930400  1
  C  4777  1  0.83297100  0.20630900  0.88158100  1
  C  4778  1  0.84279900  0.19695600  0.89955500  1
  C  4779  1  0.85157900  0.21046100  0.91476200  1
  C  4780  1  0.85160800  0.23212500  0.91228100  1
  C  4781  1  0.82421600  0.19505200  0.86461600  1
  C  4783  1  0.81313400  0.22529300  0.84700300  1
  C  4790  1  0.84509700  0.26279000  0.89179100  1
  C  4792  1  0.84768400  0.17583700  0.90298700  1
  C  4794  1  0.34300400  0.69819500  0.60186200  1
  C  4795  1  0.33224300  0.71099300  0.61677700  1
  C  4796  1  0.33299300  0.73327400  0.61448600  1
  C  4797  1  0.34280500  0.74262800  0.59650300  1
  C  4798  1  0.35160000  0.72911000  0.58131100  1
  C  4799  1  0.35163900  0.70744000  0.58380500  1
  C  4800  1  0.32423600  0.74452700  0.63145100  1
  C  4802  1  0.31314000  0.71429800  0.64906300  1
  C  4809  1  0.34477000  0.67678500  0.60421200  1
  C  4811  1  0.34766800  0.76375600  0.59305300  1
  C  4813  1  0.04736410  0.61401300  0.51779300  1
  C  4814  1  0.05808810  0.59909200  0.50494500  1
  C  4815  1  0.05731510  0.60137200  0.48265400  1
  C  4816  1  0.04744210  0.61931200  0.47328300  1
  C  4817  1  0.03870410  0.63452100  0.48680400  1
  C  4818  1  0.03869110  0.63203500  0.50848400  1
  C  4819  1  0.06604410  0.58440800  0.47138500  1
  C  4821  1  0.07718510  0.56679800  0.50159200  1
  C  4828  1  0.04568110  0.61179300  0.53933500  1
  C  4830  1  0.04261610  0.62278900  0.45214000  1
  C  4832  1  0.54732900  0.32165100  0.97440700  1
  C  4833  1  0.55806000  0.33657400  0.98723400  1
  C  4834  1  0.55729800  0.33428800  0.00951900  1
  C  4835  1  0.54747800  0.31631700  0.01888500  1
  C  4836  1  0.53869400  0.30112500  0.00536500  1
  C  4837  1  0.53867200  0.30361300  0.98368600  1
  C  4838  1  0.56607700  0.35123000  0.02078100  1
  C  4840  1  0.57716100  0.36886700  0.99056800  1
  C  4847  1  0.54570700  0.32393600  0.95293800  1
  C  4849  1  0.54260500  0.31286200  0.04001300  1
  C  4851  1  0.79723400  0.24137400  0.60183400  1
  C  4852  1  0.80804000  0.22858300  0.61676000  1
  C  4853  1  0.80731700  0.20631200  0.61449200  1
  C  4854  1  0.79750700  0.19697100  0.59653100  1
  C  4855  1  0.78869700  0.21051000  0.58131900  1
  C  4856  1  0.78863100  0.23216900  0.58377700  1
  C  4857  1  0.81609200  0.19504600  0.63146700  1
  C  4859  1  0.82716300  0.22523200  0.64904300  1
  C  4866  1  0.79540800  0.26276200  0.60416700  1
  C  4868  1  0.79262500  0.17585700  0.59310000  1
  C  4870  1  0.29733900  0.69807500  0.89421500  1
  C  4871  1  0.30807100  0.71095600  0.87929200  1
  C  4872  1  0.30732200  0.73323400  0.88156600  1
  C  4873  1  0.29747900  0.74254700  0.89951600  1
  C  4874  1  0.28872100  0.72897400  0.91472800  1
  C  4875  1  0.28869400  0.70729800  0.91224800  1
  C  4876  1  0.31609700  0.74454100  0.86461300  1
  C  4878  1  0.32717400  0.71437800  0.84700000  1
  C  4885  1  0.29576400  0.67658800  0.89194600  1
  C  4887  1  0.29262400  0.76367300  0.90298200  1
  C  4889  1  0.29725400  0.69430100  0.09990800  1
  C  4890  1  0.30805000  0.70708400  0.11482000  1
  C  4891  1  0.30731000  0.72937100  0.11255100  1
  C  4892  1  0.29752100  0.73877600  0.09457900  1
  C  4893  1  0.28872600  0.72526000  0.07937400  1
  C  4894  1  0.28866200  0.70358000  0.08184700  1
  C  4895  1  0.31607300  0.74060000  0.12952800  1
  C  4897  1  0.32716900  0.71036000  0.14710900  1
  C  4904  1  0.29564700  0.67285000  0.10211800  1
  C  4906  1  0.29248500  0.75992000  0.09129300  1
  C  4908  1  0.79733500  0.24142400  0.39228400  1
  C  4909  1  0.80807800  0.22861100  0.37736000  1
  C  4910  1  0.80731300  0.20632300  0.37963600  1
  C  4911  1  0.79743900  0.19697000  0.39759500  1
  C  4912  1  0.78871200  0.21048800  0.41281600  1
  C  4913  1  0.78866200  0.23215200  0.41031400  1
  C  4914  1  0.81606800  0.19508000  0.36265900  1
  C  4916  1  0.82716900  0.22530900  0.34506000  1
  C  4923  1  0.79547800  0.26287700  0.38997900  1
  C  4925  1  0.79239200  0.17586400  0.40096900  1
  C  4927  1  0.34297000  0.69418100  0.39229800  1
  C  4928  1  0.33221300  0.70703200  0.37736400  1
  C  4929  1  0.33297800  0.72931200  0.37961900  1
  C  4930  1  0.34280700  0.73865400  0.39756800  1
  C  4931  1  0.35157600  0.72509900  0.41278400  1
  C  4932  1  0.35162100  0.70343500  0.41032000  1
  C  4933  1  0.32421000  0.74059400  0.36264600  1
  C  4935  1  0.31313500  0.71042900  0.34505400  1
  C  4942  1  0.34487500  0.67269200  0.39002600  1
  C  4944  1  0.34790600  0.75975400  0.40087500  1
  C  4946  1  0.84298900  0.24147000  0.09985000  1
  C  4947  1  0.83222500  0.22862600  0.11477700  1
  C  4948  1  0.83299200  0.20634700  0.11251800  1
  C  4949  1  0.84283200  0.19700600  0.09456200  1
  C  4950  1  0.85157300  0.21058200  0.07934000  1
  C  4951  1  0.85163500  0.23224100  0.08182000  1
  C  4952  1  0.82422600  0.19509600  0.12951600  1
  C  4954  1  0.81314100  0.22525900  0.14708800  1
  C  4961  1  0.84487800  0.26291600  0.10217300  1
  C  4963  1  0.84806400  0.17592600  0.09125400  1
  C  4965  1  0.09287210  0.11601900  0.47626900  1
  C  4966  1  0.08218010  0.10108500  0.48916800  1
  C  4967  1  0.08298510  0.10333800  0.51145200  1
  C  4968  1  0.09292010  0.12126900  0.52074600  1
  C  4969  1  0.10155200  0.13652200  0.50714500  1
  C  4970  1  0.10155700  0.13403600  0.48548000  1
  C  4971  1  0.07425910  0.08633100  0.52273000  1
  C  4973  1  0.06311210  0.06877200  0.49257000  1
  C  4980  1  0.09474410  0.11366100  0.45479100  1
  C  4982  1  0.09825410  0.12459800  0.54179100  1
  C  4984  1  0.59306000  0.82358500  0.01961700  1
  C  4985  1  0.58224900  0.83850800  0.00682300  1
  C  4986  1  0.58300200  0.83624400  0.98455700  1
  C  4987  1  0.59285400  0.81828000  0.97525400  1
  C  4988  1  0.60158400  0.80303400  0.98879700  1
  C  4989  1  0.60165500  0.80551500  0.01044100  1
  C  4990  1  0.57421300  0.85322400  0.97329600  1
  C  4992  1  0.56314300  0.87080300  0.00347900  1
  C  4999  1  0.59490600  0.82591300  0.04098800  1
  C  5001  1  0.59810100  0.81496400  0.95421700  1
  C  5003  1  0.54732100  0.11599200  0.01962900  1
  C  5004  1  0.55809600  0.10108000  0.00685400  1
  C  5005  1  0.55730900  0.10336700  0.98458000  1
  C  5006  1  0.54743500  0.12133000  0.97521600  1
  C  5007  1  0.53872800  0.13655600  0.98874500  1
  C  5008  1  0.53869600  0.13405900  0.01040100  1
  C  5009  1  0.56606100  0.08637000  0.97338700  1
  C  5011  1  0.57718500  0.06877700  0.00358900  1
  C  5018  1  0.54523200  0.11350800  0.04101100  1
  C  5020  1  0.54204300  0.12461000  0.95417400  1
  C  5022  1  0.04737210  0.82361600  0.47634000  1
  C  5023  1  0.05811210  0.83852200  0.48917100  1
  C  5024  1  0.05731510  0.83621700  0.51144700  1
  C  5025  1  0.04742010  0.81825500  0.52076800  1
  C  5026  1  0.03873110  0.80303400  0.50723800  1
  C  5027  1  0.03870210  0.80556800  0.48558300  1
  C  5028  1  0.06606710  0.85317200  0.52270200  1
  C  5030  1  0.07717910  0.87082900  0.49252000  1
  C  5037  1  0.04543710  0.82598500  0.45487600  1
  C  5039  1  0.04217710  0.81485600  0.54181200  1
  C  5041  1  0.56190500  0.48983300  0.08988700  1
  C  5042  1  0.57958900  0.48397800  0.07707200  1
  C  5043  1  0.58927800  0.46350500  0.07827600  1
  C  5044  1  0.58097500  0.44792200  0.09228300  1
  C  5045  1  0.56310000  0.45424200  0.10447900  1
  C  5046  1  0.55383400  0.47424900  0.10334700  1
  C  5047  1  0.60702900  0.46047000  0.06479600  1
  C  5049  1  0.60385400  0.49418600  0.05016700  1
  C  5056  1  0.54795700  0.50556700  0.08256600  1
  C  5058  1  0.58874300  0.42754400  0.09727700  1
  C  5060  1  0.06187310  0.44611400  0.40228900  1
  C  5061  1  0.07951210  0.45195700  0.41525800  1
  C  5062  1  0.08921210  0.47239000  0.41404100  1
  C  5063  1  0.08096810  0.48789200  0.39990400  1
  C  5064  1  0.06305810  0.48165400  0.38769700  1
  C  5065  1  0.05372010  0.46166700  0.38884400  1
  C  5066  1  0.10707600  0.47529500  0.42741500  1
  C  5068  1  0.10395900  0.44157700  0.44203800  1
  C  5075  1  0.04901110  0.42909900  0.40964900  1
  C  5077  1  0.08882610  0.50818700  0.39484700  1
  C  5079  1  0.81202300  0.12596300  0.76980900  1
  C  5080  1  0.82957600  0.13894900  0.76394300  1
  C  5081  1  0.83924500  0.13772500  0.74349700  1
  C  5082  1  0.83096200  0.12363800  0.72801300  1
  C  5083  1  0.81305800  0.11142600  0.73432300  1
  C  5084  1  0.80374400  0.11257700  0.75430900  1
  C  5085  1  0.85708900  0.15111800  0.74054400  1
  C  5087  1  0.85396500  0.16571900  0.77422200  1
  C  5094  1  0.79881400  0.13290100  0.78626800  1
  C  5096  1  0.83881900  0.11857500  0.70772300  1
  C  5098  1  0.31118600  0.81269700  0.72634900  1
  C  5099  1  0.32920200  0.80030100  0.73191700  1
  C  5100  1  0.33919800  0.80184000  0.75225800  1
  C  5101  1  0.33101800  0.81587800  0.76783700  1
  C  5102  1  0.31318700  0.82810100  0.76144700  1
  C  5103  1  0.30371200  0.82677100  0.74157100  1
  C  5104  1  0.35704300  0.78849400  0.75530300  1
  C  5106  1  0.35377200  0.77391300  0.72159900  1
  C  5113  1  0.29757300  0.80735300  0.70958000  1
  C  5115  1  0.33880200  0.82094300  0.78821500  1
  C  5117  1  0.57824700  0.44604100  0.90415400  1
  C  5118  1  0.56074300  0.45192000  0.91721400  1
  C  5119  1  0.55108200  0.47237700  0.91598800  1
  C  5120  1  0.55933700  0.48789100  0.90186400  1
  C  5121  1  0.57723500  0.48162500  0.88965400  1
  C  5122  1  0.58654200  0.46163000  0.89082600  1
  C  5123  1  0.53322900  0.47530400  0.92936200  1
  C  5125  1  0.53632600  0.44158900  0.94400300  1
  C  5132  1  0.59135400  0.42949100  0.91112100  1
  C  5134  1  0.55150500  0.50822800  0.89687900  1
  C  5136  1  0.07899610  0.48952500  0.58690800  1
  C  5137  1  0.06090210  0.48393700  0.57466700  1
  C  5138  1  0.05107410  0.46354400  0.57620500  1
  C  5139  1  0.05936410  0.44798300  0.59025700  1
  C  5140  1  0.07718810  0.45442800  0.60247800  1
  C  5141  1  0.08663910  0.47436000  0.60105300  1
  C  5142  1  0.03325510  0.46049800  0.56283500  1
  C  5144  1  0.03635610  0.49421100  0.54815000  1
  C  5151  1  0.09205610  0.50649200  0.58075400  1
  C  5153  1  0.05160310  0.42755200  0.59522700  1
  C  5155  1  0.32910800  0.80872900  0.22443100  1
  C  5156  1  0.31105700  0.79638000  0.22997100  1
  C  5157  1  0.30109500  0.79793300  0.25031400  1
  C  5158  1  0.30930000  0.81198300  0.26587400  1
  C  5159  1  0.32713700  0.82419900  0.25946700  1
  C  5160  1  0.33660400  0.82286000  0.23958400  1
  C  5161  1  0.28325500  0.78458700  0.25336100  1
  C  5163  1  0.28648900  0.76997700  0.21966900  1
  C  5170  1  0.34251000  0.80315400  0.20759700  1
  C  5172  1  0.30151300  0.81705000  0.28624700  1
  C  5174  1  0.82829300  0.12593200  0.26787700  1
  C  5175  1  0.81075300  0.13895600  0.26199200  1
  C  5176  1  0.80107100  0.13773400  0.24155200  1
  C  5177  1  0.80934900  0.12362300  0.22609500  1
  C  5178  1  0.82726500  0.11143000  0.23237500  1
  C  5179  1  0.83656900  0.11259200  0.25235400  1
  C  5180  1  0.78321700  0.15112000  0.23859300  1
  C  5182  1  0.78633800  0.16572200  0.27226500  1
  C  5189  1  0.84145600  0.13289700  0.28434300  1
  C  5191  1  0.80149900  0.11854300  0.20583600  1
  C  5193  1  0.06203410  0.99161900  0.59194300  1
  C  5194  1  0.07957410  0.98573200  0.57895400  1
  C  5195  1  0.08924610  0.96526700  0.58016400  1
  C  5196  1  0.08098610  0.94970000  0.59424900  1
  C  5197  1  0.06309810  0.95598300  0.60645100  1
  C  5198  1  0.05381010  0.97599500  0.60529300  1
  C  5199  1  0.10705700  0.96233800  0.56673000  1
  C  5201  1  0.10391100  0.99605600  0.55210700  1
  C  5208  1  0.04854810  0.00781900  0.58487500  1
  C  5210  1  0.08890510  0.92936400  0.59928700  1
  C  5212  1  0.56209500  0.94799800  0.90402000  1
  C  5213  1  0.57955800  0.95388200  0.91714300  1
  C  5214  1  0.58922700  0.97434100  0.91593700  1
  C  5215  1  0.58098600  0.98985700  0.90178800  1
  C  5216  1  0.56306300  0.98363000  0.88961100  1
  C  5217  1  0.55376800  0.96363000  0.89076200  1
  C  5218  1  0.60706500  0.97725200  0.92934800  1
  C  5220  1  0.60393200  0.94353800  0.94397900  1
  C  5227  1  0.54888000  0.93153400  0.91100900  1
  C  5229  1  0.58891700  0.01014200  0.89672700  1
  C  5231  1  0.31207000  0.62390500  0.26794700  1
  C  5232  1  0.32962500  0.63687600  0.26204600  1
  C  5233  1  0.33926300  0.63568000  0.24156700  1
  C  5234  1  0.33099100  0.62162800  0.22603000  1
  C  5235  1  0.31308800  0.60943300  0.23237300  1
  C  5236  1  0.30377500  0.61059400  0.25238600  1
  C  5237  1  0.35706400  0.64912500  0.23859100  1
  C  5239  1  0.35393500  0.66373800  0.27226000  1
  C  5246  1  0.29862800  0.63108000  0.28415600  1
  C  5248  1  0.33889300  0.61666500  0.20566900  1
  C  5250  1  0.81200700  0.31168500  0.22415800  1
  C  5251  1  0.82962200  0.29880500  0.23009000  1
  C  5252  1  0.83927300  0.30001100  0.25056500  1
  C  5253  1  0.83100000  0.31404800  0.26611100  1
  C  5254  1  0.81310200  0.32623300  0.25975000  1
  C  5255  1  0.80379700  0.32504200  0.23973400  1
  C  5256  1  0.85706200  0.28655700  0.25355400  1
  C  5258  1  0.85393000  0.27194300  0.21988800  1
  C  5265  1  0.79852500  0.30445700  0.20802100  1
  C  5267  1  0.83888900  0.31900400  0.28648300  1
  C  5269  1  0.07830610  0.94867100  0.40567500  1
  C  5270  1  0.06108910  0.95423200  0.41932600  1
  C  5271  1  0.05119710  0.97454400  0.41813400  1
  C  5272  1  0.05924710  0.99010300  0.40390900  1
  C  5273  1  0.07718810  0.98412800  0.39162500  1
  C  5274  1  0.08674810  0.96432300  0.39264000  1
  C  5275  1  0.03320010  0.97720000  0.43138000  1
  C  5277  1  0.03650010  0.94339900  0.44582400  1
  C  5284  1  0.09015410  0.93074800  0.41059000  1
  C  5286  1  0.05120010  0.01028100  0.39873400  1
  C  5288  1  0.57822700  0.99157300  0.08996200  1
  C  5289  1  0.56068800  0.98572300  0.07697400  1
  C  5290  1  0.55105200  0.96524500  0.07820200  1
  C  5291  1  0.55931600  0.94967600  0.09229600  1
  C  5292  1  0.57720900  0.95598800  0.10449800  1
  C  5293  1  0.58652000  0.97600400  0.10332300  1
  C  5294  1  0.53323900  0.96231800  0.06477400  1
  C  5296  1  0.53635000  0.99603200  0.05012400  1
  C  5303  1  0.59156200  0.00791000  0.08287200  1
  C  5305  1  0.55137900  0.92932000  0.09734800  1
  C  5307  1  0.82824800  0.31179500  0.72625800  1
  C  5308  1  0.81077400  0.29867800  0.73217500  1
  C  5309  1  0.80107700  0.29988600  0.75261800  1
  C  5310  1  0.80931300  0.31399800  0.76812100  1
  C  5311  1  0.82721000  0.32622100  0.76184500  1
  C  5312  1  0.83654300  0.32507000  0.74185700  1
  C  5313  1  0.78320900  0.28650500  0.75553200  1
  C  5315  1  0.78634800  0.27191200  0.72185500  1
  C  5322  1  0.84130100  0.30496000  0.70958600  1
  C  5324  1  0.80137100  0.31903600  0.78840400  1
  C  5326  1  0.32818200  0.62768600  0.76982100  1
  C  5327  1  0.31073400  0.64084000  0.76388900  1
  C  5328  1  0.30106300  0.63965200  0.74342100  1
  C  5329  1  0.30925700  0.62552800  0.72788800  1
  C  5330  1  0.32719300  0.61336000  0.73419400  1
  C  5331  1  0.33652000  0.61449300  0.75419100  1
  C  5332  1  0.28322000  0.65306100  0.74051500  1
  C  5334  1  0.28635600  0.66765400  0.77419500  1
  C  5341  1  0.34134700  0.63464600  0.78631800  1
  C  5343  1  0.30128800  0.62039600  0.70757100  1
  C  5345  1  0.46836400  0.57393400  0.14170400  1
  C  5346  1  0.45536200  0.58644300  0.12837700  1
  C  5347  1  0.43263500  0.58477500  0.12996100  1
  C  5348  1  0.42265900  0.57073700  0.14452300  1
  C  5349  1  0.43657400  0.55793900  0.15643500  1
  C  5350  1  0.45880200  0.55930500  0.15505800  1
  C  5351  1  0.42142300  0.59767900  0.11595000  1
  C  5353  1  0.45217200  0.61259700  0.10164100  1
  C  5360  1  0.49016800  0.57647500  0.14266000  1
  C  5362  1  0.40078600  0.56571600  0.14721800  1
  C  5364  1  0.96837600  0.36176000  0.35048000  1
  C  5365  1  0.95536900  0.34924200  0.36379200  1
  C  5366  1  0.93264000  0.35090000  0.36219800  1
  C  5367  1  0.92267000  0.36497800  0.34767200  1
  C  5368  1  0.93658500  0.37773200  0.33571700  1
  C  5369  1  0.95881200  0.37636400  0.33709900  1
  C  5370  1  0.92142400  0.33799000  0.37619900  1
  C  5372  1  0.95217300  0.32306200  0.39050100  1
  C  5379  1  0.99018200  0.35913400  0.34937900  1
  C  5381  1  0.90079100  0.36995300  0.34493000  1
  C  5383  1  0.71838700  0.07421500  0.85414200  1
  C  5384  1  0.70537900  0.08750800  0.86663000  1
  C  5385  1  0.68265300  0.08592200  0.86495900  1
  C  5386  1  0.67270800  0.07138200  0.85093200  1
  C  5387  1  0.68662600  0.05947800  0.83818300  1
  C  5388  1  0.70884400  0.06087100  0.83954700  1
  C  5389  1  0.67142700  0.09990500  0.87783400  1
  C  5391  1  0.70218000  0.11416600  0.89275600  1
  C  5398  1  0.74018200  0.07308800  0.85679300  1
  C  5400  1  0.65088200  0.06873300  0.84579200  1
  C  5402  1  0.21841000  0.86538100  0.64192300  1
  C  5403  1  0.20537800  0.85209200  0.62943400  1
  C  5404  1  0.18264000  0.85365500  0.63108900  1
  C  5405  1  0.17268600  0.86818800  0.64511800  1
  C  5406  1  0.18660700  0.88009700  0.65786900  1
  C  5407  1  0.20883400  0.87872000  0.65650600  1
  C  5408  1  0.17143900  0.83966400  0.61818100  1
  C  5410  1  0.20219500  0.82540200  0.60332100  1
  C  5417  1  0.24024700  0.86633400  0.63938500  1
  C  5419  1  0.15084900  0.87083900  0.65023500  1
  C  5421  1  0.17171000  0.57387900  0.35058100  1
  C  5422  1  0.18479400  0.58643000  0.36377100  1
  C  5423  1  0.20752900  0.58475500  0.36219800  1
  C  5424  1  0.21745800  0.57062600  0.34775100  1
  C  5425  1  0.20352600  0.55801100  0.33573000  1
  C  5426  1  0.18129900  0.55937800  0.33715100  1
  C  5427  1  0.21874200  0.59760600  0.37622200  1
  C  5429  1  0.18804000  0.61257900  0.39043000  1
  C  5436  1  0.14981000  0.57622000  0.34988700  1
  C  5438  1  0.23925400  0.56528300  0.34530400  1
  C  5440  1  0.67170800  0.36179500  0.14157000  1
  C  5441  1  0.68479500  0.34924700  0.12838100  1
  C  5442  1  0.70752800  0.35092400  0.12996500  1
  C  5443  1  0.71745700  0.36500600  0.14445600  1
  C  5444  1  0.70351700  0.37767200  0.15642000  1
  C  5445  1  0.68128900  0.37631000  0.15498900  1
  C  5446  1  0.71875000  0.33804000  0.11598000  1
  C  5448  1  0.68805300  0.32310500  0.10171800  1
  C  5455  1  0.64981000  0.35945200  0.14226500  1
  C  5457  1  0.73924500  0.37038100  0.14688000  1
  C  5459  1  0.92170000  0.07428500  0.64201500  1
  C  5460  1  0.93479800  0.08748900  0.62943600  1
  C  5461  1  0.95753400  0.08590600  0.63111900  1
  C  5462  1  0.96742900  0.07138000  0.64524500  1
  C  5463  1  0.95348700  0.05938200  0.65791800  1
  C  5464  1  0.93126800  0.06083100  0.65655600  1
  C  5465  1  0.96876100  0.09992100  0.61819900  1
  C  5467  1  0.93806200  0.11420500  0.60324200  1
  C  5474  1  0.89979900  0.07361500  0.63970200  1
  C  5476  1  0.98917100  0.06896300  0.65072700  1
  C  5478  1  0.42168300  0.86526600  0.85402400  1
  C  5479  1  0.43478500  0.85207700  0.86661700  1
  C  5480  1  0.45752300  0.85366500  0.86494600  1
  C  5481  1  0.46742800  0.86816700  0.85080400  1
  C  5482  1  0.45349200  0.88018800  0.83814900  1
  C  5483  1  0.43127000  0.87874800  0.83951900  1
  C  5484  1  0.46874700  0.83965600  0.87786800  1
  C  5486  1  0.43804600  0.82537600  0.89282200  1
  C  5493  1  0.39976600  0.86604500  0.85638200  1
  C  5495  1  0.48918400  0.87059200  0.84534600  1
  C  5497  1  0.67189500  0.36173100  0.85243400  1
  C  5498  1  0.68492700  0.34922500  0.86574400  1
  C  5499  1  0.70766300  0.35089400  0.86415600  1
  C  5500  1  0.71762500  0.36493400  0.84958700  1
  C  5501  1  0.70369600  0.37772600  0.83768000  1
  C  5502  1  0.68146100  0.37635400  0.83906900  1
  C  5503  1  0.71890000  0.33799600  0.87817200  1
  C  5505  1  0.68814200  0.32306900  0.89247700  1
  C  5512  1  0.65007000  0.35915700  0.85151700  1
  C  5514  1  0.73949500  0.36996900  0.84689900  1
  C  5516  1  0.17220500  0.57389000  0.63954500  1
  C  5517  1  0.18531000  0.58646600  0.62632100  1
  C  5518  1  0.20809200  0.58501100  0.62797100  1
  C  5519  1  0.21798800  0.57124900  0.64279200  1
  C  5520  1  0.20413100  0.55807200  0.65436400  1
  C  5521  1  0.18186700  0.55925000  0.65284900  1
  C  5522  1  0.21945800  0.59774000  0.61381800  1
  C  5524  1  0.18851600  0.61265800  0.59966500  1
  C  5531  1  0.15028600  0.57651400  0.64053200  1
  C  5533  1  0.23993800  0.56778400  0.64681300  1
  C  5535  1  0.42197100  0.86142900  0.13997400  1
  C  5536  1  0.43512500  0.84824500  0.12749300  1
  C  5537  1  0.45787100  0.84995800  0.12921200  1
  C  5538  1  0.46767700  0.86468200  0.14315900  1
  C  5539  1  0.45363000  0.87636200  0.15597100  1
  C  5540  1  0.43142800  0.87477900  0.15461400  1
  C  5541  1  0.46928700  0.83587500  0.11658000  1
  C  5543  1  0.43853300  0.82160100  0.10140500  1
  C  5550  1  0.40013000  0.86242800  0.13735400  1
  C  5552  1  0.48946800  0.86813600  0.14803800  1
  C  5554  1  0.92220400  0.07428000  0.35218200  1
  C  5555  1  0.93512300  0.08764400  0.36471900  1
  C  5556  1  0.95788700  0.08619700  0.36324800  1
  C  5557  1  0.96790300  0.07163000  0.34938200  1
  C  5558  1  0.95419800  0.05982100  0.33629800  1
  C  5559  1  0.93192500  0.06105700  0.33755800  1
  C  5560  1  0.96908800  0.10024400  0.37617000  1
  C  5562  1  0.93811300  0.11424400  0.39090500  1
  C  5569  1  0.90036900  0.07319700  0.35475500  1
  C  5571  1  0.98992300  0.06833000  0.34584200  1
  C  5573  1  0.96856500  0.36177600  0.63955700  1
  C  5574  1  0.95531300  0.34924500  0.62648700  1
  C  5575  1  0.93256200  0.35098500  0.62819600  1
  C  5576  1  0.92281400  0.36505900  0.64283000  1
  C  5577  1  0.93689100  0.37770800  0.65463400  1
  C  5578  1  0.95909400  0.37632900  0.65300600  1
  C  5579  1  0.92113200  0.33837900  0.61408200  1
  C  5581  1  0.95183100  0.32314100  0.59985200  1
  C  5588  1  0.99050100  0.35940600  0.64009700  1
  C  5590  1  0.90109300  0.37026100  0.64604800  1
  C  5592  1  0.46839400  0.57384500  0.85266800  1
  C  5593  1  0.45534200  0.58645700  0.86587800  1
  C  5594  1  0.43257200  0.58497500  0.86442200  1
  C  5595  1  0.42261700  0.57103100  0.84990300  1
  C  5596  1  0.43636000  0.55805500  0.83803200  1
  C  5597  1  0.45863800  0.55932500  0.83933400  1
  C  5598  1  0.42132700  0.59790000  0.87844900  1
  C  5600  1  0.45223900  0.61268200  0.89245700  1
  C  5607  1  0.49037400  0.57616100  0.85197700  1
  C  5609  1  0.40065900  0.56713500  0.84684900  1
  C  5611  1  0.21825500  0.86122300  0.35205600  1
  C  5612  1  0.20511000  0.84807800  0.36469600  1
  C  5613  1  0.18232600  0.84972200  0.36322000  1
  C  5614  1  0.17246700  0.86451500  0.34940600  1
  C  5615  1  0.18633600  0.87614200  0.33630000  1
  C  5616  1  0.20859000  0.87459100  0.33747500  1
  C  5617  1  0.17095200  0.83558000  0.37596300  1
  C  5619  1  0.20185500  0.82144100  0.39091500  1
  C  5626  1  0.24023300  0.86199200  0.35441100  1
  C  5628  1  0.15056700  0.86833200  0.34562700  1
  C  5630  1  0.71861300  0.07431300  0.14007700  1
  C  5631  1  0.70551700  0.08751100  0.12748700  1
  C  5632  1  0.68277400  0.08592000  0.12916000  1
  C  5633  1  0.67285500  0.07141100  0.14328800  1
  C  5634  1  0.68678800  0.05940300  0.15596000  1
  C  5635  1  0.70901500  0.06083900  0.15458900  1
  C  5636  1  0.67153000  0.09993300  0.11625900  1
  C  5638  1  0.70225100  0.11420900  0.10128500  1
  C  5645  1  0.74053600  0.07355000  0.13773300  1
  C  5647  1  0.65106700  0.06897200  0.14866500  1
  C  5649  1  0.52284400  0.69478900  0.06217400  1
  C  5650  1  0.53622400  0.70840100  0.04993000  1
  C  5651  1  0.53462700  0.73099600  0.05145600  1
  C  5652  1  0.52020700  0.74083100  0.06606100  1
  C  5653  1  0.50804500  0.72648600  0.07827400  1
  C  5654  1  0.50905700  0.70457200  0.07642800  1
  C  5655  1  0.54785300  0.74215300  0.03725200  1
  C  5657  1  0.56406300  0.71169900  0.02440400  1
  C  5664  1  0.52273200  0.67268000  0.05952700  1
  C  5666  1  0.51404800  0.76239700  0.06928400  1
  C  5668  1  0.02250210  0.24106900  0.43001700  1
  C  5669  1  0.03586610  0.22760100  0.44240300  1
  C  5670  1  0.03394610  0.20506200  0.44126200  1
  C  5671  1  0.01900610  0.19526000  0.42708400  1
  C  5672  1  0.00706712  0.20928100  0.41446400  1
  C  5673  1  0.00850412  0.23122800  0.41593400  1
  C  5674  1  0.04756910  0.19403700  0.45528600  1
  C  5676  1  0.06428910  0.22441200  0.46741000  1
  C  5683  1  0.02263410  0.26315500  0.43258200  1
  C  5685  1  0.01835610  0.17389900  0.42020900  1
  C  5687  1  0.77303800  0.15384600  0.97449700  1
  C  5688  1  0.78642400  0.16603000  0.98812000  1
  C  5689  1  0.78458800  0.16448500  0.01064200  1
  C  5690  1  0.76991200  0.14983700  0.02001800  1
  C  5691  1  0.75795600  0.13747300  0.00575600  1
  C  5692  1  0.75915500  0.13946600  0.98395600  1
  C  5693  1  0.79763500  0.17871700  0.02198000  1
  C  5695  1  0.81402900  0.19182100  0.99164400  1
  C  5702  1  0.77289200  0.15656500  0.95250800  1
  C  5704  1  0.76327700  0.14670100  0.04118100  1
  C  5706  1  0.27298800  0.78588300  0.52114600  1
  C  5707  1  0.28644700  0.77357700  0.50770500  1
  C  5708  1  0.28482800  0.77501100  0.48511800  1
  C  5709  1  0.27032500  0.78938600  0.47504200  1
  C  5710  1  0.25819600  0.80175400  0.48925300  1
  C  5711  1  0.25920900  0.80009100  0.51120000  1
  C  5712  1  0.29801600  0.76079300  0.47407800  1
  C  5714  1  0.31387700  0.74750500  0.50452600  1
  C  5721  1  0.27279400  0.78326000  0.54325700  1
  C  5723  1  0.26434000  0.79238800  0.45333800  1
  C  5725  1  0.11743100  0.69469800  0.42990900  1
  C  5726  1  0.10398300  0.70815900  0.44220100  1
  C  5727  1  0.10562100  0.73075100  0.44087800  1
  C  5728  1  0.12015900  0.74078100  0.42653600  1
  C  5729  1  0.13218600  0.72662100  0.41403900  1
  C  5730  1  0.13117000  0.70467200  0.41568400  1
  C  5731  1  0.09249910  0.74178600  0.45518400  1
  C  5733  1  0.07608010  0.71129300  0.46767900  1
  C  5740  1  0.11761500  0.67256600  0.43254300  1
  C  5742  1  0.12626100  0.76241400  0.42374500  1
  C  5744  1  0.61734500  0.24138000  0.06207000  1
  C  5745  1  0.60397700  0.22773700  0.04988900  1
  C  5746  1  0.60584800  0.20521100  0.05134400  1
  C  5747  1  0.62054900  0.19588100  0.06597900  1
  C  5748  1  0.63241900  0.21009600  0.07844700  1
  C  5749  1  0.63119900  0.23190000  0.07646400  1
  C  5750  1  0.59283000  0.19387700  0.03705800  1
  C  5752  1  0.57606900  0.22421800  0.02447200  1
  C  5759  1  0.61746000  0.26339100  0.05936300  1
  C  5761  1  0.62727900  0.17477300  0.06887900  1
  C  5763  1  0.86736700  0.15373200  0.52110800  1
  C  5764  1  0.85397500  0.16599700  0.50750800  1
  C  5765  1  0.85552900  0.16440200  0.48491400  1
  C  5766  1  0.86990500  0.14978400  0.47503400  1
  C  5767  1  0.88215700  0.13765900  0.48941100  1
  C  5768  1  0.88117600  0.13950200  0.51132100  1
  C  5769  1  0.84228300  0.17854300  0.47373700  1
  C  5771  1  0.82646800  0.19193800  0.50416300  1
  C  5778  1  0.86744400  0.15632800  0.54322900  1
  C  5780  1  0.87603100  0.14641500  0.45344100  1
  C  5782  1  0.36769600  0.78580900  0.97477700  1
  C  5783  1  0.35431000  0.77341100  0.98823600  1
  C  5784  1  0.35618800  0.77465200  0.01077300  1
  C  5785  1  0.37116200  0.78880300  0.02057600  1
  C  5786  1  0.38315700  0.80137600  0.00656300  1
  C  5787  1  0.38171300  0.79988200  0.98462000  1
  C  5788  1  0.34253100  0.76070700  0.02184300  1
  C  5790  1  0.32634700  0.74781900  0.99146300  1
  C  5797  1  0.36759100  0.78328200  0.95267700  1
  C  5799  1  0.37187300  0.79570000  0.04193200  1
  C  5801  1  0.61750300  0.24135100  0.93210500  1
  C  5802  1  0.60402300  0.22773100  0.94424100  1
  C  5803  1  0.60578600  0.20521100  0.94276000  1
  C  5804  1  0.62037200  0.19585100  0.92808100  1
  C  5805  1  0.63234400  0.21010800  0.91566000  1
  C  5806  1  0.63126300  0.23190000  0.91765300  1
  C  5807  1  0.59276400  0.19386900  0.95706000  1
  C  5809  1  0.57608700  0.22417300  0.96963300  1
  C  5816  1  0.61791900  0.26331300  0.93487900  1
  C  5818  1  0.62693700  0.17469300  0.92500000  1
  C  5820  1  0.11760800  0.69491600  0.56011700  1
  C  5821  1  0.10420500  0.70862600  0.54798900  1
  C  5822  1  0.10570000  0.73123200  0.54978400  1
  C  5823  1  0.12005300  0.74096200  0.56457600  1
  C  5824  1  0.13227200  0.72647900  0.57656600  1
  C  5825  1  0.13134100  0.70459700  0.57446800  1
  C  5826  1  0.09239210  0.74246700  0.53569700  1
  C  5828  1  0.07642610  0.71205100  0.52241200  1
  C  5835  1  0.11779800  0.67279200  0.55745400  1
  C  5837  1  0.12619200  0.76248600  0.56837800  1
  C  5839  1  0.02280510  0.24126300  0.56000300  1
  C  5840  1  0.03619010  0.22753300  0.54791500  1
  C  5841  1  0.03442810  0.20499400  0.54962200  1
  C  5842  1  0.01983310  0.19574600  0.56445500  1
  C  5843  1  0.00785712  0.21008100  0.57668200  1
  C  5844  1  0.00901212  0.23186100  0.57449100  1
  C  5845  1  0.04757010  0.19359100  0.53547900  1
  C  5847  1  0.06403410  0.22391500  0.52243300  1
  C  5854  1  0.02255910  0.26329900  0.55727500  1
  C  5856  1  0.01308310  0.17467600  0.56779800  1
  C  5858  1  0.52272300  0.69477500  0.93201400  1
  C  5859  1  0.53617600  0.70834000  0.94420900  1
  C  5860  1  0.53464700  0.73094100  0.94263300  1
  C  5861  1  0.52031900  0.74084200  0.92797100  1
  C  5862  1  0.50809200  0.72653000  0.91581500  1
  C  5863  1  0.50900800  0.70461900  0.91770800  1
  C  5864  1  0.54786900  0.74207600  0.95680300  1
  C  5866  1  0.56404700  0.71161700  0.96970300  1
  C  5873  1  0.52245400  0.67263900  0.93464500  1
  C  5875  1  0.51427400  0.76242900  0.92457200  1
  C  5877  1  0.27285700  0.65181300  0.47301500  1
  C  5878  1  0.28642500  0.66404000  0.48642000  1
  C  5879  1  0.28482800  0.66262700  0.50900700  1
  C  5880  1  0.27025200  0.64830900  0.51905200  1
  C  5881  1  0.25819000  0.63583500  0.50489900  1
  C  5882  1  0.25917200  0.63751600  0.48296200  1
  C  5883  1  0.29794600  0.67692800  0.52005000  1
  C  5885  1  0.31390100  0.69006700  0.48954100  1
  C  5892  1  0.27239800  0.65454900  0.45093300  1
  C  5894  1  0.26411900  0.64552800  0.54069800  1
  C  5896  1  0.77290300  0.28370400  0.01955500  1
  C  5897  1  0.78639200  0.27159700  0.00596200  1
  C  5898  1  0.78456300  0.27312800  0.98344100  1
  C  5899  1  0.76982900  0.28773500  0.97409200  1
  C  5900  1  0.75793400  0.30018900  0.98829900  1
  C  5901  1  0.75911600  0.29817200  0.01009400  1
  C  5902  1  0.79759600  0.25886000  0.97211200  1
  C  5904  1  0.81403000  0.24583200  0.00248300  1
  C  5911  1  0.77252300  0.28087700  0.04152000  1
  C  5913  1  0.76307800  0.29063200  0.95297500  1
  C  5915  1  0.36784700  0.65191600  0.01928900  1
  C  5916  1  0.35435300  0.66424800  0.00587500  1
  C  5917  1  0.35619600  0.66301600  0.98334200  1
  C  5918  1  0.37118300  0.64890900  0.97351200  1
  C  5919  1  0.38313900  0.63626300  0.98748700  1
  C  5920  1  0.38178200  0.63777700  0.00942700  1
  C  5921  1  0.34258800  0.67702500  0.97229100  1
  C  5923  1  0.32631000  0.68976500  0.00267400  1
  C  5930  1  0.36796300  0.65453500  0.04136400  1
  C  5932  1  0.37164700  0.64197400  0.95220500  1
  C  5934  1  0.86750600  0.28381300  0.47305500  1
  C  5935  1  0.85400800  0.27164000  0.48663100  1
  C  5936  1  0.85555600  0.27324400  0.50922300  1
  C  5937  1  0.87004900  0.28779100  0.51904800  1
  C  5938  1  0.88221500  0.30001700  0.50473000  1
  C  5939  1  0.88123100  0.29813300  0.48282900  1
  C  5940  1  0.84230100  0.25908800  0.52040000  1
  C  5942  1  0.82647700  0.24572000  0.48992700  1
  C  5949  1  0.86784800  0.28110000  0.45095900  1
  C  5951  1  0.87625300  0.29099200  0.54058900  1
  N  21  1  0.94737600  0.62346700  0.05658400  1
  N  22  1  0.88489500  0.65779100  0.07345000  1
  N  23  1  0.90445500  0.52364300  0.09006700  1
  N  24  1  0.86210900  0.56210000  0.13359400  1
  N  45  1  0.44738900  0.31220200  0.43555500  1
  N  46  1  0.38485000  0.27799500  0.41863500  1
  N  47  1  0.40466200  0.41238700  0.39990200  1
  N  48  1  0.36204600  0.37351600  0.35849500  1
  N  69  1  0.19741200  0.15923000  0.90362000  1
  N  70  1  0.13491200  0.14250000  0.93783100  1
  N  71  1  0.15473300  0.12538700  0.80417000  1
  N  72  1  0.11206400  0.08223200  0.84241200  1
  N  93  1  0.69738500  0.78035600  0.59239400  1
  N  94  1  0.63488800  0.79719300  0.55809000  1
  N  95  1  0.65782400  0.81760500  0.69225100  1
  N  96  1  0.61217200  0.85717900  0.65374100  1
  N  117  1  0.41528100  0.62349800  0.43553300  1
  N  118  1  0.47781000  0.65770400  0.41863900  1
  N  119  1  0.45972100  0.52254300  0.40551500  1
  N  120  1  0.50036400  0.56183000  0.35914600  1
  N  141  1  0.91525900  0.31221300  0.05662700  1
  N  142  1  0.97779700  0.27811600  0.07339800  1
  N  143  1  0.95972100  0.41318900  0.08666100  1
  N  144  1  0.00036400  0.37384600  0.13301000  1
  N  165  1  0.16527300  0.15924700  0.59237200  1
  N  166  1  0.22779400  0.14240700  0.55814500  1
  N  167  1  0.20980000  0.12920100  0.69334500  1
  N  168  1  0.25037400  0.08283500  0.65409900  1
  N  189  1  0.66527900  0.78028200  0.90368100  1
  N  190  1  0.72783200  0.79722900  0.93781300  1
  N  191  1  0.70980200  0.81039700  0.80265500  1
  N  192  1  0.75041100  0.85674700  0.84198200  1
  N  213  1  0.91961200  0.31107900  0.94424100  1
  N  214  1  0.97809800  0.27779100  0.92056200  1
  N  215  1  0.95787500  0.41154000  0.90385000  1
  N  216  1  0.00051100  0.37347800  0.86063100  1
  N  237  1  0.41954500  0.62470100  0.54796000  1
  N  238  1  0.47813700  0.65810100  0.57161900  1
  N  239  1  0.45633200  0.52318200  0.59152100  1
  N  240  1  0.50066600  0.56226300  0.63136200  1
  N  261  1  0.66480700  0.77678000  0.09085800  1
  N  262  1  0.72866300  0.78447000  0.05810700  1
  N  263  1  0.70536100  0.81381100  0.19059000  1
  N  264  1  0.75065400  0.85331500  0.15177200  1
  N  285  1  0.16477600  0.15908100  0.40159400  1
  N  286  1  0.22884300  0.14581200  0.43492400  1
  N  287  1  0.20792100  0.12529000  0.30220200  1
  N  288  1  0.25072000  0.08226200  0.34043000  1
  N  309  1  0.44309700  0.31112700  0.54788900  1
  N  310  1  0.38457300  0.27780500  0.57156200  1
  N  311  1  0.40320400  0.41310800  0.58452900  1
  N  312  1  0.36240500  0.37377500  0.63084800  1
  N  333  1  0.94315000  0.62470500  0.94412700  1
  N  334  1  0.88455100  0.65799300  0.92048400  1
  N  335  1  0.90319000  0.52264600  0.90764800  1
  N  336  1  0.86232100  0.56187100  0.86131100  1
  N  357  1  0.69790600  0.77652900  0.40150200  1
  N  358  1  0.63436000  0.79149900  0.43502300  1
  N  359  1  0.65287400  0.80652000  0.30067400  1
  N  360  1  0.61211800  0.85278900  0.34002800  1
  N  381  1  0.19830700  0.15899500  0.09081300  1
  N  382  1  0.13375200  0.14608200  0.05908100  1
  N  383  1  0.15282400  0.12917300  0.19154400  1
  N  384  1  0.11226900  0.08280600  0.15217300  1
  N  405  1  0.44860400  0.12523400  0.55876300  1
  N  406  1  0.38388800  0.15705400  0.56982300  1
  N  407  1  0.40439400  0.02572200  0.59230000  1
  N  408  1  0.36812100  0.06654500  0.64093000  1
  N  429  1  0.94821900  0.81418400  0.93740000  1
  N  430  1  0.88406800  0.78084500  0.92412700  1
  N  431  1  0.90447900  0.91361000  0.90381400  1
  N  432  1  0.86814400  0.87296400  0.85514100  1
  N  453  1  0.69335900  0.66410600  0.40295800  1
  N  454  1  0.63478400  0.64037300  0.43637200  1
  N  455  1  0.65435600  0.62425600  0.30229700  1
  N  456  1  0.61817900  0.57519300  0.34298300  1
  N  477  1  0.19332400  0.27154200  0.08928500  1
  N  478  1  0.13479800  0.29518200  0.05593700  1
  N  479  1  0.15450900  0.31170700  0.18996700  1
  N  480  1  0.11817200  0.36046700  0.14918300  1
  N  501  1  0.91408200  0.12515900  0.93719500  1
  N  502  1  0.97901100  0.15672000  0.92437300  1
  N  503  1  0.95984500  0.02431300  0.90758200  1
  N  504  1  0.99449700  0.06609100  0.85589600  1
  N  525  1  0.41443000  0.81404700  0.55864300  1
  N  526  1  0.47846900  0.78069800  0.57011400  1
  N  527  1  0.45978100  0.91511000  0.58845700  1
  N  528  1  0.49446200  0.87340900  0.64011000  1
  N  549  1  0.66930500  0.66407000  0.08910900  1
  N  550  1  0.72793500  0.64034000  0.05595800  1
  N  551  1  0.70962800  0.62757500  0.19132200  1
  N  552  1  0.74444800  0.57595100  0.14975500  1
  N  573  1  0.16939000  0.27145600  0.40291400  1
  N  574  1  0.22789000  0.29527000  0.43631800  1
  N  575  1  0.20962600  0.30809700  0.30083400  1
  N  576  1  0.24445700  0.35971000  0.34239000  1
  N  597  1  0.41921700  0.81304800  0.44614700  1
  N  598  1  0.47847600  0.78061800  0.42415500  1
  N  599  1  0.45854800  0.91267400  0.40580800  1
  N  600  1  0.49533900  0.87185400  0.35721100  1
  N  621  1  0.91890500  0.12639100  0.04996200  1
  N  622  1  0.97882300  0.15712300  0.06986900  1
  N  623  1  0.95818500  0.02585400  0.09012200  1
  N  624  1  0.99454400  0.06661100  0.13876500  1
  N  645  1  0.16907200  0.27165700  0.59120600  1
  N  646  1  0.22838500  0.29184800  0.55874000  1
  N  647  1  0.20801500  0.31241600  0.69169400  1
  N  648  1  0.24487100  0.36026300  0.64974900  1
  N  669  1  0.66943800  0.66745300  0.90473200  1
  N  670  1  0.72912400  0.65316100  0.93581300  1
  N  671  1  0.70831900  0.62779100  0.80434200  1
  N  672  1  0.74529900  0.57884700  0.84463600  1
  N  693  1  0.94364100  0.81295200  0.04988800  1
  N  694  1  0.88430700  0.78057300  0.07015000  1
  N  695  1  0.90299000  0.91499500  0.08651800  1
  N  696  1  0.86789800  0.87203300  0.13772600  1
  N  717  1  0.44324100  0.12637000  0.44581900  1
  N  718  1  0.38367100  0.15757000  0.43136300  1
  N  719  1  0.40286900  0.02456400  0.40959500  1
  N  720  1  0.36743400  0.06591700  0.35789900  1
  N  741  1  0.19387300  0.27173100  0.90471400  1
  N  742  1  0.13388600  0.29165600  0.93529100  1
  N  743  1  0.15298000  0.30810200  0.80266400  1
  N  744  1  0.11822900  0.35974000  0.84431900  1
  N  765  1  0.69345200  0.66790100  0.59129500  1
  N  766  1  0.63423500  0.64588300  0.55895500  1
  N  767  1  0.65269300  0.63106400  0.69322400  1
  N  768  1  0.61734700  0.57966900  0.65049000  1
  N  776  1  0.92599900  0.56788000  0.01153800  1
  N  781  1  0.93304900  0.58212000  0.97881600  1
  N  795  1  0.42600300  0.36778000  0.48062400  1
  N  800  1  0.43304900  0.35354100  0.51335100  1
  N  814  1  0.17601400  0.20440800  0.84808900  1
  N  819  1  0.18302700  0.23709600  0.86230500  1
  N  833  1  0.67601000  0.73518200  0.64797000  1
  N  838  1  0.68304400  0.70249400  0.63377300  1
  N  852  1  0.43668700  0.56789300  0.48071000  1
  N  857  1  0.42968900  0.58208500  0.51341300  1
  N  871  1  0.93668100  0.36776700  0.01145000  1
  N  876  1  0.92965900  0.35357900  0.97875500  1
  N  890  1  0.18670000  0.20434800  0.64798200  1
  N  895  1  0.17962500  0.23706500  0.63374100  1
  N  909  1  0.68669500  0.73525900  0.84808000  1
  N  914  1  0.67967500  0.70251900  0.86230300  1
  N  928  1  0.68669500  0.73124100  0.14603600  1
  N  933  1  0.67965600  0.69857400  0.13180700  1
  N  947  1  0.18668800  0.20442600  0.34614300  1
  N  952  1  0.17965500  0.23710800  0.36035500  1
  N  966  1  0.67601100  0.73130700  0.34611800  1
  N  971  1  0.68303000  0.69858500  0.36036700  1
  N  985  1  0.17600900  0.20438400  0.14603100  1
  N  990  1  0.18304900  0.23709100  0.13177300  1
  N  1004  1  0.42600800  0.06983000  0.51344600  1
  N  1009  1  0.43300900  0.08408200  0.48072600  1
  N  1023  1  0.92600800  0.86974500  0.98259900  1
  N  1028  1  0.93306100  0.85548900  0.01530400  1
  N  1042  1  0.93668100  0.06984600  0.98271200  1
  N  1047  1  0.92966200  0.08407500  0.01537600  1
  N  1061  1  0.43667300  0.86972300  0.51339900  1
  N  1066  1  0.42969500  0.85553600  0.48069800  1
  N  1080  1  0.97485400  0.47554300  0.05144800  1
  N  1085  1  0.94846400  0.49830500  0.06292700  1
  N  1099  1  0.47498200  0.46018400  0.44069400  1
  N  1104  1  0.44849700  0.43757600  0.42939800  1
  N  1118  1  0.22498600  0.16439200  0.75561100  1
  N  1123  1  0.19850100  0.15305100  0.77827900  1
  N  1137  1  0.72484300  0.77520100  0.74022600  1
  N  1142  1  0.69813400  0.78640900  0.71751800  1
  N  1156  1  0.88771500  0.46020900  0.94265500  1
  N  1161  1  0.91417800  0.43755100  0.93133200  1
  N  1175  1  0.38779600  0.47554800  0.54948000  1
  N  1180  1  0.41420600  0.49836500  0.56078600  1
  N  1194  1  0.63783800  0.77128200  0.23830000  1
  N  1199  1  0.66447900  0.78250400  0.21556300  1
  N  1213  1  0.13771300  0.16439400  0.25365600  1
  N  1218  1  0.16419600  0.15305300  0.27632500  1
  N  1232  1  0.47493400  0.97743800  0.55342600  1
  N  1237  1  0.44846300  0.00008800  0.56480200  1
  N  1251  1  0.97495600  0.96215000  0.94264200  1
  N  1256  1  0.94847300  0.93952200  0.93129800  1
  N  1270  1  0.72494000  0.66242400  0.25364100  1
  N  1275  1  0.69851800  0.65101900  0.27635700  1
  N  1289  1  0.22492900  0.27324500  0.23851200  1
  N  1294  1  0.19852200  0.28466900  0.21578400  1
  N  1308  1  0.38774400  0.96196400  0.44456200  1
  N  1313  1  0.41456000  0.93963200  0.43329600  1
  N  1327  1  0.88774400  0.97740800  0.05146400  1
  N  1332  1  0.91416300  0.00008800  0.06283700  1
  N  1346  1  0.13770400  0.27324400  0.74045300  1
  N  1351  1  0.16422700  0.28456900  0.71783000  1
  N  1365  1  0.63772300  0.66633200  0.75559000  1
  N  1370  1  0.66421200  0.65497100  0.77823100  1
  N  1384  1  0.79203800  0.61095100  0.10237600  1
  N  1389  1  0.82532000  0.60001700  0.11401900  1
  N  1403  1  0.29204000  0.32472000  0.38977300  1
  N  1408  1  0.32532300  0.33566200  0.37814400  1
  N  1422  1  0.04204700  0.11344200  0.89109300  1
  N  1427  1  0.07533200  0.10183700  0.88017900  1
  N  1441  1  0.54206400  0.82613400  0.60493700  1
  N  1446  1  0.57533300  0.83775800  0.61588500  1
  N  1460  1  0.57055600  0.61089900  0.38972700  1
  N  1465  1  0.53728100  0.59999800  0.37810500  1
  N  1479  1  0.07057100  0.32478000  0.10243400  1
  N  1484  1  0.03728800  0.33567700  0.11404500  1
  N  1498  1  0.32058100  0.11349200  0.60491800  1
  N  1503  1  0.28729500  0.10185200  0.61583900  1
  N  1517  1  0.82056400  0.82609100  0.89115500  1
  N  1522  1  0.78728300  0.83772700  0.88022200  1
  N  1536  1  0.07067400  0.32471900  0.89173600  1
  N  1541  1  0.03737800  0.33564800  0.88010900  1
  N  1555  1  0.57106100  0.61093300  0.60027900  1
  N  1560  1  0.53775700  0.60004500  0.61198900  1
  N  1574  1  0.82106900  0.82229100  0.10331200  1
  N  1579  1  0.78766600  0.83388900  0.11391100  1
  N  1593  1  0.32065000  0.11365600  0.38935700  1
  N  1598  1  0.28745500  0.10189600  0.37826900  1
  N  1612  1  0.29170600  0.32507000  0.60053200  1
  N  1617  1  0.32511200  0.33564800  0.61212000  1
  N  1631  1  0.79211200  0.61109300  0.89187900  1
  N  1636  1  0.82531700  0.60003700  0.88013600  1
  N  1650  1  0.54171300  0.82204400  0.38916800  1
  N  1655  1  0.57502800  0.83375100  0.37829600  1
  N  1669  1  0.04212100  0.11349400  0.10296600  1
  N  1674  1  0.07542100  0.10186200  0.11387800  1
  N  1688  1  0.92319100  0.73255400  0.02453700  1
  N  1693  1  0.91227500  0.69997400  0.03645200  1
  N  1707  1  0.42315200  0.20362600  0.46766300  1
  N  1712  1  0.41226400  0.23606300  0.45553100  1
  N  1726  1  0.17288600  0.19162700  0.01247500  1
  N  1731  1  0.16243900  0.17966700  0.97983200  1
  N  1745  1  0.67301700  0.74773500  0.48368100  1
  N  1750  1  0.66234700  0.75989500  0.51618400  1
  N  1764  1  0.43948700  0.73213000  0.46779000  1
  N  1769  1  0.45032100  0.69964100  0.45564600  1
  N  1783  1  0.93970200  0.20339700  0.02443600  1
  N  1788  1  0.95022200  0.23603800  0.03643000  1
  N  1802  1  0.18962900  0.19156000  0.48330300  1
  N  1807  1  0.20045600  0.17966900  0.51589900  1
  N  1821  1  0.68975700  0.74788600  0.01225200  1
  N  1826  1  0.70047600  0.76004200  0.97981300  1
  N  1840  1  0.93965300  0.20334500  0.96967800  1
  N  1845  1  0.95027500  0.23601300  0.95767800  1
  N  1859  1  0.43953100  0.73292000  0.52284000  1
  N  1864  1  0.45058300  0.70026400  0.53443000  1
  N  1878  1  0.42299700  0.20307200  0.52271100  1
  N  1883  1  0.41230200  0.23578000  0.53437800  1
  N  1897  1  0.92319600  0.73247300  0.96954500  1
  N  1902  1  0.91223600  0.69990200  0.95769500  1
  N  1916  1  0.67299000  0.68991400  0.51038500  1
  N  1921  1  0.66232500  0.67769900  0.47791100  1
  N  1935  1  0.17286500  0.24598400  0.98165200  1
  N  1940  1  0.16242400  0.25799100  0.01427300  1
  N  1954  1  0.68974100  0.68977000  0.98187900  1
  N  1959  1  0.70050000  0.67758500  0.01431200  1
  N  1973  1  0.18965700  0.24607300  0.51078900  1
  N  1978  1  0.20048700  0.25798600  0.47821500  1
  N  2005  1  0.26677700  0.62346700  0.05658400  1
  N  2006  1  0.20429600  0.65779100  0.07345000  1
  N  2007  1  0.22385600  0.52364300  0.09006700  1
  N  2008  1  0.18151000  0.56210000  0.13359400  1
  N  2029  1  0.76679000  0.31220200  0.43555500  1
  N  2030  1  0.70425100  0.27799500  0.41863500  1
  N  2031  1  0.72406300  0.41238700  0.39990200  1
  N  2032  1  0.68144700  0.37351600  0.35849500  1
  N  2053  1  0.51681300  0.15923000  0.90362000  1
  N  2054  1  0.45431300  0.14250000  0.93783100  1
  N  2055  1  0.47413400  0.12538700  0.80417000  1
  N  2056  1  0.43146500  0.08223200  0.84241200  1
  N  2077  1  0.01678610  0.78035600  0.59239400  1
  N  2078  1  0.95428900  0.79719300  0.55809000  1
  N  2079  1  0.97722500  0.81760500  0.69225100  1
  N  2080  1  0.93157300  0.85717900  0.65374100  1
  N  2101  1  0.73468200  0.62349800  0.43553300  1
  N  2102  1  0.79721100  0.65770400  0.41863900  1
  N  2103  1  0.77912200  0.52254300  0.40551500  1
  N  2104  1  0.81976500  0.56183000  0.35914600  1
  N  2125  1  0.23466000  0.31221300  0.05662700  1
  N  2126  1  0.29719800  0.27811600  0.07339800  1
  N  2127  1  0.27912200  0.41318900  0.08666100  1
  N  2128  1  0.31976500  0.37384600  0.13301000  1
  N  2149  1  0.48467400  0.15924700  0.59237200  1
  N  2150  1  0.54719500  0.14240700  0.55814500  1
  N  2151  1  0.52920100  0.12920100  0.69334500  1
  N  2152  1  0.56977500  0.08283500  0.65409900  1
  N  2173  1  0.98468000  0.78028200  0.90368100  1
  N  2174  1  0.04723310  0.79722900  0.93781300  1
  N  2175  1  0.02920310  0.81039700  0.80265500  1
  N  2176  1  0.06981210  0.85674700  0.84198200  1
  N  2197  1  0.23901300  0.31107900  0.94424100  1
  N  2198  1  0.29749900  0.27779100  0.92056200  1
  N  2199  1  0.27727600  0.41154000  0.90385000  1
  N  2200  1  0.31991200  0.37347800  0.86063100  1
  N  2221  1  0.73894600  0.62470100  0.54796000  1
  N  2222  1  0.79753800  0.65810100  0.57161900  1
  N  2223  1  0.77573300  0.52318200  0.59152100  1
  N  2224  1  0.82006700  0.56226300  0.63136200  1
  N  2245  1  0.98420800  0.77678000  0.09085800  1
  N  2246  1  0.04806410  0.78447000  0.05810700  1
  N  2247  1  0.02476210  0.81381100  0.19059000  1
  N  2248  1  0.07005510  0.85331500  0.15177200  1
  N  2269  1  0.48417700  0.15908100  0.40159400  1
  N  2270  1  0.54824400  0.14581200  0.43492400  1
  N  2271  1  0.52732200  0.12529000  0.30220200  1
  N  2272  1  0.57012100  0.08226200  0.34043000  1
  N  2293  1  0.76249800  0.31112700  0.54788900  1
  N  2294  1  0.70397400  0.27780500  0.57156200  1
  N  2295  1  0.72260500  0.41310800  0.58452900  1
  N  2296  1  0.68180600  0.37377500  0.63084800  1
  N  2317  1  0.26255100  0.62470500  0.94412700  1
  N  2318  1  0.20395200  0.65799300  0.92048400  1
  N  2319  1  0.22259100  0.52264600  0.90764800  1
  N  2320  1  0.18172200  0.56187100  0.86131100  1
  N  2341  1  0.01730710  0.77652900  0.40150200  1
  N  2342  1  0.95376100  0.79149900  0.43502300  1
  N  2343  1  0.97227500  0.80652000  0.30067400  1
  N  2344  1  0.93151900  0.85278900  0.34002800  1
  N  2365  1  0.51770800  0.15899500  0.09081300  1
  N  2366  1  0.45315300  0.14608200  0.05908100  1
  N  2367  1  0.47222500  0.12917300  0.19154400  1
  N  2368  1  0.43167000  0.08280600  0.15217300  1
  N  2389  1  0.76800500  0.12523400  0.55876300  1
  N  2390  1  0.70328900  0.15705400  0.56982300  1
  N  2391  1  0.72379500  0.02572200  0.59230000  1
  N  2392  1  0.68752200  0.06654500  0.64093000  1
  N  2413  1  0.26762000  0.81418400  0.93740000  1
  N  2414  1  0.20346900  0.78084500  0.92412700  1
  N  2415  1  0.22388000  0.91361000  0.90381400  1
  N  2416  1  0.18754500  0.87296400  0.85514100  1
  N  2437  1  0.01276010  0.66410600  0.40295800  1
  N  2438  1  0.95418500  0.64037300  0.43637200  1
  N  2439  1  0.97375700  0.62425600  0.30229700  1
  N  2440  1  0.93758000  0.57519300  0.34298300  1
  N  2461  1  0.51272500  0.27154200  0.08928500  1
  N  2462  1  0.45419900  0.29518200  0.05593700  1
  N  2463  1  0.47391000  0.31170700  0.18996700  1
  N  2464  1  0.43757300  0.36046700  0.14918300  1
  N  2485  1  0.23348300  0.12515900  0.93719500  1
  N  2486  1  0.29841200  0.15672000  0.92437300  1
  N  2487  1  0.27924600  0.02431300  0.90758200  1
  N  2488  1  0.31389800  0.06609100  0.85589600  1
  N  2509  1  0.73383100  0.81404700  0.55864300  1
  N  2510  1  0.79787000  0.78069800  0.57011400  1
  N  2511  1  0.77918200  0.91511000  0.58845700  1
  N  2512  1  0.81386300  0.87340900  0.64011000  1
  N  2533  1  0.98870600  0.66407000  0.08910900  1
  N  2534  1  0.04733610  0.64034000  0.05595800  1
  N  2535  1  0.02902910  0.62757500  0.19132200  1
  N  2536  1  0.06384910  0.57595100  0.14975500  1
  N  2557  1  0.48879100  0.27145600  0.40291400  1
  N  2558  1  0.54729100  0.29527000  0.43631800  1
  N  2559  1  0.52902700  0.30809700  0.30083400  1
  N  2560  1  0.56385800  0.35971000  0.34239000  1
  N  2581  1  0.73861800  0.81304800  0.44614700  1
  N  2582  1  0.79787700  0.78061800  0.42415500  1
  N  2583  1  0.77794900  0.91267400  0.40580800  1
  N  2584  1  0.81474000  0.87185400  0.35721100  1
  N  2605  1  0.23830600  0.12639100  0.04996200  1
  N  2606  1  0.29822400  0.15712300  0.06986900  1
  N  2607  1  0.27758600  0.02585400  0.09012200  1
  N  2608  1  0.31394500  0.06661100  0.13876500  1
  N  2629  1  0.48847300  0.27165700  0.59120600  1
  N  2630  1  0.54778600  0.29184800  0.55874000  1
  N  2631  1  0.52741600  0.31241600  0.69169400  1
  N  2632  1  0.56427200  0.36026300  0.64974900  1
  N  2653  1  0.98883900  0.66745300  0.90473200  1
  N  2654  1  0.04852510  0.65316100  0.93581300  1
  N  2655  1  0.02772010  0.62779100  0.80434200  1
  N  2656  1  0.06470010  0.57884700  0.84463600  1
  N  2677  1  0.26304200  0.81295200  0.04988800  1
  N  2678  1  0.20370800  0.78057300  0.07015000  1
  N  2679  1  0.22239100  0.91499500  0.08651800  1
  N  2680  1  0.18729900  0.87203300  0.13772600  1
  N  2701  1  0.76264200  0.12637000  0.44581900  1
  N  2702  1  0.70307200  0.15757000  0.43136300  1
  N  2703  1  0.72227000  0.02456400  0.40959500  1
  N  2704  1  0.68683500  0.06591700  0.35789900  1
  N  2725  1  0.51327400  0.27173100  0.90471400  1
  N  2726  1  0.45328700  0.29165600  0.93529100  1
  N  2727  1  0.47238100  0.30810200  0.80266400  1
  N  2728  1  0.43763000  0.35974000  0.84431900  1
  N  2749  1  0.01285310  0.66790100  0.59129500  1
  N  2750  1  0.95363600  0.64588300  0.55895500  1
  N  2751  1  0.97209400  0.63106400  0.69322400  1
  N  2752  1  0.93674800  0.57966900  0.65049000  1
  N  2760  1  0.24540000  0.56788000  0.01153800  1
  N  2765  1  0.25245000  0.58212000  0.97881600  1
  N  2779  1  0.74540400  0.36778000  0.48062400  1
  N  2784  1  0.75245000  0.35354100  0.51335100  1
  N  2798  1  0.49541500  0.20440800  0.84808900  1
  N  2803  1  0.50242800  0.23709600  0.86230500  1
  N  2817  1  0.99541100  0.73518200  0.64797000  1
  N  2822  1  0.00244506  0.70249400  0.63377300  1
  N  2836  1  0.75608800  0.56789300  0.48071000  1
  N  2841  1  0.74909000  0.58208500  0.51341300  1
  N  2855  1  0.25608200  0.36776700  0.01145000  1
  N  2860  1  0.24906000  0.35357900  0.97875500  1
  N  2874  1  0.50610100  0.20434800  0.64798200  1
  N  2879  1  0.49902600  0.23706500  0.63374100  1
  N  2893  1  0.00609606  0.73525900  0.84808000  1
  N  2898  1  0.99907600  0.70251900  0.86230300  1
  N  2912  1  0.00609606  0.73124100  0.14603600  1
  N  2917  1  0.99905700  0.69857400  0.13180700  1
  N  2931  1  0.50608900  0.20442600  0.34614300  1
  N  2936  1  0.49905600  0.23710800  0.36035500  1
  N  2950  1  0.99541200  0.73130700  0.34611800  1
  N  2955  1  0.00243106  0.69858500  0.36036700  1
  N  2969  1  0.49541000  0.20438400  0.14603100  1
  N  2974  1  0.50245000  0.23709100  0.13177300  1
  N  2988  1  0.74540900  0.06983000  0.51344600  1
  N  2993  1  0.75241000  0.08408200  0.48072600  1
  N  3007  1  0.24540900  0.86974500  0.98259900  1
  N  3012  1  0.25246200  0.85548900  0.01530400  1
  N  3026  1  0.25608200  0.06984600  0.98271200  1
  N  3031  1  0.24906300  0.08407500  0.01537600  1
  N  3045  1  0.75607400  0.86972300  0.51339900  1
  N  3050  1  0.74909600  0.85553600  0.48069800  1
  N  3064  1  0.29425500  0.47554300  0.05144800  1
  N  3069  1  0.26786500  0.49830500  0.06292700  1
  N  3083  1  0.79438300  0.46018400  0.44069400  1
  N  3088  1  0.76789800  0.43757600  0.42939800  1
  N  3102  1  0.54438700  0.16439200  0.75561100  1
  N  3107  1  0.51790200  0.15305100  0.77827900  1
  N  3121  1  0.04424410  0.77520100  0.74022600  1
  N  3126  1  0.01753510  0.78640900  0.71751800  1
  N  3140  1  0.20711600  0.46020900  0.94265500  1
  N  3145  1  0.23357900  0.43755100  0.93133200  1
  N  3159  1  0.70719700  0.47554800  0.54948000  1
  N  3164  1  0.73360700  0.49836500  0.56078600  1
  N  3178  1  0.95723900  0.77128200  0.23830000  1
  N  3183  1  0.98388000  0.78250400  0.21556300  1
  N  3197  1  0.45711400  0.16439400  0.25365600  1
  N  3202  1  0.48359700  0.15305300  0.27632500  1
  N  3216  1  0.79433500  0.97743800  0.55342600  1
  N  3221  1  0.76786400  0.00008800  0.56480200  1
  N  3235  1  0.29435700  0.96215000  0.94264200  1
  N  3240  1  0.26787400  0.93952200  0.93129800  1
  N  3254  1  0.04434110  0.66242400  0.25364100  1
  N  3259  1  0.01791910  0.65101900  0.27635700  1
  N  3273  1  0.54433000  0.27324500  0.23851200  1
  N  3278  1  0.51792300  0.28466900  0.21578400  1
  N  3292  1  0.70714500  0.96196400  0.44456200  1
  N  3297  1  0.73396100  0.93963200  0.43329600  1
  N  3311  1  0.20714500  0.97740800  0.05146400  1
  N  3316  1  0.23356400  0.00008800  0.06283700  1
  N  3330  1  0.45710500  0.27324400  0.74045300  1
  N  3335  1  0.48362800  0.28456900  0.71783000  1
  N  3349  1  0.95712400  0.66633200  0.75559000  1
  N  3354  1  0.98361300  0.65497100  0.77823100  1
  N  3368  1  0.11143900  0.61095100  0.10237600  1
  N  3373  1  0.14472100  0.60001700  0.11401900  1
  N  3387  1  0.61144100  0.32472000  0.38977300  1
  N  3392  1  0.64472400  0.33566200  0.37814400  1
  N  3406  1  0.36144800  0.11344200  0.89109300  1
  N  3411  1  0.39473300  0.10183700  0.88017900  1
  N  3425  1  0.86146500  0.82613400  0.60493700  1
  N  3430  1  0.89473400  0.83775800  0.61588500  1
  N  3444  1  0.88995700  0.61089900  0.38972700  1
  N  3449  1  0.85668200  0.59999800  0.37810500  1
  N  3463  1  0.38997200  0.32478000  0.10243400  1
  N  3468  1  0.35668900  0.33567700  0.11404500  1
  N  3482  1  0.63998200  0.11349200  0.60491800  1
  N  3487  1  0.60669600  0.10185200  0.61583900  1
  N  3501  1  0.13996500  0.82609100  0.89115500  1
  N  3506  1  0.10668400  0.83772700  0.88022200  1
  N  3520  1  0.39007500  0.32471900  0.89173600  1
  N  3525  1  0.35677900  0.33564800  0.88010900  1
  N  3539  1  0.89046200  0.61093300  0.60027900  1
  N  3544  1  0.85715800  0.60004500  0.61198900  1
  N  3558  1  0.14047000  0.82229100  0.10331200  1
  N  3563  1  0.10706700  0.83388900  0.11391100  1
  N  3577  1  0.64005100  0.11365600  0.38935700  1
  N  3582  1  0.60685600  0.10189600  0.37826900  1
  N  3596  1  0.61110700  0.32507000  0.60053200  1
  N  3601  1  0.64451300  0.33564800  0.61212000  1
  N  3615  1  0.11151300  0.61109300  0.89187900  1
  N  3620  1  0.14471800  0.60003700  0.88013600  1
  N  3634  1  0.86111400  0.82204400  0.38916800  1
  N  3639  1  0.89442900  0.83375100  0.37829600  1
  N  3653  1  0.36152200  0.11349400  0.10296600  1
  N  3658  1  0.39482200  0.10186200  0.11387800  1
  N  3672  1  0.24259200  0.73255400  0.02453700  1
  N  3677  1  0.23167600  0.69997400  0.03645200  1
  N  3691  1  0.74255300  0.20362600  0.46766300  1
  N  3696  1  0.73166500  0.23606300  0.45553100  1
  N  3710  1  0.49228700  0.19162700  0.01247500  1
  N  3715  1  0.48184000  0.17966700  0.97983200  1
  N  3729  1  0.99241800  0.74773500  0.48368100  1
  N  3734  1  0.98174800  0.75989500  0.51618400  1
  N  3748  1  0.75888800  0.73213000  0.46779000  1
  N  3753  1  0.76972200  0.69964100  0.45564600  1
  N  3767  1  0.25910300  0.20339700  0.02443600  1
  N  3772  1  0.26962300  0.23603800  0.03643000  1
  N  3786  1  0.50903000  0.19156000  0.48330300  1
  N  3791  1  0.51985700  0.17966900  0.51589900  1
  N  3805  1  0.00915806  0.74788600  0.01225200  1
  N  3810  1  0.01987710  0.76004200  0.97981300  1
  N  3824  1  0.25905400  0.20334500  0.96967800  1
  N  3829  1  0.26967600  0.23601300  0.95767800  1
  N  3843  1  0.75893200  0.73292000  0.52284000  1
  N  3848  1  0.76998400  0.70026400  0.53443000  1
  N  3862  1  0.74239800  0.20307200  0.52271100  1
  N  3867  1  0.73170300  0.23578000  0.53437800  1
  N  3881  1  0.24259700  0.73247300  0.96954500  1
  N  3886  1  0.23163700  0.69990200  0.95769500  1
  N  3900  1  0.99239100  0.68991400  0.51038500  1
  N  3905  1  0.98172600  0.67769900  0.47791100  1
  N  3919  1  0.49226600  0.24598400  0.98165200  1
  N  3924  1  0.48182500  0.25799100  0.01427300  1
  N  3938  1  0.00914206  0.68977000  0.98187900  1
  N  3943  1  0.01990110  0.67758500  0.01431200  1
  N  3957  1  0.50905800  0.24607300  0.51078900  1
  N  3962  1  0.51988800  0.25798600  0.47821500  1
  N  3989  1  0.58617800  0.62346700  0.05658400  1
  N  3990  1  0.52369700  0.65779100  0.07345000  1
  N  3991  1  0.54325700  0.52364300  0.09006700  1
  N  3992  1  0.50091100  0.56210000  0.13359400  1
  N  4013  1  0.08619110  0.31220200  0.43555500  1
  N  4014  1  0.02365210  0.27799500  0.41863500  1
  N  4015  1  0.04346410  0.41238700  0.39990200  1
  N  4016  1  0.00084812  0.37351600  0.35849500  1
  N  4037  1  0.83621400  0.15923000  0.90362000  1
  N  4038  1  0.77371400  0.14250000  0.93783100  1
  N  4039  1  0.79353500  0.12538700  0.80417000  1
  N  4040  1  0.75086600  0.08223200  0.84241200  1
  N  4061  1  0.33618700  0.78035600  0.59239400  1
  N  4062  1  0.27369000  0.79719300  0.55809000  1
  N  4063  1  0.29662600  0.81760500  0.69225100  1
  N  4064  1  0.25097400  0.85717900  0.65374100  1
  N  4085  1  0.05408310  0.62349800  0.43553300  1
  N  4086  1  0.11661200  0.65770400  0.41863900  1
  N  4087  1  0.09852310  0.52254300  0.40551500  1
  N  4088  1  0.13916600  0.56183000  0.35914600  1
  N  4109  1  0.55406100  0.31221300  0.05662700  1
  N  4110  1  0.61659900  0.27811600  0.07339800  1
  N  4111  1  0.59852300  0.41318900  0.08666100  1
  N  4112  1  0.63916600  0.37384600  0.13301000  1
  N  4133  1  0.80407500  0.15924700  0.59237200  1
  N  4134  1  0.86659600  0.14240700  0.55814500  1
  N  4135  1  0.84860200  0.12920100  0.69334500  1
  N  4136  1  0.88917600  0.08283500  0.65409900  1
  N  4157  1  0.30408100  0.78028200  0.90368100  1
  N  4158  1  0.36663400  0.79722900  0.93781300  1
  N  4159  1  0.34860400  0.81039700  0.80265500  1
  N  4160  1  0.38921300  0.85674700  0.84198200  1
  N  4181  1  0.55841400  0.31107900  0.94424100  1
  N  4182  1  0.61690000  0.27779100  0.92056200  1
  N  4183  1  0.59667700  0.41154000  0.90385000  1
  N  4184  1  0.63931300  0.37347800  0.86063100  1
  N  4205  1  0.05834710  0.62470100  0.54796000  1
  N  4206  1  0.11693900  0.65810100  0.57161900  1
  N  4207  1  0.09513410  0.52318200  0.59152100  1
  N  4208  1  0.13946800  0.56226300  0.63136200  1
  N  4229  1  0.30360900  0.77678000  0.09085800  1
  N  4230  1  0.36746500  0.78447000  0.05810700  1
  N  4231  1  0.34416300  0.81381100  0.19059000  1
  N  4232  1  0.38945600  0.85331500  0.15177200  1
  N  4253  1  0.80357800  0.15908100  0.40159400  1
  N  4254  1  0.86764500  0.14581200  0.43492400  1
  N  4255  1  0.84672300  0.12529000  0.30220200  1
  N  4256  1  0.88952200  0.08226200  0.34043000  1
  N  4277  1  0.08189910  0.31112700  0.54788900  1
  N  4278  1  0.02337510  0.27780500  0.57156200  1
  N  4279  1  0.04200610  0.41310800  0.58452900  1
  N  4280  1  0.00120712  0.37377500  0.63084800  1
  N  4301  1  0.58195200  0.62470500  0.94412700  1
  N  4302  1  0.52335300  0.65799300  0.92048400  1
  N  4303  1  0.54199200  0.52264600  0.90764800  1
  N  4304  1  0.50112300  0.56187100  0.86131100  1
  N  4325  1  0.33670800  0.77652900  0.40150200  1
  N  4326  1  0.27316200  0.79149900  0.43502300  1
  N  4327  1  0.29167600  0.80652000  0.30067400  1
  N  4328  1  0.25092000  0.85278900  0.34002800  1
  N  4349  1  0.83710900  0.15899500  0.09081300  1
  N  4350  1  0.77255400  0.14608200  0.05908100  1
  N  4351  1  0.79162600  0.12917300  0.19154400  1
  N  4352  1  0.75107100  0.08280600  0.15217300  1
  N  4373  1  0.08740610  0.12523400  0.55876300  1
  N  4374  1  0.02269010  0.15705400  0.56982300  1
  N  4375  1  0.04319610  0.02572200  0.59230000  1
  N  4376  1  0.00692312  0.06654500  0.64093000  1
  N  4397  1  0.58702100  0.81418400  0.93740000  1
  N  4398  1  0.52287000  0.78084500  0.92412700  1
  N  4399  1  0.54328100  0.91361000  0.90381400  1
  N  4400  1  0.50694600  0.87296400  0.85514100  1
  N  4421  1  0.33216100  0.66410600  0.40295800  1
  N  4422  1  0.27358600  0.64037300  0.43637200  1
  N  4423  1  0.29315800  0.62425600  0.30229700  1
  N  4424  1  0.25698100  0.57519300  0.34298300  1
  N  4445  1  0.83212600  0.27154200  0.08928500  1
  N  4446  1  0.77360000  0.29518200  0.05593700  1
  N  4447  1  0.79331100  0.31170700  0.18996700  1
  N  4448  1  0.75697400  0.36046700  0.14918300  1
  N  4469  1  0.55288400  0.12515900  0.93719500  1
  N  4470  1  0.61781300  0.15672000  0.92437300  1
  N  4471  1  0.59864700  0.02431300  0.90758200  1
  N  4472  1  0.63329900  0.06609100  0.85589600  1
  N  4493  1  0.05323210  0.81404700  0.55864300  1
  N  4494  1  0.11727100  0.78069800  0.57011400  1
  N  4495  1  0.09858310  0.91511000  0.58845700  1
  N  4496  1  0.13326400  0.87340900  0.64011000  1
  N  4517  1  0.30810700  0.66407000  0.08910900  1
  N  4518  1  0.36673700  0.64034000  0.05595800  1
  N  4519  1  0.34843000  0.62757500  0.19132200  1
  N  4520  1  0.38325000  0.57595100  0.14975500  1
  N  4541  1  0.80819200  0.27145600  0.40291400  1
  N  4542  1  0.86669200  0.29527000  0.43631800  1
  N  4543  1  0.84842800  0.30809700  0.30083400  1
  N  4544  1  0.88325900  0.35971000  0.34239000  1
  N  4565  1  0.05801910  0.81304800  0.44614700  1
  N  4566  1  0.11727800  0.78061800  0.42415500  1
  N  4567  1  0.09735010  0.91267400  0.40580800  1
  N  4568  1  0.13414100  0.87185400  0.35721100  1
  N  4589  1  0.55770700  0.12639100  0.04996200  1
  N  4590  1  0.61762500  0.15712300  0.06986900  1
  N  4591  1  0.59698700  0.02585400  0.09012200  1
  N  4592  1  0.63334600  0.06661100  0.13876500  1
  N  4613  1  0.80787400  0.27165700  0.59120600  1
  N  4614  1  0.86718700  0.29184800  0.55874000  1
  N  4615  1  0.84681700  0.31241600  0.69169400  1
  N  4616  1  0.88367300  0.36026300  0.64974900  1
  N  4637  1  0.30824000  0.66745300  0.90473200  1
  N  4638  1  0.36792600  0.65316100  0.93581300  1
  N  4639  1  0.34712100  0.62779100  0.80434200  1
  N  4640  1  0.38410100  0.57884700  0.84463600  1
  N  4661  1  0.58244300  0.81295200  0.04988800  1
  N  4662  1  0.52310900  0.78057300  0.07015000  1
  N  4663  1  0.54179200  0.91499500  0.08651800  1
  N  4664  1  0.50670000  0.87203300  0.13772600  1
  N  4685  1  0.08204310  0.12637000  0.44581900  1
  N  4686  1  0.02247310  0.15757000  0.43136300  1
  N  4687  1  0.04167110  0.02456400  0.40959500  1
  N  4688  1  0.00623612  0.06591700  0.35789900  1
  N  4709  1  0.83267500  0.27173100  0.90471400  1
  N  4710  1  0.77268800  0.29165600  0.93529100  1
  N  4711  1  0.79178200  0.30810200  0.80266400  1
  N  4712  1  0.75703100  0.35974000  0.84431900  1
  N  4733  1  0.33225400  0.66790100  0.59129500  1
  N  4734  1  0.27303700  0.64588300  0.55895500  1
  N  4735  1  0.29149500  0.63106400  0.69322400  1
  N  4736  1  0.25614900  0.57966900  0.65049000  1
  N  4744  1  0.56480100  0.56788000  0.01153800  1
  N  4749  1  0.57185100  0.58212000  0.97881600  1
  N  4763  1  0.06480510  0.36778000  0.48062400  1
  N  4768  1  0.07185110  0.35354100  0.51335100  1
  N  4782  1  0.81481600  0.20440800  0.84808900  1
  N  4787  1  0.82182900  0.23709600  0.86230500  1
  N  4801  1  0.31481200  0.73518200  0.64797000  1
  N  4806  1  0.32184600  0.70249400  0.63377300  1
  N  4820  1  0.07548910  0.56789300  0.48071000  1
  N  4825  1  0.06849110  0.58208500  0.51341300  1
  N  4839  1  0.57548300  0.36776700  0.01145000  1
  N  4844  1  0.56846100  0.35357900  0.97875500  1
  N  4858  1  0.82550200  0.20434800  0.64798200  1
  N  4863  1  0.81842700  0.23706500  0.63374100  1
  N  4877  1  0.32549700  0.73525900  0.84808000  1
  N  4882  1  0.31847700  0.70251900  0.86230300  1
  N  4896  1  0.32549700  0.73124100  0.14603600  1
  N  4901  1  0.31845800  0.69857400  0.13180700  1
  N  4915  1  0.82549000  0.20442600  0.34614300  1
  N  4920  1  0.81845700  0.23710800  0.36035500  1
  N  4934  1  0.31481300  0.73130700  0.34611800  1
  N  4939  1  0.32183200  0.69858500  0.36036700  1
  N  4953  1  0.81481100  0.20438400  0.14603100  1
  N  4958  1  0.82185100  0.23709100  0.13177300  1
  N  4972  1  0.06481010  0.06983000  0.51344600  1
  N  4977  1  0.07181110  0.08408200  0.48072600  1
  N  4991  1  0.56481000  0.86974500  0.98259900  1
  N  4996  1  0.57186300  0.85548900  0.01530400  1
  N  5010  1  0.57548300  0.06984600  0.98271200  1
  N  5015  1  0.56846400  0.08407500  0.01537600  1
  N  5029  1  0.07547510  0.86972300  0.51339900  1
  N  5034  1  0.06849710  0.85553600  0.48069800  1
  N  5048  1  0.61365600  0.47554300  0.05144800  1
  N  5053  1  0.58726600  0.49830500  0.06292700  1
  N  5067  1  0.11378400  0.46018400  0.44069400  1
  N  5072  1  0.08729910  0.43757600  0.42939800  1
  N  5086  1  0.86378800  0.16439200  0.75561100  1
  N  5091  1  0.83730300  0.15305100  0.77827900  1
  N  5105  1  0.36364500  0.77520100  0.74022600  1
  N  5110  1  0.33693600  0.78640900  0.71751800  1
  N  5124  1  0.52651700  0.46020900  0.94265500  1
  N  5129  1  0.55298000  0.43755100  0.93133200  1
  N  5143  1  0.02659810  0.47554800  0.54948000  1
  N  5148  1  0.05300810  0.49836500  0.56078600  1
  N  5162  1  0.27664000  0.77128200  0.23830000  1
  N  5167  1  0.30328100  0.78250400  0.21556300  1
  N  5181  1  0.77651500  0.16439400  0.25365600  1
  N  5186  1  0.80299800  0.15305300  0.27632500  1
  N  5200  1  0.11373600  0.97743800  0.55342600  1
  N  5205  1  0.08726510  0.00008800  0.56480200  1
  N  5219  1  0.61375800  0.96215000  0.94264200  1
  N  5224  1  0.58727500  0.93952200  0.93129800  1
  N  5238  1  0.36374200  0.66242400  0.25364100  1
  N  5243  1  0.33732000  0.65101900  0.27635700  1
  N  5257  1  0.86373100  0.27324500  0.23851200  1
  N  5262  1  0.83732400  0.28466900  0.21578400  1
  N  5276  1  0.02654610  0.96196400  0.44456200  1
  N  5281  1  0.05336210  0.93963200  0.43329600  1
  N  5295  1  0.52654600  0.97740800  0.05146400  1
  N  5300  1  0.55296500  0.00008800  0.06283700  1
  N  5314  1  0.77650600  0.27324400  0.74045300  1
  N  5319  1  0.80302900  0.28456900  0.71783000  1
  N  5333  1  0.27652500  0.66633200  0.75559000  1
  N  5338  1  0.30301400  0.65497100  0.77823100  1
  N  5352  1  0.43084000  0.61095100  0.10237600  1
  N  5357  1  0.46412200  0.60001700  0.11401900  1
  N  5371  1  0.93084200  0.32472000  0.38977300  1
  N  5376  1  0.96412500  0.33566200  0.37814400  1
  N  5390  1  0.68084900  0.11344200  0.89109300  1
  N  5395  1  0.71413400  0.10183700  0.88017900  1
  N  5409  1  0.18086600  0.82613400  0.60493700  1
  N  5414  1  0.21413500  0.83775800  0.61588500  1
  N  5428  1  0.20935800  0.61089900  0.38972700  1
  N  5433  1  0.17608300  0.59999800  0.37810500  1
  N  5447  1  0.70937300  0.32478000  0.10243400  1
  N  5452  1  0.67609000  0.33567700  0.11404500  1
  N  5466  1  0.95938300  0.11349200  0.60491800  1
  N  5471  1  0.92609700  0.10185200  0.61583900  1
  N  5485  1  0.45936600  0.82609100  0.89115500  1
  N  5490  1  0.42608500  0.83772700  0.88022200  1
  N  5504  1  0.70947600  0.32471900  0.89173600  1
  N  5509  1  0.67618000  0.33564800  0.88010900  1
  N  5523  1  0.20986300  0.61093300  0.60027900  1
  N  5528  1  0.17655900  0.60004500  0.61198900  1
  N  5542  1  0.45987100  0.82229100  0.10331200  1
  N  5547  1  0.42646800  0.83388900  0.11391100  1
  N  5561  1  0.95945200  0.11365600  0.38935700  1
  N  5566  1  0.92625700  0.10189600  0.37826900  1
  N  5580  1  0.93050800  0.32507000  0.60053200  1
  N  5585  1  0.96391400  0.33564800  0.61212000  1
  N  5599  1  0.43091400  0.61109300  0.89187900  1
  N  5604  1  0.46411900  0.60003700  0.88013600  1
  N  5618  1  0.18051500  0.82204400  0.38916800  1
  N  5623  1  0.21383000  0.83375100  0.37829600  1
  N  5637  1  0.68092300  0.11349400  0.10296600  1
  N  5642  1  0.71422300  0.10186200  0.11387800  1
  N  5656  1  0.56199300  0.73255400  0.02453700  1
  N  5661  1  0.55107700  0.69997400  0.03645200  1
  N  5675  1  0.06195410  0.20362600  0.46766300  1
  N  5680  1  0.05106610  0.23606300  0.45553100  1
  N  5694  1  0.81168800  0.19162700  0.01247500  1
  N  5699  1  0.80124100  0.17966700  0.97983200  1
  N  5713  1  0.31181900  0.74773500  0.48368100  1
  N  5718  1  0.30114900  0.75989500  0.51618400  1
  N  5732  1  0.07828910  0.73213000  0.46779000  1
  N  5737  1  0.08912310  0.69964100  0.45564600  1
  N  5751  1  0.57850400  0.20339700  0.02443600  1
  N  5756  1  0.58902400  0.23603800  0.03643000  1
  N  5770  1  0.82843100  0.19156000  0.48330300  1
  N  5775  1  0.83925800  0.17966900  0.51589900  1
  N  5789  1  0.32855900  0.74788600  0.01225200  1
  N  5794  1  0.33927800  0.76004200  0.97981300  1
  N  5808  1  0.57845500  0.20334500  0.96967800  1
  N  5813  1  0.58907700  0.23601300  0.95767800  1
  N  5827  1  0.07833310  0.73292000  0.52284000  1
  N  5832  1  0.08938510  0.70026400  0.53443000  1
  N  5846  1  0.06179910  0.20307200  0.52271100  1
  N  5851  1  0.05110410  0.23578000  0.53437800  1
  N  5865  1  0.56199800  0.73247300  0.96954500  1
  N  5870  1  0.55103800  0.69990200  0.95769500  1
  N  5884  1  0.31179200  0.68991400  0.51038500  1
  N  5889  1  0.30112700  0.67769900  0.47791100  1
  N  5903  1  0.81166700  0.24598400  0.98165200  1
  N  5908  1  0.80122600  0.25799100  0.01427300  1
  N  5922  1  0.32854300  0.68977000  0.98187900  1
  N  5927  1  0.33930200  0.67758500  0.01431200  1
  N  5941  1  0.82845900  0.24607300  0.51078900  1
  N  5946  1  0.83928900  0.25798600  0.47821500  1
  O  17  1  0.91227100  0.56075700  0.06554300  1
  O  18  1  0.86643800  0.61634500  0.08808900  1
  O  41  1  0.41231000  0.37483000  0.42666000  1
  O  42  1  0.36642400  0.31935600  0.40406200  1
  O  65  1  0.16231300  0.15033700  0.84101300  1
  O  66  1  0.11643200  0.12775900  0.89656100  1
  O  89  1  0.66278300  0.78920200  0.65535300  1
  O  90  1  0.61644100  0.81182600  0.59950800  1
  O  113  1  0.45013400  0.56031600  0.42738000  1
  O  114  1  0.49613900  0.61619800  0.40401900  1
  O  137  1  0.95013700  0.37537100  0.06477600  1
  O  138  1  0.99614200  0.31949500  0.08813800  1
  O  161  1  0.20017800  0.15108400  0.65552800  1
  O  162  1  0.24614300  0.12776500  0.59969200  1
  O  185  1  0.70018000  0.78850800  0.84052700  1
  O  186  1  0.74614500  0.81183300  0.89633600  1
  O  209  1  0.94983900  0.37450800  0.92887500  1
  O  210  1  0.99597800  0.31949700  0.90619100  1
  O  233  1  0.44952100  0.56075000  0.56335000  1
  O  234  1  0.49596900  0.61618800  0.58597000  1
  O  257  1  0.70001100  0.78534500  0.15361000  1
  O  258  1  0.74655600  0.80700000  0.09796000  1
  O  281  1  0.20038300  0.15034300  0.33900300  1
  O  282  1  0.24593700  0.12827000  0.39478100  1
  O  305  1  0.41317100  0.37499300  0.56252300  1
  O  306  1  0.36684000  0.31964700  0.58602800  1
  O  329  1  0.91316700  0.56069600  0.92962300  1
  O  330  1  0.86683900  0.61604300  0.90612900  1
  O  353  1  0.66248800  0.78459000  0.33848800  1
  O  354  1  0.61683900  0.80758700  0.39442300  1
  O  377  1  0.16251800  0.15110100  0.15385400  1
  O  378  1  0.11696600  0.12834300  0.09840200  1
  O  401  1  0.41252600  0.06247200  0.56706900  1
  O  402  1  0.36687500  0.11784700  0.58776000  1
  O  425  1  0.91252300  0.87692900  0.92897200  1
  O  426  1  0.86678800  0.82114700  0.90805600  1
  O  449  1  0.66309500  0.64908300  0.33926600  1
  O  450  1  0.61675900  0.62753400  0.39440400  1
  O  473  1  0.16311500  0.28657600  0.15290900  1
  O  474  1  0.11675600  0.30813500  0.09777000  1
  O  497  1  0.94991100  0.06188100  0.92975700  1
  O  498  1  0.99570100  0.11742700  0.90814900  1
  O  521  1  0.44988500  0.87742500  0.56631700  1
  O  522  1  0.49581300  0.82107600  0.58791100  1
  O  545  1  0.69929600  0.64983100  0.15327100  1
  O  546  1  0.74585000  0.62758800  0.09796800  1
  O  569  1  0.19929200  0.28584100  0.33889200  1
  O  570  1  0.24584000  0.30808500  0.39422900  1
  O  593  1  0.44966100  0.87648600  0.43110200  1
  O  594  1  0.49580800  0.82165100  0.40962400  1
  O  617  1  0.94962100  0.06269800  0.06481400  1
  O  618  1  0.99549100  0.11743200  0.08578000  1
  O  641  1  0.19950100  0.28671900  0.65499400  1
  O  642  1  0.24577800  0.30681300  0.59966200  1
  O  665  1  0.69981100  0.65273500  0.84102700  1
  O  666  1  0.74626500  0.63129100  0.89576400  1
  O  689  1  0.91345900  0.87717400  0.06419400  1
  O  690  1  0.86702900  0.82160500  0.08506000  1
  O  713  1  0.41320300  0.06234000  0.43174000  1
  O  714  1  0.36657400  0.11737200  0.40952900  1
  O  737  1  0.16338000  0.28580500  0.84054000  1
  O  738  1  0.11731800  0.30754600  0.89549900  1
  O  761  1  0.66323800  0.65335300  0.65545300  1
  O  762  1  0.61699700  0.63137400  0.60008300  1
  O  780  1  0.93839500  0.58189900  0.04132900  1
  O  799  1  0.43841000  0.35375700  0.45083700  1
  O  818  1  0.18844000  0.17458700  0.86209500  1
  O  837  1  0.68845200  0.76499400  0.63393300  1
  O  856  1  0.42420500  0.58195800  0.45092500  1
  O  875  1  0.92418300  0.35373600  0.04122800  1
  O  894  1  0.17422400  0.17458400  0.63393000  1
  O  913  1  0.67420200  0.76499800  0.86212300  1
  O  932  1  0.67425000  0.76105900  0.13206400  1
  O  951  1  0.17422400  0.17462800  0.36011300  1
  O  970  1  0.68854400  0.76102800  0.36008000  1
  O  989  1  0.18858700  0.17468100  0.13213000  1
  O  1008  1  0.43853300  0.08376500  0.54316600  1
  O  1027  1  0.93851900  0.85578900  0.95285900  1
  O  1046  1  0.92402500  0.08375100  0.95300000  1
  O  1065  1  0.42407900  0.85568300  0.54311900  1
  O  1084  1  0.98022300  0.44303300  0.06422400  1
  O  1103  1  0.48031400  0.49269600  0.42794000  1
  O  1122  1  0.23032500  0.15166500  0.72314500  1
  O  1141  1  0.73022200  0.78792600  0.77276700  1
  O  1160  1  0.88239700  0.49270800  0.92988300  1
  O  1179  1  0.38248300  0.44304200  0.56229100  1
  O  1198  1  0.63247700  0.78402000  0.27082400  1
  O  1217  1  0.13236800  0.15167000  0.22120000  1
  O  1236  1  0.48029800  0.94494200  0.56617200  1
  O  1255  1  0.98031900  0.99463700  0.92990600  1
  O  1274  1  0.73030000  0.64969200  0.22119300  1
  O  1293  1  0.23029200  0.28598000  0.27095600  1
  O  1312  1  0.38233600  0.99459100  0.43189600  1
  O  1331  1  0.88240700  0.94491600  0.06423100  1
  O  1350  1  0.13234500  0.28595400  0.77291300  1
  O  1369  1  0.63237800  0.65361300  0.72311900  1
  O  1388  1  0.76210900  0.59414200  0.11238900  1
  O  1407  1  0.26211200  0.34152600  0.37976400  1
  O  1426  1  0.01210600  0.10350200  0.87437200  1
  O  1445  1  0.51210900  0.83605000  0.62154600  1
  O  1464  1  0.60040200  0.59410300  0.37991200  1
  O  1483  1  0.10039100  0.34159000  0.11221800  1
  O  1502  1  0.35041400  0.10368800  0.62172400  1
  O  1521  1  0.85039100  0.83586600  0.87438200  1
  O  1540  1  0.10063500  0.34145900  0.88172900  1
  O  1559  1  0.60123000  0.59423100  0.60989500  1
  O  1578  1  0.85095400  0.83211800  0.12060400  1
  O  1597  1  0.35081600  0.10437900  0.37296800  1
  O  1616  1  0.26191100  0.34243300  0.61023300  1
  O  1635  1  0.76208000  0.59461200  0.88280600  1
  O  1654  1  0.51163100  0.83152000  0.37238800  1
  O  1673  1  0.01225600  0.10367400  0.11975800  1
  O  1692  1  0.90695900  0.76260400  0.03311400  1
  O  1711  1  0.40474700  0.17466300  0.46227500  1
  O  1730  1  0.15574300  0.18377000  0.04209900  1
  O  1749  1  0.65606500  0.75585600  0.45400200  1
  O  1768  1  0.45681600  0.76185600  0.46027800  1
  O  1787  1  0.95705900  0.17373400  0.03196600  1
  O  1806  1  0.20558300  0.18256700  0.45328900  1
  O  1825  1  0.70773100  0.75368000  0.04117800  1
  O  1844  1  0.95694400  0.17369300  0.96204000  1
  O  1863  1  0.45477100  0.76315800  0.53255000  1
  O  1882  1  0.40680500  0.17308200  0.53149200  1
  O  1901  1  0.90695900  0.76250600  0.96086800  1
  O  1920  1  0.65594500  0.68199000  0.54011000  1
  O  1939  1  0.15568800  0.25374800  0.95198800  1
  O  1958  1  0.70793500  0.68397600  0.95292900  1
  O  1977  1  0.20569400  0.25487200  0.54082400  1
  O  2001  1  0.23167200  0.56075700  0.06554300  1
  O  2002  1  0.18583900  0.61634500  0.08808900  1
  O  2025  1  0.73171100  0.37483000  0.42666000  1
  O  2026  1  0.68582500  0.31935600  0.40406200  1
  O  2049  1  0.48171400  0.15033700  0.84101300  1
  O  2050  1  0.43583300  0.12775900  0.89656100  1
  O  2073  1  0.98218400  0.78920200  0.65535300  1
  O  2074  1  0.93584200  0.81182600  0.59950800  1
  O  2097  1  0.76953500  0.56031600  0.42738000  1
  O  2098  1  0.81554000  0.61619800  0.40401900  1
  O  2121  1  0.26953800  0.37537100  0.06477600  1
  O  2122  1  0.31554300  0.31949500  0.08813800  1
  O  2145  1  0.51957900  0.15108400  0.65552800  1
  O  2146  1  0.56554400  0.12776500  0.59969200  1
  O  2169  1  0.01958110  0.78850800  0.84052700  1
  O  2170  1  0.06554610  0.81183300  0.89633600  1
  O  2193  1  0.26924000  0.37450800  0.92887500  1
  O  2194  1  0.31537900  0.31949700  0.90619100  1
  O  2217  1  0.76892200  0.56075000  0.56335000  1
  O  2218  1  0.81537000  0.61618800  0.58597000  1
  O  2241  1  0.01941210  0.78534500  0.15361000  1
  O  2242  1  0.06595710  0.80700000  0.09796000  1
  O  2265  1  0.51978400  0.15034300  0.33900300  1
  O  2266  1  0.56533800  0.12827000  0.39478100  1
  O  2289  1  0.73257200  0.37499300  0.56252300  1
  O  2290  1  0.68624100  0.31964700  0.58602800  1
  O  2313  1  0.23256800  0.56069600  0.92962300  1
  O  2314  1  0.18624000  0.61604300  0.90612900  1
  O  2337  1  0.98188900  0.78459000  0.33848800  1
  O  2338  1  0.93624000  0.80758700  0.39442300  1
  O  2361  1  0.48191900  0.15110100  0.15385400  1
  O  2362  1  0.43636700  0.12834300  0.09840200  1
  O  2385  1  0.73192700  0.06247200  0.56706900  1
  O  2386  1  0.68627600  0.11784700  0.58776000  1
  O  2409  1  0.23192400  0.87692900  0.92897200  1
  O  2410  1  0.18618900  0.82114700  0.90805600  1
  O  2433  1  0.98249600  0.64908300  0.33926600  1
  O  2434  1  0.93616000  0.62753400  0.39440400  1
  O  2457  1  0.48251600  0.28657600  0.15290900  1
  O  2458  1  0.43615700  0.30813500  0.09777000  1
  O  2481  1  0.26931200  0.06188100  0.92975700  1
  O  2482  1  0.31510200  0.11742700  0.90814900  1
  O  2505  1  0.76928600  0.87742500  0.56631700  1
  O  2506  1  0.81521400  0.82107600  0.58791100  1
  O  2529  1  0.01869710  0.64983100  0.15327100  1
  O  2530  1  0.06525110  0.62758800  0.09796800  1
  O  2553  1  0.51869300  0.28584100  0.33889200  1
  O  2554  1  0.56524100  0.30808500  0.39422900  1
  O  2577  1  0.76906200  0.87648600  0.43110200  1
  O  2578  1  0.81520900  0.82165100  0.40962400  1
  O  2601  1  0.26902200  0.06269800  0.06481400  1
  O  2602  1  0.31489200  0.11743200  0.08578000  1
  O  2625  1  0.51890200  0.28671900  0.65499400  1
  O  2626  1  0.56517900  0.30681300  0.59966200  1
  O  2649  1  0.01921210  0.65273500  0.84102700  1
  O  2650  1  0.06566610  0.63129100  0.89576400  1
  O  2673  1  0.23286000  0.87717400  0.06419400  1
  O  2674  1  0.18643000  0.82160500  0.08506000  1
  O  2697  1  0.73260400  0.06234000  0.43174000  1
  O  2698  1  0.68597500  0.11737200  0.40952900  1
  O  2721  1  0.48278100  0.28580500  0.84054000  1
  O  2722  1  0.43671900  0.30754600  0.89549900  1
  O  2745  1  0.98263900  0.65335300  0.65545300  1
  O  2746  1  0.93639800  0.63137400  0.60008300  1
  O  2764  1  0.25779600  0.58189900  0.04132900  1
  O  2783  1  0.75781100  0.35375700  0.45083700  1
  O  2802  1  0.50784100  0.17458700  0.86209500  1
  O  2821  1  0.00785306  0.76499400  0.63393300  1
  O  2840  1  0.74360600  0.58195800  0.45092500  1
  O  2859  1  0.24358400  0.35373600  0.04122800  1
  O  2878  1  0.49362500  0.17458400  0.63393000  1
  O  2897  1  0.99360300  0.76499800  0.86212300  1
  O  2916  1  0.99365100  0.76105900  0.13206400  1
  O  2935  1  0.49362500  0.17462800  0.36011300  1
  O  2954  1  0.00794506  0.76102800  0.36008000  1
  O  2973  1  0.50798800  0.17468100  0.13213000  1
  O  2992  1  0.75793400  0.08376500  0.54316600  1
  O  3011  1  0.25792000  0.85578900  0.95285900  1
  O  3030  1  0.24342600  0.08375100  0.95300000  1
  O  3049  1  0.74348000  0.85568300  0.54311900  1
  O  3068  1  0.29962400  0.44303300  0.06422400  1
  O  3087  1  0.79971500  0.49269600  0.42794000  1
  O  3106  1  0.54972600  0.15166500  0.72314500  1
  O  3125  1  0.04962310  0.78792600  0.77276700  1
  O  3144  1  0.20179800  0.49270800  0.92988300  1
  O  3163  1  0.70188400  0.44304200  0.56229100  1
  O  3182  1  0.95187800  0.78402000  0.27082400  1
  O  3201  1  0.45176900  0.15167000  0.22120000  1
  O  3220  1  0.79969900  0.94494200  0.56617200  1
  O  3239  1  0.29972000  0.99463700  0.92990600  1
  O  3258  1  0.04970110  0.64969200  0.22119300  1
  O  3277  1  0.54969300  0.28598000  0.27095600  1
  O  3296  1  0.70173700  0.99459100  0.43189600  1
  O  3315  1  0.20180800  0.94491600  0.06423100  1
  O  3334  1  0.45174600  0.28595400  0.77291300  1
  O  3353  1  0.95177900  0.65361300  0.72311900  1
  O  3372  1  0.08151010  0.59414200  0.11238900  1
  O  3391  1  0.58151300  0.34152600  0.37976400  1
  O  3410  1  0.33150700  0.10350200  0.87437200  1
  O  3429  1  0.83151000  0.83605000  0.62154600  1
  O  3448  1  0.91980300  0.59410300  0.37991200  1
  O  3467  1  0.41979200  0.34159000  0.11221800  1
  O  3486  1  0.66981500  0.10368800  0.62172400  1
  O  3505  1  0.16979200  0.83586600  0.87438200  1
  O  3524  1  0.42003600  0.34145900  0.88172900  1
  O  3543  1  0.92063100  0.59423100  0.60989500  1
  O  3562  1  0.17035500  0.83211800  0.12060400  1
  O  3581  1  0.67021700  0.10437900  0.37296800  1
  O  3600  1  0.58131200  0.34243300  0.61023300  1
  O  3619  1  0.08148110  0.59461200  0.88280600  1
  O  3638  1  0.83103200  0.83152000  0.37238800  1
  O  3657  1  0.33165700  0.10367400  0.11975800  1
  O  3676  1  0.22636000  0.76260400  0.03311400  1
  O  3695  1  0.72414800  0.17466300  0.46227500  1
  O  3714  1  0.47514400  0.18377000  0.04209900  1
  O  3733  1  0.97546600  0.75585600  0.45400200  1
  O  3752  1  0.77621700  0.76185600  0.46027800  1
  O  3771  1  0.27646000  0.17373400  0.03196600  1
  O  3790  1  0.52498400  0.18256700  0.45328900  1
  O  3809  1  0.02713210  0.75368000  0.04117800  1
  O  3828  1  0.27634500  0.17369300  0.96204000  1
  O  3847  1  0.77417200  0.76315800  0.53255000  1
  O  3866  1  0.72620600  0.17308200  0.53149200  1
  O  3885  1  0.22636000  0.76250600  0.96086800  1
  O  3904  1  0.97534600  0.68199000  0.54011000  1
  O  3923  1  0.47508900  0.25374800  0.95198800  1
  O  3942  1  0.02733610  0.68397600  0.95292900  1
  O  3961  1  0.52509500  0.25487200  0.54082400  1
  O  3985  1  0.55107300  0.56075700  0.06554300  1
  O  3986  1  0.50524000  0.61634500  0.08808900  1
  O  4009  1  0.05111210  0.37483000  0.42666000  1
  O  4010  1  0.00522612  0.31935600  0.40406200  1
  O  4033  1  0.80111500  0.15033700  0.84101300  1
  O  4034  1  0.75523400  0.12775900  0.89656100  1
  O  4057  1  0.30158500  0.78920200  0.65535300  1
  O  4058  1  0.25524300  0.81182600  0.59950800  1
  O  4081  1  0.08893610  0.56031600  0.42738000  1
  O  4082  1  0.13494100  0.61619800  0.40401900  1
  O  4105  1  0.58893900  0.37537100  0.06477600  1
  O  4106  1  0.63494400  0.31949500  0.08813800  1
  O  4129  1  0.83898000  0.15108400  0.65552800  1
  O  4130  1  0.88494500  0.12776500  0.59969200  1
  O  4153  1  0.33898200  0.78850800  0.84052700  1
  O  4154  1  0.38494700  0.81183300  0.89633600  1
  O  4177  1  0.58864100  0.37450800  0.92887500  1
  O  4178  1  0.63478000  0.31949700  0.90619100  1
  O  4201  1  0.08832310  0.56075000  0.56335000  1
  O  4202  1  0.13477100  0.61618800  0.58597000  1
  O  4225  1  0.33881300  0.78534500  0.15361000  1
  O  4226  1  0.38535800  0.80700000  0.09796000  1
  O  4249  1  0.83918500  0.15034300  0.33900300  1
  O  4250  1  0.88473900  0.12827000  0.39478100  1
  O  4273  1  0.05197310  0.37499300  0.56252300  1
  O  4274  1  0.00564212  0.31964700  0.58602800  1
  O  4297  1  0.55196900  0.56069600  0.92962300  1
  O  4298  1  0.50564100  0.61604300  0.90612900  1
  O  4321  1  0.30129000  0.78459000  0.33848800  1
  O  4322  1  0.25564100  0.80758700  0.39442300  1
  O  4345  1  0.80132000  0.15110100  0.15385400  1
  O  4346  1  0.75576800  0.12834300  0.09840200  1
  O  4369  1  0.05132810  0.06247200  0.56706900  1
  O  4370  1  0.00567712  0.11784700  0.58776000  1
  O  4393  1  0.55132500  0.87692900  0.92897200  1
  O  4394  1  0.50559000  0.82114700  0.90805600  1
  O  4417  1  0.30189700  0.64908300  0.33926600  1
  O  4418  1  0.25556100  0.62753400  0.39440400  1
  O  4441  1  0.80191700  0.28657600  0.15290900  1
  O  4442  1  0.75555800  0.30813500  0.09777000  1
  O  4465  1  0.58871300  0.06188100  0.92975700  1
  O  4466  1  0.63450300  0.11742700  0.90814900  1
  O  4489  1  0.08868710  0.87742500  0.56631700  1
  O  4490  1  0.13461500  0.82107600  0.58791100  1
  O  4513  1  0.33809800  0.64983100  0.15327100  1
  O  4514  1  0.38465200  0.62758800  0.09796800  1
  O  4537  1  0.83809400  0.28584100  0.33889200  1
  O  4538  1  0.88464200  0.30808500  0.39422900  1
  O  4561  1  0.08846310  0.87648600  0.43110200  1
  O  4562  1  0.13461000  0.82165100  0.40962400  1
  O  4585  1  0.58842300  0.06269800  0.06481400  1
  O  4586  1  0.63429300  0.11743200  0.08578000  1
  O  4609  1  0.83830300  0.28671900  0.65499400  1
  O  4610  1  0.88458000  0.30681300  0.59966200  1
  O  4633  1  0.33861300  0.65273500  0.84102700  1
  O  4634  1  0.38506700  0.63129100  0.89576400  1
  O  4657  1  0.55226100  0.87717400  0.06419400  1
  O  4658  1  0.50583100  0.82160500  0.08506000  1
  O  4681  1  0.05200510  0.06234000  0.43174000  1
  O  4682  1  0.00537612  0.11737200  0.40952900  1
  O  4705  1  0.80218200  0.28580500  0.84054000  1
  O  4706  1  0.75612000  0.30754600  0.89549900  1
  O  4729  1  0.30204000  0.65335300  0.65545300  1
  O  4730  1  0.25579900  0.63137400  0.60008300  1
  O  4748  1  0.57719700  0.58189900  0.04132900  1
  O  4767  1  0.07721210  0.35375700  0.45083700  1
  O  4786  1  0.82724200  0.17458700  0.86209500  1
  O  4805  1  0.32725400  0.76499400  0.63393300  1
  O  4824  1  0.06300710  0.58195800  0.45092500  1
  O  4843  1  0.56298500  0.35373600  0.04122800  1
  O  4862  1  0.81302600  0.17458400  0.63393000  1
  O  4881  1  0.31300400  0.76499800  0.86212300  1
  O  4900  1  0.31305200  0.76105900  0.13206400  1
  O  4919  1  0.81302600  0.17462800  0.36011300  1
  O  4938  1  0.32734600  0.76102800  0.36008000  1
  O  4957  1  0.82738900  0.17468100  0.13213000  1
  O  4976  1  0.07733510  0.08376500  0.54316600  1
  O  4995  1  0.57732100  0.85578900  0.95285900  1
  O  5014  1  0.56282700  0.08375100  0.95300000  1
  O  5033  1  0.06288110  0.85568300  0.54311900  1
  O  5052  1  0.61902500  0.44303300  0.06422400  1
  O  5071  1  0.11911600  0.49269600  0.42794000  1
  O  5090  1  0.86912700  0.15166500  0.72314500  1
  O  5109  1  0.36902400  0.78792600  0.77276700  1
  O  5128  1  0.52119900  0.49270800  0.92988300  1
  O  5147  1  0.02128510  0.44304200  0.56229100  1
  O  5166  1  0.27127900  0.78402000  0.27082400  1
  O  5185  1  0.77117000  0.15167000  0.22120000  1
  O  5204  1  0.11910000  0.94494200  0.56617200  1
  O  5223  1  0.61912100  0.99463700  0.92990600  1
  O  5242  1  0.36910200  0.64969200  0.22119300  1
  O  5261  1  0.86909400  0.28598000  0.27095600  1
  O  5280  1  0.02113810  0.99459100  0.43189600  1
  O  5299  1  0.52120900  0.94491600  0.06423100  1
  O  5318  1  0.77114700  0.28595400  0.77291300  1
  O  5337  1  0.27118000  0.65361300  0.72311900  1
  O  5356  1  0.40091100  0.59414200  0.11238900  1
  O  5375  1  0.90091400  0.34152600  0.37976400  1
  O  5394  1  0.65090800  0.10350200  0.87437200  1
  O  5413  1  0.15091100  0.83605000  0.62154600  1
  O  5432  1  0.23920400  0.59410300  0.37991200  1
  O  5451  1  0.73919300  0.34159000  0.11221800  1
  O  5470  1  0.98921600  0.10368800  0.62172400  1
  O  5489  1  0.48919300  0.83586600  0.87438200  1
  O  5508  1  0.73943700  0.34145900  0.88172900  1
  O  5527  1  0.24003200  0.59423100  0.60989500  1
  O  5546  1  0.48975600  0.83211800  0.12060400  1
  O  5565  1  0.98961800  0.10437900  0.37296800  1
  O  5584  1  0.90071300  0.34243300  0.61023300  1
  O  5603  1  0.40088200  0.59461200  0.88280600  1
  O  5622  1  0.15043300  0.83152000  0.37238800  1
  O  5641  1  0.65105800  0.10367400  0.11975800  1
  O  5660  1  0.54576100  0.76260400  0.03311400  1
  O  5679  1  0.04354910  0.17466300  0.46227500  1
  O  5698  1  0.79454500  0.18377000  0.04209900  1
  O  5717  1  0.29486700  0.75585600  0.45400200  1
  O  5736  1  0.09561810  0.76185600  0.46027800  1
  O  5755  1  0.59586100  0.17373400  0.03196600  1
  O  5774  1  0.84438500  0.18256700  0.45328900  1
  O  5793  1  0.34653300  0.75368000  0.04117800  1
  O  5812  1  0.59574600  0.17369300  0.96204000  1
  O  5831  1  0.09357310  0.76315800  0.53255000  1
  O  5850  1  0.04560710  0.17308200  0.53149200  1
  O  5869  1  0.54576100  0.76250600  0.96086800  1
  O  5888  1  0.29474700  0.68199000  0.54011000  1
  O  5907  1  0.79449000  0.25374800  0.95198800  1
  O  5926  1  0.34673700  0.68397600  0.95292900  1
  O  5945  1  0.84449600  0.25487200  0.54082400  1
