# generated using pymatgen
data_H32C45N4
_symmetry_space_group_name_H-M   'P 1'
_cell_length_a   34.91285000
_cell_length_b   34.91280000
_cell_length_c   100.79000000
_cell_angle_alpha   90.00000000
_cell_angle_beta   90.00000000
_cell_angle_gamma   119.99985788
_symmetry_Int_Tables_number   1
_chemical_formula_structural   H32C45N4
_chemical_formula_sum   'H384 C540 N48'
_cell_volume   106394.37848499
_cell_formula_units_Z   12
loop_
 _symmetry_equiv_pos_site_id
 _symmetry_equiv_pos_as_xyz
  1  'x, y, z'
loop_
 _atom_site_type_symbol
 _atom_site_label
 _atom_site_symmetry_multiplicity
 _atom_site_fract_x
 _atom_site_fract_y
 _atom_site_fract_z
 _atom_site_occupancy
  H  25  1  0.56084500  0.88596300  0.91475900  1
  H  26  1  0.57278600  0.82396500  0.91485700  1
  H  27  1  0.57081000  0.74929800  0.91423700  1
  H  28  1  0.55477700  0.67394400  0.91277600  1
  H  29  1  0.42168400  0.63268300  0.90377800  1
  H  30  1  0.42612700  0.80121400  0.90570600  1
  H  31  1  0.42613900  0.70662900  0.93411200  1
  H  32  1  0.28638100  0.63767400  0.93429300  1
  H  33  1  0.28589900  0.64725300  0.91070800  1
  H  34  1  0.45753500  0.73364700  0.87736900  1
  H  35  1  0.29963300  0.66294500  0.88647000  1
  H  36  1  0.32550300  0.67753100  0.86398600  1
  H  66  1  0.29037600  0.41129000  0.24808000  1
  H  67  1  0.21641300  0.39928600  0.24817000  1
  H  68  1  0.14369200  0.40117900  0.24753500  1
  H  69  1  0.08432700  0.41714500  0.24608200  1
  H  70  1  0.17606800  0.55027200  0.23709500  1
  H  71  1  0.34025200  0.54599500  0.23903000  1
  H  72  1  0.24568700  0.54594100  0.26743200  1
  H  73  1  0.31628400  0.68570200  0.26758900  1
  H  74  1  0.32629900  0.68615800  0.24400400  1
  H  75  1  0.24134500  0.51452000  0.21067100  1
  H  76  1  0.32837800  0.67242200  0.21978800  1
  H  77  1  0.31727200  0.64657300  0.19730500  1
  H  107  1  0.08616400  0.68180000  0.58140900  1
  H  108  1  0.14814000  0.75575200  0.58149700  1
  H  109  1  0.22277700  0.82846400  0.58085500  1
  H  110  1  0.29812200  0.88780100  0.57940100  1
  H  111  1  0.33946100  0.79599500  0.57045900  1
  H  112  1  0.17096600  0.63186300  0.57239500  1
  H  113  1  0.26547200  0.72649400  0.60079100  1
  H  114  1  0.33460300  0.65586800  0.60100000  1
  H  115  1  0.32504100  0.64575900  0.57741500  1
  H  116  1  0.23856400  0.73084400  0.54404300  1
  H  117  1  0.30938900  0.64377800  0.55317500  1
  H  118  1  0.29482800  0.65503500  0.53068500  1
  H  148  1  0.39508900  0.09875700  0.91433500  1
  H  149  1  0.38285800  0.16068400  0.91406600  1
  H  150  1  0.38503600  0.23605800  0.91322700  1
  H  151  1  0.40219400  0.31203100  0.91230800  1
  H  152  1  0.53608800  0.35258100  0.90503900  1
  H  153  1  0.53050500  0.18414300  0.90639200  1
  H  154  1  0.53014500  0.27771200  0.93452800  1
  H  155  1  0.66992200  0.34816600  0.93474600  1
  H  156  1  0.67060700  0.33903200  0.91115200  1
  H  157  1  0.49943000  0.25092300  0.87765400  1
  H  158  1  0.65728000  0.32313200  0.88698900  1
  H  159  1  0.63176600  0.30791400  0.86448700  1
  H  189  1  0.66892500  0.57711200  0.24771800  1
  H  190  1  0.74307400  0.58931700  0.24745400  1
  H  191  1  0.81625100  0.58709200  0.24663600  1
  H  192  1  0.87504300  0.56990000  0.24572600  1
  H  193  1  0.78168000  0.43606500  0.23838000  1
  H  194  1  0.61887100  0.44173100  0.23971600  1
  H  195  1  0.71283100  0.44203900  0.26786100  1
  H  196  1  0.64296800  0.30225800  0.26809200  1
  H  197  1  0.63318500  0.30159000  0.24449900  1
  H  198  1  0.71676500  0.47270000  0.21096900  1
  H  199  1  0.63080300  0.31489800  0.22034400  1
  H  200  1  0.64111700  0.34034700  0.19783700  1
  H  230  1  0.87342100  0.30325800  0.58109800  1
  H  231  1  0.81150800  0.22909400  0.58082700  1
  H  232  1  0.73613900  0.15588500  0.58000400  1
  H  233  1  0.66017400  0.09705900  0.57907000  1
  H  234  1  0.61963900  0.19036000  0.57170200  1
  H  235  1  0.78804000  0.35324100  0.57307900  1
  H  236  1  0.69459900  0.25943700  0.60121500  1
  H  237  1  0.62410600  0.32872300  0.60141800  1
  H  238  1  0.63312400  0.33840600  0.57782000  1
  H  239  1  0.72156400  0.25565000  0.54431300  1
  H  240  1  0.64880800  0.34076800  0.55366300  1
  H  241  1  0.66428400  0.33075700  0.53116700  1
  H  271  1  0.66869700  0.09788200  0.39194500  1
  H  272  1  0.74287200  0.15950600  0.39163600  1
  H  273  1  0.81634600  0.23451100  0.39190300  1
  H  274  1  0.87573100  0.31005000  0.39296500  1
  H  275  1  0.78387100  0.35189700  0.40108800  1
  H  276  1  0.61964600  0.18406000  0.39998800  1
  H  277  1  0.71166900  0.27242200  0.37110100  1
  H  278  1  0.64877300  0.34895900  0.36989500  1
  H  279  1  0.64154100  0.34466000  0.39359400  1
  H  280  1  0.71800600  0.25174100  0.42802000  1
  H  281  1  0.64671000  0.33792300  0.41820900  1
  H  282  1  0.66005500  0.32655200  0.44081300  1
  H  312  1  0.87421900  0.57771500  0.05861800  1
  H  313  1  0.81260700  0.59028400  0.05830900  1
  H  314  1  0.73762100  0.58877900  0.05857200  1
  H  315  1  0.66209200  0.57265300  0.05964000  1
  H  316  1  0.62019300  0.43891500  0.06773000  1
  H  317  1  0.78800400  0.44246800  0.06662600  1
  H  318  1  0.69977400  0.44617000  0.03773000  1
  H  319  1  0.62301700  0.30675200  0.03651900  1
  H  320  1  0.62716900  0.30380300  0.06022300  1
  H  321  1  0.72078900  0.47312200  0.09465700  1
  H  322  1  0.63399000  0.31568400  0.08483900  1
  H  323  1  0.64573500  0.34036700  0.10744800  1
  H  353  1  0.39439800  0.30348400  0.72535800  1
  H  354  1  0.38180100  0.22929400  0.72505500  1
  H  355  1  0.38327300  0.15580100  0.72533000  1
  H  356  1  0.39937400  0.09638100  0.72637900  1
  H  357  1  0.53317100  0.18819100  0.73440100  1
  H  358  1  0.52967100  0.35248800  0.73331500  1
  H  359  1  0.52589800  0.26044700  0.70442800  1
  H  360  1  0.66532400  0.32326800  0.70320100  1
  H  361  1  0.66830200  0.33047300  0.72690200  1
  H  362  1  0.49900600  0.25431900  0.76135400  1
  H  363  1  0.65647000  0.32559900  0.75151700  1
  H  364  1  0.63181000  0.31247200  0.77412900  1
  H  394  1  0.28862600  0.88913000  0.39254100  1
  H  395  1  0.21423000  0.82756400  0.39265300  1
  H  396  1  0.14024100  0.75186200  0.39326600  1
  H  397  1  0.08136400  0.67577300  0.39372300  1
  H  398  1  0.17481100  0.63457700  0.39964700  1
  H  399  1  0.33778900  0.80234000  0.39924900  1
  H  400  1  0.24608600  0.71471900  0.37068800  1
  H  401  1  0.30987300  0.63901500  0.36930700  1
  H  402  1  0.31712000  0.64304200  0.39300300  1
  H  403  1  0.23962200  0.73440900  0.42764600  1
  H  404  1  0.31205600  0.64945200  0.41762400  1
  H  405  1  0.29861700  0.66038800  0.44026500  1
  H  435  1  0.08302800  0.40643200  0.05922200  1
  H  436  1  0.14460900  0.39362800  0.05934000  1
  H  437  1  0.22032500  0.39537900  0.05995000  1
  H  438  1  0.29641800  0.41261500  0.06041400  1
  H  439  1  0.33756400  0.54723800  0.06635700  1
  H  440  1  0.16976700  0.54238300  0.06594700  1
  H  441  1  0.25748500  0.53833000  0.03739700  1
  H  442  1  0.33321000  0.67781600  0.03601200  1
  H  443  1  0.32907000  0.68104500  0.05970600  1
  H  444  1  0.23806200  0.51214900  0.09434300  1
  H  445  1  0.32269300  0.66955400  0.08433600  1
  H  446  1  0.31205300  0.64513600  0.10697200  1
  H  476  1  0.56583500  0.68361100  0.72587800  1
  H  477  1  0.57861600  0.75799200  0.72596900  1
  H  478  1  0.57683100  0.83196100  0.72655000  1
  H  479  1  0.55955700  0.89079400  0.72700100  1
  H  480  1  0.42496200  0.79728700  0.73296600  1
  H  481  1  0.42988600  0.63439200  0.73261000  1
  H  482  1  0.43388800  0.72609000  0.70402700  1
  H  483  1  0.29441200  0.66256000  0.70266100  1
  H  484  1  0.29120900  0.65530200  0.72635700  1
  H  485  1  0.46009500  0.73259300  0.76097700  1
  H  486  1  0.30270700  0.66039400  0.75097000  1
  H  487  1  0.32711500  0.67389700  0.77360800  1
  H  498  1  0.49102600  0.77052500  0.83152600  1
  H  499  1  0.49227600  0.77250200  0.80810000  1
  H  502  1  0.36111000  0.63720900  0.84384400  1
  H  503  1  0.35549700  0.60747100  0.82950600  1
  H  504  1  0.32594100  0.63655300  0.83133000  1
  H  506  1  0.37030400  0.62994700  0.79652800  1
  H  507  1  0.34043800  0.65861000  0.79838000  1
  H  508  1  0.33151700  0.61611700  0.80918100  1
  H  510  1  0.46574500  0.72595900  0.78722100  1
  H  512  1  0.45940800  0.71253100  0.85157800  1
  H  518  1  0.24438000  0.48123200  0.16488300  1
  H  519  1  0.24539700  0.47996200  0.14145100  1
  H  522  1  0.24256600  0.61205300  0.17712000  1
  H  523  1  0.21786300  0.61736500  0.16285900  1
  H  524  1  0.27657700  0.64673900  0.16445200  1
  H  526  1  0.22503800  0.60175200  0.12972400  1
  H  527  1  0.28352900  0.63191500  0.13165900  1
  H  528  1  0.24957000  0.64058800  0.14238300  1
  H  530  1  0.22187700  0.50841600  0.12062400  1
  H  532  1  0.21757200  0.51356200  0.18485800  1
  H  538  1  0.20174800  0.72744600  0.49819800  1
  H  539  1  0.19977200  0.72671700  0.47477400  1
  H  542  1  0.33502800  0.73076900  0.51052000  1
  H  543  1  0.36477300  0.75489500  0.49618500  1
  H  544  1  0.33566400  0.69625400  0.49800300  1
  H  546  1  0.34232700  0.74726600  0.46320800  1
  H  547  1  0.31364600  0.68873600  0.46505700  1
  H  548  1  0.35613300  0.72229000  0.47586000  1
  H  550  1  0.24589100  0.74641300  0.45389300  1
  H  552  1  0.25962000  0.75377200  0.51824900  1
  H  558  1  0.46799800  0.21860100  0.83217100  1
  H  559  1  0.46645300  0.21559100  0.80873200  1
  H  562  1  0.60271700  0.34734700  0.84420200  1
  H  563  1  0.60703700  0.37920800  0.83042800  1
  H  564  1  0.63529900  0.34855500  0.83085900  1
  H  566  1  0.58836000  0.35676400  0.79668600  1
  H  567  1  0.61918300  0.32914200  0.79869900  1
  H  568  1  0.62719400  0.37184400  0.80934000  1
  H  570  1  0.49318300  0.26098100  0.78768400  1
  H  572  1  0.50512000  0.28452700  0.85180500  1
  H  578  1  0.71554900  0.50396600  0.16546000  1
  H  579  1  0.71435600  0.50561000  0.14203200  1
  H  582  1  0.70940000  0.36917300  0.17751500  1
  H  583  1  0.73733300  0.36507000  0.16381000  1
  H  584  1  0.67840400  0.33672500  0.16410500  1
  H  586  1  0.73419900  0.38397000  0.13004100  1
  H  587  1  0.67573300  0.35297200  0.13197800  1
  H  588  1  0.71037900  0.34509800  0.14267600  1
  H  590  1  0.72949000  0.47988500  0.12097900  1
  H  592  1  0.74428900  0.46730500  0.18511200  1
  H  598  1  0.75260800  0.25589200  0.49897200  1
  H  599  1  0.75618800  0.25756700  0.47552700  1
  H  602  1  0.62528100  0.26478600  0.51072000  1
  H  603  1  0.59280300  0.23609200  0.49713700  1
  H  604  1  0.62385200  0.29500900  0.49709900  1
  H  606  1  0.61559700  0.23858500  0.46315600  1
  H  607  1  0.64271400  0.29698000  0.46523900  1
  H  608  1  0.59986600  0.26180500  0.47579000  1
  H  610  1  0.70857600  0.23734000  0.45439900  1
  H  612  1  0.68424500  0.22672100  0.51840600  1
  H  618  1  0.42029400  0.50609600  0.91261500  1
  H  619  1  0.40739900  0.43340800  0.90984300  1
  H  622  1  0.57514900  0.60197500  0.90827100  1
  H  623  1  0.58570700  0.57184500  0.89651000  1
  H  624  1  0.59244500  0.56544300  0.91369600  1
  H  626  1  0.54617800  0.44710200  0.89828600  1
  H  627  1  0.57898300  0.49054000  0.90917800  1
  H  628  1  0.57203000  0.50069300  0.89232100  1
  H  630  1  0.43237400  0.38555400  0.89971100  1
  H  632  1  0.51312000  0.59515300  0.92112800  1
  H  638  1  0.05098300  0.55160500  0.24596600  1
  H  639  1  0.99124500  0.56460900  0.24322400  1
  H  642  1  0.99179700  0.39672000  0.24158000  1
  H  643  1  0.95115200  0.38629700  0.22981600  1
  H  644  1  0.93797400  0.37946600  0.24699900  1
  H  646  1  0.86603300  0.42594600  0.23164400  1
  H  647  1  0.87661200  0.39306900  0.24252400  1
  H  648  1  0.89371200  0.40004500  0.22566800  1
  H  650  1  0.91840600  0.53974700  0.23311600  1
  H  652  1  0.04711900  0.45871300  0.25444200  1
  H  658  1  0.46585100  0.92111500  0.57929400  1
  H  659  1  0.53861400  0.98082400  0.57656400  1
  H  662  1  0.37025000  0.98039900  0.57489800  1
  H  663  1  0.40045600  0.02100300  0.56312100  1
  H  664  1  0.40686500  0.03422900  0.58030100  1
  H  666  1  0.52526500  0.10604800  0.56492300  1
  H  667  1  0.48184900  0.09555300  0.57581000  1
  H  668  1  0.47167200  0.07839800  0.55895900  1
  H  670  1  0.58666400  0.05364300  0.56645900  1
  H  672  1  0.37699200  0.92499800  0.58777300  1
  H  678  1  0.90674900  0.47731500  0.39245400  1
  H  679  1  0.96511400  0.55080800  0.39513700  1
  H  682  1  0.96974000  0.38501800  0.39728400  1
  H  683  1  0.00988400  0.41627500  0.40905900  1
  H  684  1  0.02330500  0.42257200  0.39189300  1
  H  686  1  0.09245300  0.54161200  0.40707000  1
  H  687  1  0.08321300  0.49833200  0.39629200  1
  H  688  1  0.06591700  0.48814400  0.41313300  1
  H  690  1  0.03760400  0.60047700  0.40532200  1
  H  692  1  0.91352900  0.38916300  0.38439800  1
  H  698  1  0.49481900  0.43645300  0.05912100  1
  H  699  1  0.42133500  0.42133500  0.06181600  1
  H  702  1  0.58714500  0.59171900  0.06399100  1
  H  703  1  0.55589600  0.60059900  0.07577100  1
  H  704  1  0.54960300  0.60775700  0.05860700  1
  H  706  1  0.43055500  0.55784700  0.07379100  1
  H  707  1  0.47385100  0.59191600  0.06302100  1
  H  708  1  0.48402200  0.58475200  0.07985900  1
  H  710  1  0.37168900  0.44414800  0.07202800  1
  H  712  1  0.58297100  0.53139500  0.05108100  1
  H  718  1  0.53556500  0.06535800  0.72582700  1
  H  719  1  0.55074100  0.00701700  0.72849200  1
  H  722  1  0.38023200  0.00220500  0.73060700  1
  H  723  1  0.37134800  0.96202300  0.74236300  1
  H  724  1  0.36426700  0.94869400  0.72518500  1
  H  726  1  0.41416000  0.87951800  0.74031700  1
  H  727  1  0.38018500  0.88878100  0.72953400  1
  H  728  1  0.38719700  0.90596000  0.74640100  1
  H  730  1  0.52794900  0.93449900  0.73863300  1
  H  732  1  0.44060100  0.05853900  0.71775500  1
  H  738  1  0.41913800  0.00593000  0.90710600  1
  H  739  1  0.40884000  0.93385700  0.90752000  1
  H  742  1  0.57242500  0.10366600  0.91302800  1
  H  743  1  0.59122600  0.07760900  0.90201000  1
  H  744  1  0.58748600  0.06682800  0.91938300  1
  H  746  1  0.55548900  0.96153600  0.89938800  1
  H  747  1  0.55962500  0.96534500  0.91701100  1
  H  748  1  0.59074300  0.01168300  0.90698500  1
  H  750  1  0.43540900  0.88344000  0.90413600  1
  H  752  1  0.51586700  0.10341600  0.89994000  1
  H  758  1  0.55204500  0.55309300  0.24045400  1
  H  759  1  0.49024800  0.56336300  0.24087000  1
  H  762  1  0.49653300  0.39979800  0.24634600  1
  H  763  1  0.45167700  0.38101100  0.23532800  1
  H  764  1  0.44463400  0.38471700  0.25270400  1
  H  766  1  0.37131700  0.41670200  0.23271800  1
  H  767  1  0.37098500  0.41255800  0.25034000  1
  H  768  1  0.38622200  0.38145600  0.24031300  1
  H  770  1  0.41326200  0.53678200  0.23748200  1
  H  772  1  0.55283300  0.45642900  0.23324900  1
  H  778  1  0.96626400  0.42011600  0.57382700  1
  H  779  1  0.03833300  0.48190600  0.57423300  1
  H  782  1  0.86850300  0.47565500  0.57971100  1
  H  783  1  0.89455500  0.52048000  0.56868100  1
  H  784  1  0.90533100  0.52757500  0.58605500  1
  H  786  1  0.01062500  0.60083000  0.56605400  1
  H  787  1  0.00681100  0.60120700  0.58367500  1
  H  788  1  0.96047300  0.58594800  0.57364500  1
  H  790  1  0.08873900  0.55888600  0.57082900  1
  H  792  1  0.86877900  0.41931900  0.56663800  1
  H  798  1  0.40666000  0.98089700  0.39938100  1
  H  799  1  0.46906300  0.05252500  0.39893500  1
  H  802  1  0.45987300  0.88154700  0.39268000  1
  H  803  1  0.50540200  0.90701100  0.40347500  1
  H  804  1  0.51154400  0.91794200  0.38610200  1
  H  806  1  0.58687600  0.02224300  0.40618000  1
  H  807  1  0.58651400  0.01937700  0.38852700  1
  H  808  1  0.57106200  0.97238900  0.39825700  1
  H  810  1  0.54609200  0.10241000  0.40153100  1
  H  812  1  0.40457600  0.88251900  0.40605500  1
  H  818  1  0.99117800  0.43266000  0.06606300  1
  H  819  1  0.91955100  0.42343000  0.06561100  1
  H  822  1  0.09050900  0.58519700  0.05932000  1
  H  823  1  0.06509600  0.60529400  0.07012700  1
  H  824  1  0.05410200  0.60047800  0.05275600  1
  H  826  1  0.94982200  0.57151700  0.07284500  1
  H  827  1  0.95270700  0.57404100  0.05519200  1
  H  828  1  0.99968800  0.60556400  0.06492900  1
  H  830  1  0.86966700  0.45057500  0.06820100  1
  H  832  1  0.08968500  0.52907400  0.07268100  1
  H  838  1  0.53958500  0.56551900  0.73274000  1
  H  839  1  0.54878200  0.50310300  0.73229300  1
  H  842  1  0.38705000  0.51237200  0.72601500  1
  H  843  1  0.36695200  0.46686700  0.73682100  1
  H  844  1  0.37174700  0.46067800  0.71945000  1
  H  846  1  0.40066500  0.38534100  0.73954200  1
  H  847  1  0.39815400  0.38568800  0.72188800  1
  H  848  1  0.36664200  0.40117200  0.73161900  1
  H  850  1  0.52162300  0.42607600  0.73487400  1
  H  852  1  0.44323000  0.56766300  0.73938200  1
  H  858  1  0.34693400  0.70124700  0.97551100  1
  H  859  1  0.32760100  0.68592300  0.99815100  1
  H  862  1  0.37658600  0.59027700  0.96006200  1
  H  863  1  0.34393300  0.54800600  0.97111400  1
  H  864  1  0.40079200  0.58436900  0.97463000  1
  H  866  1  0.34033700  0.56104300  0.00935000  1
  H  867  1  0.38316500  0.57055200  0.99835900  1
  H  868  1  0.32704700  0.53388000  0.99405300  1
  H  870  1  0.36200900  0.65325000  0.01785000  1
  H  872  1  0.40609700  0.66747800  0.95712900  1
  H  878  1  0.31958100  0.62526800  0.30880900  1
  H  879  1  0.32363600  0.64468400  0.33144400  1
  H  882  1  0.17891600  0.59552700  0.29337800  1
  H  883  1  0.16935000  0.62823600  0.30442000  1
  H  884  1  0.14881600  0.57138300  0.30795200  1
  H  886  1  0.18600800  0.63190900  0.34265300  1
  H  887  1  0.15266500  0.58905100  0.33167700  1
  H  888  1  0.17212000  0.64516100  0.32735400  1
  H  890  1  0.25653800  0.61022600  0.35115300  1
  H  892  1  0.22659100  0.56598800  0.29044800  1
  H  898  1  0.27075200  0.65271800  0.64221300  1
  H  899  1  0.28620700  0.64875500  0.66483900  1
  H  902  1  0.38186500  0.79316400  0.62668800  1
  H  903  1  0.42414400  0.80279600  0.63773600  1
  H  904  1  0.38783900  0.82337100  0.64124200  1
  H  906  1  0.41126800  0.78631800  0.67596700  1
  H  907  1  0.40178000  0.81963800  0.66497500  1
  H  908  1  0.43836500  0.80009000  0.66066100  1
  H  910  1  0.31909900  0.71598100  0.68450700  1
  H  912  1  0.30480500  0.74574800  0.62374700  1
  H  918  1  0.60829200  0.28212400  0.97604500  1
  H  919  1  0.62795500  0.29768300  0.99865700  1
  H  922  1  0.58195000  0.39496000  0.96030400  1
  H  923  1  0.61502800  0.43706400  0.97134300  1
  H  924  1  0.55794800  0.40165700  0.97480500  1
  H  926  1  0.61805100  0.42434100  0.00959700  1
  H  927  1  0.57560500  0.41559400  0.99855800  1
  H  928  1  0.63194900  0.45130900  0.99427200  1
  H  930  1  0.59468500  0.33149000  0.01825400  1
  H  932  1  0.55049100  0.31772700  0.95760600  1
  H  938  1  0.63917800  0.36352100  0.30931700  1
  H  939  1  0.63490200  0.34398100  0.33193800  1
  H  942  1  0.77880400  0.39052700  0.29377700  1
  H  943  1  0.78781500  0.35748800  0.30483800  1
  H  944  1  0.80923600  0.41452300  0.30831600  1
  H  946  1  0.77155500  0.35436800  0.34307300  1
  H  947  1  0.80527500  0.39687900  0.33205400  1
  H  948  1  0.78491000  0.34057300  0.32777500  1
  H  950  1  0.70162300  0.37734100  0.35161300  1
  H  952  1  0.73247500  0.42153800  0.29088200  1
  H  958  1  0.68992500  0.33309800  0.64271300  1
  H  959  1  0.67438300  0.33724800  0.66532100  1
  H  962  1  0.57709800  0.19385200  0.62700500  1
  H  963  1  0.53500500  0.18485900  0.63804400  1
  H  964  1  0.57041300  0.16319500  0.64151500  1
  H  966  1  0.54776100  0.20068700  0.67629100  1
  H  967  1  0.55650500  0.16697100  0.66525600  1
  H  968  1  0.52077900  0.18758300  0.66096600  1
  H  970  1  0.64070800  0.27030700  0.68493100  1
  H  972  1  0.65432200  0.23966500  0.62423400  1
  C  1  1  0.40895600  0.71125100  0.89257800  1
  C  2  1  0.36340000  0.69025100  0.89506500  1
  C  3  1  0.35568100  0.68326500  0.90868300  1
  C  4  1  0.39616200  0.70062500  0.91533900  1
  C  5  1  0.39656000  0.69463700  0.92930800  1
  C  6  1  0.35617100  0.67115700  0.93652600  1
  C  7  1  0.31601100  0.65483600  0.92943300  1
  C  8  1  0.31542200  0.66049400  0.91561700  1
  C  9  1  0.33283500  0.67831700  0.88462200  1
  C  10  1  0.34834300  0.68713800  0.87146900  1
  C  11  1  0.39393100  0.70690100  0.86845600  1
  C  12  1  0.42440200  0.71922800  0.87921600  1
  C  13  1  0.46419100  0.76937600  0.90776400  1
  C  14  1  0.50659000  0.77606000  0.91031800  1
  C  15  1  0.50576500  0.73530100  0.90979700  1
  C  16  1  0.46290400  0.70165200  0.90669000  1
  C  17  1  0.53941300  0.72489400  0.91199300  1
  C  18  1  0.52964200  0.68044400  0.91121500  1
  C  19  1  0.48641700  0.64524000  0.90828200  1
  C  20  1  0.45329700  0.65692400  0.90588000  1
  C  21  1  0.45707900  0.80638100  0.90763600  1
  C  22  1  0.49239300  0.85030400  0.91015900  1
  C  23  1  0.53447900  0.85519700  0.91286900  1
  C  24  1  0.54184700  0.81892200  0.91294100  1
  C  37  1  0.43319700  0.72091100  0.90550400  1
  C  42  1  0.26739200  0.56308700  0.22588800  1
  C  43  1  0.29189500  0.60864400  0.22837400  1
  C  44  1  0.29261400  0.61637400  0.24199000  1
  C  45  1  0.26954800  0.57589500  0.24864900  1
  C  46  1  0.26324200  0.57551500  0.26262300  1
  C  47  1  0.28009800  0.61591000  0.26983400  1
  C  48  1  0.30384600  0.65606900  0.26273400  1
  C  49  1  0.31004300  0.65664300  0.24891600  1
  C  50  1  0.31055500  0.63922200  0.21793700  1
  C  51  1  0.30398000  0.62372300  0.20478400  1
  C  52  1  0.27820500  0.57813800  0.20176500  1
  C  53  1  0.25999500  0.54765600  0.21252300  1
  C  54  1  0.27035200  0.50788900  0.24108100  1
  C  55  1  0.23466000  0.46547200  0.24363200  1
  C  56  1  0.19470200  0.46625200  0.24311000  1
  C  57  1  0.20388000  0.50911300  0.24002100  1
  C  58  1  0.15065700  0.43257200  0.24529900  1
  C  59  1  0.11595000  0.44230200  0.24452500  1
  C  60  1  0.12393300  0.48552200  0.24159800  1
  C  61  1  0.16872700  0.51867100  0.23919600  1
  C  62  1  0.31448200  0.51503500  0.24095800  1
  C  63  1  0.32312500  0.47974100  0.24348200  1
  C  64  1  0.28595000  0.43764000  0.24618800  1
  C  65  1  0.24229700  0.43023500  0.24625400  1
  C  78  1  0.25283900  0.53885200  0.23881800  1
  C  83  1  0.26094900  0.70468400  0.55926300  1
  C  84  1  0.28195100  0.68013600  0.56175900  1
  C  85  1  0.28895400  0.67944600  0.57537700  1
  C  86  1  0.27153200  0.70252700  0.58202500  1
  C  87  1  0.27749100  0.70891900  0.59599400  1
  C  88  1  0.30102300  0.69208400  0.60321900  1
  C  89  1  0.31742600  0.66830300  0.59613400  1
  C  90  1  0.31178600  0.66203800  0.58231700  1
  C  91  1  0.29398900  0.66157800  0.55132100  1
  C  92  1  0.28517600  0.66824300  0.53816400  1
  C  93  1  0.26534900  0.69400500  0.53514200  1
  C  94  1  0.25299700  0.71214400  0.54589700  1
  C  95  1  0.20277500  0.70176900  0.57443400  1
  C  96  1  0.19606800  0.73747900  0.57697400  1
  C  97  1  0.23681800  0.77742200  0.57645400  1
  C  98  1  0.27049200  0.76822000  0.57337900  1
  C  99  1  0.24720100  0.82147800  0.57863000  1
  C  100  1  0.29164300  0.85617000  0.57785500  1
  C  101  1  0.32687200  0.84816100  0.57494300  1
  C  102  1  0.31521100  0.80335700  0.57255300  1
  C  103  1  0.16578200  0.65764600  0.57431300  1
  C  104  1  0.12185000  0.64902300  0.57682900  1
  C  105  1  0.11693600  0.68621200  0.57952300  1
  C  106  1  0.15319600  0.72986100  0.57958700  1
  C  119  1  0.25125200  0.71925600  0.57218400  1
  C  124  1  0.54780900  0.27402700  0.89295000  1
  C  125  1  0.59333900  0.29538000  0.89549000  1
  C  126  1  0.60085000  0.30221600  0.90911500  1
  C  127  1  0.56027400  0.28419700  0.91575400  1
  C  128  1  0.55977100  0.29003400  0.92972900  1
  C  129  1  0.60010500  0.31382800  0.93696400  1
  C  130  1  0.64034000  0.33076900  0.92987700  1
  C  131  1  0.64105200  0.32536900  0.91605500  1
  C  132  1  0.62410300  0.30758600  0.88509500  1
  C  133  1  0.60880200  0.29839100  0.87193100  1
  C  134  1  0.56324000  0.27822900  0.86885200  1
  C  135  1  0.53257000  0.26586200  0.87956100  1
  C  136  1  0.49205700  0.21563600  0.90791400  1
  C  137  1  0.44938400  0.20883500  0.91002100  1
  C  138  1  0.45037100  0.24970500  0.90946300  1
  C  139  1  0.49375500  0.28339500  0.90695700  1
  C  140  1  0.41671800  0.26039400  0.91126500  1
  C  141  1  0.42697100  0.30506100  0.91065700  1
  C  142  1  0.47071000  0.34008500  0.90828900  1
  C  143  1  0.50401000  0.32832800  0.90652900  1
  C  144  1  0.49926400  0.17873500  0.90792600  1
  C  145  1  0.46382200  0.13468400  0.91020000  1
  C  146  1  0.42146900  0.12960200  0.91254800  1
  C  147  1  0.41396600  0.16582300  0.91240200  1
  C  160  1  0.52338500  0.26409300  0.90585700  1
  C  165  1  0.69136500  0.42437600  0.22628000  1
  C  166  1  0.66710600  0.37885400  0.22882900  1
  C  167  1  0.66649600  0.37135800  0.24245100  1
  C  168  1  0.68911800  0.41193300  0.24908700  1
  C  169  1  0.69546500  0.41242200  0.26306200  1
  C  170  1  0.67875300  0.37207600  0.27029900  1
  C  171  1  0.65526700  0.33184800  0.26322100  1
  C  172  1  0.64920700  0.33114600  0.24939700  1
  C  173  1  0.64846900  0.34806900  0.21844300  1
  C  174  1  0.65455200  0.36333700  0.20527600  1
  C  175  1  0.68005600  0.40888000  0.20218300  1
  C  176  1  0.69846100  0.43957200  0.21288400  1
  C  177  1  0.68880900  0.48015300  0.24125000  1
  C  178  1  0.72468700  0.52280700  0.24337700  1
  C  179  1  0.76456100  0.52179900  0.24281900  1
  C  180  1  0.75486000  0.47843200  0.24027400  1
  C  181  1  0.80890000  0.55542200  0.24465100  1
  C  182  1  0.84330300  0.54515500  0.24404100  1
  C  183  1  0.83457000  0.50141100  0.24166900  1
  C  184  1  0.78951700  0.46814200  0.23987700  1
  C  185  1  0.64471000  0.47296100  0.24126200  1
  C  186  1  0.63610800  0.50840000  0.24355000  1
  C  187  1  0.67338200  0.55073400  0.24591900  1
  C  188  1  0.71710400  0.55822400  0.24577600  1
  C  201  1  0.70592100  0.44881100  0.23918500  1
  C  206  1  0.69819400  0.28065300  0.55961800  1
  C  207  1  0.67670200  0.30469700  0.56215900  1
  C  208  1  0.66978700  0.30530300  0.57578100  1
  C  209  1  0.68786500  0.28281600  0.58242300  1
  C  210  1  0.68217700  0.27663600  0.59640800  1
  C  211  1  0.65841300  0.29321500  0.60364200  1
  C  212  1  0.64144100  0.31647100  0.59654900  1
  C  213  1  0.64674700  0.32247400  0.58272200  1
  C  214  1  0.66445600  0.32323300  0.55176800  1
  C  215  1  0.67381000  0.31730400  0.53860600  1
  C  216  1  0.69410700  0.29203500  0.53552100  1
  C  217  1  0.70647700  0.27371300  0.54622600  1
  C  218  1  0.75655500  0.28330500  0.57461400  1
  C  219  1  0.76336400  0.24744500  0.57674200  1
  C  220  1  0.72250500  0.20754900  0.57617400  1
  C  221  1  0.68882800  0.21721800  0.57361600  1
  C  222  1  0.71181300  0.16321400  0.57799800  1
  C  223  1  0.66714900  0.12879300  0.57738700  1
  C  224  1  0.63213000  0.13750100  0.57500100  1
  C  225  1  0.64389100  0.18254400  0.57320800  1
  C  226  1  0.79344800  0.32741500  0.57463100  1
  C  227  1  0.83749600  0.33604100  0.57692600  1
  C  228  1  0.84258000  0.29878300  0.57929600  1
  C  229  1  0.80636700  0.25505300  0.57914900  1
  C  242  1  0.70810300  0.26615100  0.57253200  1
  C  247  1  0.69445900  0.27615800  0.41262400  1
  C  248  1  0.67370400  0.30080000  0.40989800  1
  C  249  1  0.67170400  0.30545400  0.39618100  1
  C  250  1  0.69117500  0.28394000  0.38975300  1
  C  251  1  0.69616000  0.28704000  0.37570800  1
  C  252  1  0.68192300  0.31203200  0.36811600  1
  C  253  1  0.66063800  0.33175200  0.37499300  1
  C  254  1  0.65581100  0.32899200  0.38889500  1
  C  255  1  0.66095900  0.31914700  0.42021900  1
  C  256  1  0.66913400  0.31247200  0.43345000  1
  C  257  1  0.68952000  0.28736500  0.43666900  1
  C  258  1  0.70214200  0.26901400  0.42604800  1
  C  259  1  0.68952200  0.21521400  0.39803300  1
  C  260  1  0.72508600  0.20808600  0.39566700  1
  C  261  1  0.76523400  0.24878000  0.39592100  1
  C  262  1  0.75616900  0.28275400  0.39861500  1
  C  263  1  0.80934300  0.25909000  0.39385300  1
  C  264  1  0.84406800  0.30363200  0.39439800  1
  C  265  1  0.83605100  0.33905100  0.39698500  1
  C  266  1  0.79125700  0.32752600  0.39922000  1
  C  267  1  0.64527700  0.17848000  0.39826400  1
  C  268  1  0.63632500  0.13428100  0.39606300  1
  C  269  1  0.67334800  0.12886400  0.39360300  1
  C  270  1  0.71713000  0.16491000  0.39341400  1
  C  283  1  0.70731900  0.26388800  0.39984100  1
  C  288  1  0.69587400  0.42519400  0.07925800  1
  C  289  1  0.67106800  0.37981000  0.07652900  1
  C  290  1  0.66647700  0.37316200  0.06281200  1
  C  291  1  0.68810400  0.41415000  0.05638500  1
  C  292  1  0.68508000  0.41604400  0.04233700  1
  C  293  1  0.66006400  0.37682300  0.03474300  1
  C  294  1  0.64025500  0.33581700  0.04162100  1
  C  295  1  0.64294700  0.33373600  0.05552300  1
  C  296  1  0.65279400  0.34870600  0.08685000  1
  C  297  1  0.65965000  0.36354000  0.10008200  1
  C  298  1  0.68490800  0.40902200  0.10330600  1
  C  299  1  0.70320700  0.43999900  0.09268300  1
  C  300  1  0.75686300  0.48120200  0.06467400  1
  C  301  1  0.76400900  0.52390600  0.06231800  1
  C  302  1  0.72332900  0.52338400  0.06257900  1
  C  303  1  0.68934100  0.48034100  0.06525800  1
  C  304  1  0.71303300  0.55719500  0.06051700  1
  C  305  1  0.66849900  0.54739900  0.06106600  1
  C  306  1  0.63306900  0.50396500  0.06364600  1
  C  307  1  0.64457400  0.47067500  0.06586600  1
  C  308  1  0.79359300  0.47368300  0.06490500  1
  C  309  1  0.83780000  0.50893400  0.06271800  1
  C  310  1  0.84323000  0.55138300  0.06026500  1
  C  311  1  0.80719200  0.55912800  0.06007700  1
  C  324  1  0.70818400  0.45033700  0.06647600  1
  C  329  1  0.54692700  0.27764300  0.74594900  1
  C  330  1  0.59231200  0.29833500  0.74321500  1
  C  331  1  0.59894800  0.30044300  0.72949700  1
  C  332  1  0.55794600  0.28092600  0.72307600  1
  C  333  1  0.55603200  0.27594600  0.70903000  1
  C  334  1  0.59524800  0.29016800  0.70143200  1
  C  335  1  0.63626100  0.31143000  0.70830400  1
  C  336  1  0.63836000  0.31627700  0.72220600  1
  C  337  1  0.62344400  0.31128600  0.75353200  1
  C  338  1  0.60862600  0.30321900  0.76676700  1
  C  339  1  0.56313400  0.28281000  0.76999300  1
  C  340  1  0.53213500  0.27006400  0.75937600  1
  C  341  1  0.49090600  0.28261000  0.73138100  1
  C  342  1  0.44818500  0.24705300  0.72904500  1
  C  343  1  0.44870500  0.20689200  0.72929400  1
  C  344  1  0.49175700  0.21593800  0.73195600  1
  C  345  1  0.41486600  0.16278700  0.72725500  1
  C  346  1  0.42464900  0.12803900  0.72779200  1
  C  347  1  0.46809400  0.13602900  0.73034300  1
  C  348  1  0.50141100  0.18082600  0.73255100  1
  C  349  1  0.49844100  0.32686400  0.73161000  1
  C  350  1  0.46319500  0.33583400  0.72943400  1
  C  351  1  0.42072900  0.29881900  0.72699900  1
  C  352  1  0.41296600  0.25502800  0.72681400  1
  C  365  1  0.52176900  0.26478800  0.73317100  1
  C  370  1  0.26335200  0.71040400  0.41218900  1
  C  371  1  0.28439100  0.68608900  0.40939900  1
  C  372  1  0.28664800  0.68193000  0.39567000  1
  C  373  1  0.26686900  0.70326100  0.38929700  1
  C  374  1  0.26190500  0.70034800  0.37525200  1
  C  375  1  0.27632300  0.67558300  0.36761900  1
  C  376  1  0.29789800  0.65606100  0.37444200  1
  C  377  1  0.30274900  0.65867300  0.38833900  1
  C  378  1  0.29746500  0.66788200  0.41967900  1
  C  379  1  0.28922900  0.67429100  0.43293000  1
  C  380  1  0.26849900  0.69903100  0.43620900  1
  C  381  1  0.25559000  0.71726700  0.42563100  1
  C  382  1  0.26786800  0.77151900  0.39790900  1
  C  383  1  0.23212100  0.77873800  0.39608700  1
  C  384  1  0.19204200  0.73790900  0.39635700  1
  C  385  1  0.20161500  0.70390300  0.39831900  1
  C  386  1  0.14762400  0.72733200  0.39480600  1
  C  387  1  0.11316400  0.68258900  0.39514600  1
  C  388  1  0.12189100  0.64732100  0.39697000  1
  C  389  1  0.16696400  0.65894300  0.39847700  1
  C  390  1  0.31210400  0.80815500  0.39799200  1
  C  391  1  0.32104500  0.85247200  0.39608400  1
  C  392  1  0.28392400  0.85806900  0.39406300  1
  C  393  1  0.24005500  0.82206500  0.39412600  1
  C  406  1  0.25045200  0.72286800  0.39944800  1
  C  411  1  0.26168900  0.55991700  0.07889400  1
  C  412  1  0.28589500  0.60527800  0.07610600  1
  C  413  1  0.29015100  0.61168900  0.06237500  1
  C  414  1  0.26884700  0.57058000  0.05600000  1
  C  415  1  0.27186600  0.56852300  0.04195900  1
  C  416  1  0.29664300  0.60770100  0.03432400  1
  C  417  1  0.31615800  0.64879800  0.04114800  1
  C  418  1  0.31346500  0.65103900  0.05504300  1
  C  419  1  0.30422100  0.63653300  0.08638900  1
  C  420  1  0.29796800  0.62187000  0.09963800  1
  C  421  1  0.27329100  0.57639500  0.10291500  1
  C  422  1  0.25498500  0.54526900  0.09233200  1
  C  423  1  0.20061100  0.50330700  0.06460500  1
  C  424  1  0.19341100  0.46034700  0.06278000  1
  C  425  1  0.23425000  0.46111500  0.06305600  1
  C  426  1  0.26824300  0.50469800  0.06502300  1
  C  427  1  0.24484200  0.42728700  0.06149900  1
  C  428  1  0.28958900  0.43758700  0.06184200  1
  C  429  1  0.32484100  0.48157800  0.06368300  1
  C  430  1  0.31320700  0.51502100  0.06518500  1
  C  431  1  0.16396900  0.51089300  0.06468400  1
  C  432  1  0.11966200  0.47550600  0.06277100  1
  C  433  1  0.11408000  0.43279600  0.06074800  1
  C  434  1  0.15009800  0.42495100  0.06081200  1
  C  447  1  0.24925900  0.53455500  0.06615100  1
  C  452  1  0.41233800  0.70881900  0.74552500  1
  C  453  1  0.36698100  0.68777700  0.74274100  1
  C  454  1  0.36056100  0.68558000  0.72901300  1
  C  455  1  0.40165600  0.70518600  0.72263200  1
  C  456  1  0.40370000  0.71032400  0.70859400  1
  C  457  1  0.36452100  0.69597000  0.70096500  1
  C  458  1  0.32343100  0.67447600  0.70779200  1
  C  459  1  0.32120200  0.66960100  0.72168900  1
  C  460  1  0.33572600  0.67488100  0.75302200  1
  C  461  1  0.35039000  0.68317200  0.76627200  1
  C  462  1  0.39585500  0.70381900  0.76954700  1
  C  463  1  0.42698000  0.71663200  0.75896500  1
  C  464  1  0.46894500  0.70430700  0.73124700  1
  C  465  1  0.51189300  0.74007000  0.72940300  1
  C  466  1  0.51110900  0.78013400  0.72967200  1
  C  467  1  0.46752600  0.77053400  0.73164000  1
  C  468  1  0.54491900  0.82455900  0.72810200  1
  C  469  1  0.53460000  0.85899400  0.72843700  1
  C  470  1  0.49060300  0.85023800  0.73028000  1
  C  471  1  0.45718300  0.80515900  0.73179400  1
  C  472  1  0.46137100  0.66008400  0.73133700  1
  C  473  1  0.49676500  0.65116700  0.72943500  1
  C  474  1  0.53946600  0.68829700  0.72740000  1
  C  475  1  0.54730100  0.73215800  0.72744800  1
  C  488  1  0.43768500  0.72169200  0.73278200  1
  C  493  1  0.43045800  0.71422100  0.80490500  1
  C  494  1  0.46531200  0.74691700  0.81262200  1
  C  495  1  0.46459700  0.74577100  0.82656400  1
  C  496  1  0.42923600  0.71146700  0.83368000  1
  C  497  1  0.39386600  0.67694800  0.82618000  1
  C  500  1  0.39404100  0.67880200  0.81184700  1
  C  501  1  0.35735700  0.63776500  0.83316400  1
  C  505  1  0.35711200  0.64386500  0.80368100  1
  C  509  1  0.43617800  0.71754600  0.79093200  1
  C  511  1  0.43331800  0.71251800  0.84762900  1
  C  513  1  0.24919000  0.54187700  0.13822500  1
  C  514  1  0.24683200  0.50697600  0.14595800  1
  C  515  1  0.24622200  0.50770100  0.15989900  1
  C  516  1  0.24741600  0.54317500  0.16698700  1
  C  517  1  0.24853700  0.57863600  0.15946100  1
  C  520  1  0.25015000  0.57832900  0.14512900  1
  C  521  1  0.24636900  0.61545600  0.16642100  1
  C  525  1  0.25203400  0.61510800  0.13691700  1
  C  529  1  0.24708700  0.53594800  0.12427500  1
  C  531  1  0.24419700  0.53913000  0.18093100  1
  C  533  1  0.25804800  0.72317100  0.47157700  1
  C  534  1  0.22535200  0.72532900  0.47929600  1
  C  535  1  0.22649700  0.72575900  0.49323700  1
  C  536  1  0.26079300  0.72469600  0.50035500  1
  C  537  1  0.29530300  0.72382400  0.49285600  1
  C  540  1  0.29345600  0.72215200  0.47852200  1
  C  541  1  0.33447100  0.72646800  0.49984100  1
  C  545  1  0.32839400  0.72015300  0.47035900  1
  C  549  1  0.25474600  0.72559100  0.45760200  1
  C  551  1  0.25974500  0.72774300  0.51430400  1
  C  553  1  0.52869700  0.27317200  0.80534800  1
  C  554  1  0.49376400  0.24099700  0.81317400  1
  C  555  1  0.49466200  0.24269200  0.82711300  1
  C  556  1  0.53067400  0.27666700  0.83409300  1
  C  557  1  0.56649700  0.31030700  0.82651000  1
  C  560  1  0.56553700  0.30851700  0.81217800  1
  C  561  1  0.60469600  0.34810200  0.83344400  1
  C  565  1  0.60203600  0.34354700  0.80391500  1
  C  569  1  0.52276700  0.26942100  0.79138400  1
  C  571  1  0.52677200  0.27697200  0.84800000  1
  C  573  1  0.70988700  0.44345100  0.13862800  1
  C  574  1  0.71238400  0.47826400  0.14646600  1
  C  575  1  0.71304000  0.47732300  0.16040600  1
  C  576  1  0.71101000  0.44132900  0.16739300  1
  C  577  1  0.70897400  0.40556800  0.15981300  1
  C  580  1  0.70840200  0.40663000  0.14547800  1
  C  581  1  0.70846200  0.36732500  0.16675600  1
  C  585  1  0.70720700  0.37020800  0.13723600  1
  C  589  1  0.71269000  0.44940900  0.12464300  1
  C  591  1  0.71523900  0.44528000  0.18130000  1
  C  593  1  0.69885100  0.26255100  0.47201800  1
  C  594  1  0.73078700  0.25962100  0.47991400  1
  C  595  1  0.72877500  0.25872300  0.49385200  1
  C  596  1  0.69482700  0.26106000  0.50074400  1
  C  597  1  0.66152600  0.26360100  0.49308800  1
  C  600  1  0.66343000  0.26414600  0.47876000  1
  C  601  1  0.62411900  0.26496400  0.49995100  1
  C  605  1  0.62842800  0.26537000  0.47042000  1
  C  609  1  0.70304800  0.26056000  0.45807500  1
  C  611  1  0.69388000  0.25648800  0.51464000  1
  C  613  1  0.47381800  0.44951800  0.90629700  1
  C  614  1  0.43934000  0.45883200  0.90890500  1
  C  615  1  0.44678800  0.50217300  0.91042800  1
  C  616  1  0.48957400  0.53950800  0.90956900  1
  C  617  1  0.52545600  0.53150100  0.90703300  1
  C  620  1  0.51747400  0.48703600  0.90493500  1
  C  621  1  0.57193900  0.56981200  0.90636400  1
  C  625  1  0.55537600  0.48068800  0.90101800  1
  C  629  1  0.46094700  0.40413200  0.90438300  1
  C  631  1  0.49551300  0.58155000  0.91296400  1
  C  633  1  0.94086000  0.49822000  0.23967300  1
  C  634  1  0.98467600  0.53265300  0.24228000  1
  C  635  1  0.02053600  0.52514300  0.24379000  1
  C  636  1  0.01502100  0.48233700  0.24292200  1
  C  637  1  0.97111800  0.44650100  0.24037200  1
  C  640  1  0.93466700  0.45454700  0.23829300  1
  C  641  1  0.96287500  0.39999500  0.23967600  1
  C  645  1  0.89039500  0.41669200  0.23437000  1
  C  649  1  0.90838500  0.51115800  0.23778000  1
  C  651  1  0.05109200  0.47628500  0.24627400  1
  C  653  1  0.52265400  0.03122300  0.57298600  1
  C  654  1  0.51323800  0.98740400  0.57560300  1
  C  655  1  0.46985600  0.95156300  0.57710200  1
  C  656  1  0.43258100  0.95710200  0.57621300  1
  C  657  1  0.44068800  0.00102100  0.57367200  1
  C  660  1  0.48519800  0.03744800  0.57159300  1
  C  661  1  0.40244900  0.00930000  0.57298300  1
  C  665  1  0.49165100  0.08172400  0.56765800  1
  C  669  1  0.56807600  0.06368400  0.57110200  1
  C  671  1  0.39045300  0.92105300  0.57956800  1
  C  673  1  0.01670900  0.53668200  0.39884700  1
  C  674  1  0.97255000  0.52603700  0.39616100  1
  C  675  1  0.93751200  0.48221100  0.39468200  1
  C  676  1  0.94422800  0.44567300  0.39566400  1
  C  677  1  0.98852000  0.45503600  0.39830800  1
  C  680  1  0.02412100  0.49999700  0.40035000  1
  C  681  1  0.99805800  0.41764500  0.39915800  1
  C  685  1  0.06880200  0.50774800  0.40437900  1
  C  689  1  0.04827900  0.58241800  0.40068300  1
  C  691  1  0.90891200  0.40296800  0.39241100  1
  C  693  1  0.43548100  0.48704900  0.06554900  1
  C  694  1  0.44611400  0.45353500  0.06285100  1
  C  695  1  0.48993500  0.46231500  0.06136800  1
  C  696  1  0.52647300  0.50557000  0.06235600  1
  C  697  1  0.51712400  0.54049700  0.06501000  1
  C  700  1  0.47216600  0.53113700  0.06706000  1
  C  701  1  0.55452100  0.58741900  0.06586700  1
  C  705  1  0.46442400  0.56806500  0.07110100  1
  C  709  1  0.38975000  0.47289300  0.06739200  1
  C  711  1  0.56916000  0.51293700  0.05908800  1
  C  713  1  0.48501900  0.95535500  0.73215600  1
  C  714  1  0.51851600  0.99954500  0.72950000  1
  C  715  1  0.50970200  0.03456700  0.72803200  1
  C  716  1  0.46642100  0.02778900  0.72899000  1
  C  717  1  0.43150600  0.98347500  0.73161800  1
  C  720  1  0.44089500  0.94789300  0.73364600  1
  C  721  1  0.38456300  0.97392200  0.73246400  1
  C  725  1  0.40399400  0.90314000  0.73764500  1
  C  729  1  0.49921500  0.92380700  0.73399000  1
  C  731  1  0.45899600  0.06311200  0.72577100  1
  C  733  1  0.47638100  0.95097000  0.90815500  1
  C  734  1  0.44072000  0.95965800  0.90795700  1
  C  735  1  0.44668800  0.00277400  0.90782100  1
  C  736  1  0.48904900  0.04102400  0.90825200  1
  C  737  1  0.52599900  0.03366900  0.90903600  1
  C  740  1  0.51988700  0.98940600  0.90851100  1
  C  741  1  0.57152400  0.07262800  0.91092300  1
  C  745  1  0.55860800  0.98198600  0.90796700  1
  C  749  1  0.46539700  0.90530200  0.90739600  1
  C  751  1  0.49373900  0.08388500  0.90660700  1
  C  753  1  0.43983400  0.49581500  0.24149200  1
  C  754  1  0.48418000  0.53148400  0.24129300  1
  C  755  1  0.52133900  0.52553600  0.24115800  1
  C  756  1  0.51725000  0.48318400  0.24159000  1
  C  757  1  0.47294500  0.44622100  0.24236800  1
  C  760  1  0.43478300  0.45231600  0.24184200  1
  C  761  1  0.46639500  0.40069700  0.24424500  1
  C  765  1  0.38865000  0.41358600  0.24129600  1
  C  769  1  0.40514100  0.50678700  0.24073500  1
  C  771  1  0.55541400  0.47848400  0.23993900  1
  C  773  1  0.02120700  0.53232600  0.57484700  1
  C  774  1  0.01252600  0.48797800  0.57466400  1
  C  775  1  0.96941300  0.45082200  0.57453200  1
  C  776  1  0.93115800  0.45492500  0.57495500  1
  C  777  1  0.93850600  0.49922900  0.57572400  1
  C  780  1  0.98276600  0.53738700  0.57519300  1
  C  781  1  0.89953800  0.50578700  0.57760100  1
  C  785  1  0.99017200  0.58351900  0.57463400  1
  C  789  1  0.06687000  0.56701200  0.57408400  1
  C  791  1  0.88830200  0.41674500  0.57331300  1
  C  793  1  0.51881800  0.03453100  0.39790400  1
  C  794  1  0.47468100  0.02644500  0.39834800  1
  C  795  1  0.43713200  0.98358700  0.39850200  1
  C  796  1  0.44053600  0.94496400  0.39784000  1
  C  797  1  0.48457100  0.95169200  0.39681400  1
  C  800  1  0.52316400  0.99568600  0.39731300  1
  C  801  1  0.49035900  0.91234400  0.39469800  1
  C  805  1  0.56906000  0.00239000  0.39755800  1
  C  809  1  0.55397800  0.08006000  0.39858600  1
  C  811  1  0.40202700  0.90231100  0.39947800  1
  C  813  1  0.93754400  0.49117600  0.06457000  1
  C  814  1  0.94562800  0.45512700  0.06501200  1
  C  815  1  0.98848600  0.46043900  0.06517200  1
  C  816  1  0.02710700  0.50247000  0.06451400  1
  C  817  1  0.02038200  0.53977300  0.06347900  1
  C  820  1  0.97638600  0.53437100  0.06397700  1
  C  821  1  0.05972700  0.58490300  0.06135100  1
  C  825  1  0.96968400  0.57356200  0.06422500  1
  C  829  1  0.89201400  0.48080700  0.06525000  1
  C  831  1  0.06973800  0.50658300  0.06616100  1
  C  833  1  0.48102600  0.45336900  0.73126100  1
  C  834  1  0.51708900  0.49749900  0.73170500  1
  C  835  1  0.51179700  0.53505500  0.73185900  1
  C  836  1  0.46978000  0.53167200  0.73119700  1
  C  837  1  0.43246100  0.48764600  0.73016800  1
  C  840  1  0.43784200  0.44904000  0.73067000  1
  C  841  1  0.38733900  0.48188100  0.72804400  1
  C  845  1  0.39863600  0.40315700  0.73091900  1
  C  849  1  0.49137800  0.41819500  0.73194100  1
  C  851  1  0.46566300  0.57018800  0.73284500  1
  C  853  1  0.33533600  0.62948400  0.99963900  1
  C  854  1  0.33430800  0.66461200  0.99301200  1
  C  855  1  0.34599300  0.67385400  0.97956100  1
  C  856  1  0.35943700  0.64851900  0.97203200  1
  C  857  1  0.35895000  0.61146600  0.97833400  1
  C  860  1  0.34752900  0.60235000  0.99218800  1
  C  861  1  0.37080600  0.58223000  0.97057500  1
  C  865  1  0.34959200  0.56511300  0.99890500  1
  C  869  1  0.33422600  0.63047300  0.01354300  1
  C  871  1  0.37711300  0.66473700  0.95936800  1
  C  873  1  0.25943100  0.63686900  0.33294200  1
  C  874  1  0.29555900  0.63784000  0.32631100  1
  C  875  1  0.29310500  0.62613200  0.31287000  1
  C  876  1  0.25431100  0.61265200  0.30534600  1
  C  877  1  0.21776500  0.61318900  0.31164600  1
  C  880  1  0.22009100  0.62465300  0.32549600  1
  C  881  1  0.17667200  0.60134600  0.30388900  1
  C  885  1  0.18080600  0.62262200  0.33221100  1
  C  889  1  0.26153700  0.63800000  0.34684200  1
  C  891  1  0.25282900  0.59498400  0.29268000  1
  C  893  1  0.34271800  0.71289300  0.66629400  1
  C  894  1  0.30752300  0.67673200  0.65968100  1
  C  895  1  0.29820800  0.67915200  0.64624400  1
  C  896  1  0.32354900  0.71789500  0.63869900  1
  C  897  1  0.36067800  0.75444100  0.64497700  1
  C  900  1  0.36985800  0.75217500  0.65882700  1
  C  901  1  0.38993300  0.79548100  0.63720000  1
  C  905  1  0.40716600  0.79147000  0.66552300  1
  C  909  1  0.34178900  0.71086000  0.68019300  1
  C  911  1  0.30717500  0.71935700  0.62606500  1
  C  913  1  0.62151300  0.35490500  0.00003600  1
  C  914  1  0.62169400  0.31923400  0.99346800  1
  C  915  1  0.60984300  0.30987000  0.98003900  1
  C  916  1  0.59708200  0.33562700  0.97244500  1
  C  917  1  0.59859400  0.37329800  0.97865900  1
  C  920  1  0.61010400  0.38250300  0.99250600  1
  C  921  1  0.58768100  0.40307300  0.97081500  1
  C  925  1  0.60889900  0.42031200  0.99914300  1
  C  929  1  0.62256400  0.35406100  0.01394100  1
  C  931  1  0.57882500  0.31906600  0.95985000  1
  C  933  1  0.69862600  0.35061000  0.33340500  1
  C  934  1  0.66276100  0.35023000  0.32678400  1
  C  935  1  0.66536300  0.36203300  0.31334700  1
  C  936  1  0.70400400  0.37490900  0.30580300  1
  C  937  1  0.74020000  0.37364300  0.31207900  1
  C  940  1  0.73776600  0.36215600  0.32593200  1
  C  941  1  0.78104600  0.38475200  0.30429200  1
  C  945  1  0.77677600  0.36353200  0.33262500  1
  C  949  1  0.69655800  0.34953400  0.34731000  1
  C  951  1  0.70579700  0.39298100  0.29318000  1
  C  953  1  0.61718300  0.27357600  0.66671600  1
  C  954  1  0.65283600  0.30942000  0.66014200  1
  C  955  1  0.66218800  0.30690900  0.64671400  1
  C  956  1  0.63644700  0.26835500  0.63913400  1
  C  957  1  0.59877400  0.23221000  0.64535100  1
  C  960  1  0.58958200  0.23454800  0.65919900  1
  C  961  1  0.56899500  0.19150000  0.63751600  1
  C  965  1  0.55178300  0.19554800  0.66584200  1
  C  969  1  0.61804900  0.27549300  0.68062400  1
  C  971  1  0.65295400  0.26660200  0.62653800  1
  N  38  1  0.47672800  0.60232200  0.90736400  1
  N  39  1  0.40284000  0.70997700  0.85540700  1
  N  40  1  0.35170600  0.66258900  0.94961600  1
  N  41  1  0.49087600  0.88855200  0.91030600  1
  N  79  1  0.09067800  0.49518000  0.24069000  1
  N  80  1  0.27252900  0.56927000  0.18871200  1
  N  81  1  0.27604200  0.62039600  0.28292400  1
  N  82  1  0.36290400  0.48128800  0.24363300  1
  N  120  1  0.36978400  0.88140600  0.57402300  1
  N  121  1  0.26231300  0.69984300  0.52209100  1
  N  122  1  0.30956600  0.69621900  0.61631100  1
  N  123  1  0.08361400  0.60924900  0.57698200  1
  N  161  1  0.48173100  0.38335900  0.90846400  1
  N  162  1  0.55454500  0.27417500  0.85578200  1
  N  163  1  0.60451400  0.32215300  0.95006800  1
  N  164  1  0.46630700  0.09693800  0.91076400  1
  N  202  1  0.86680900  0.49037300  0.24184400  1
  N  203  1  0.68479900  0.41747600  0.18910800  1
  N  204  1  0.68266000  0.36762800  0.28340100  1
  N  205  1  0.59587400  0.50591600  0.24411400  1
  N  243  1  0.58885400  0.10525500  0.57516900  1
  N  244  1  0.69847200  0.28773100  0.52244700  1
  N  245  1  0.65014900  0.28938300  0.61675100  1
  N  246  1  0.87523900  0.37627700  0.57748700  1
  N  284  1  0.86905500  0.38208300  0.39779600  1
  N  285  1  0.69546800  0.28445600  0.44972100  1
  N  286  1  0.68711700  0.31570400  0.35476800  1
  N  287  1  0.59634700  0.09624400  0.39597700  1
  N  325  1  0.59004500  0.49395200  0.06446300  1
  N  326  1  0.68849400  0.41777100  0.11637200  1
  N  327  1  0.65645800  0.37832000  0.02139300  1
  N  328  1  0.87583200  0.50698900  0.06263500  1
  N  366  1  0.47808800  0.10299800  0.73114100  1
  N  367  1  0.55434400  0.27720200  0.78305000  1
  N  368  1  0.59373500  0.28503700  0.68808100  1
  N  369  1  0.46516100  0.37582200  0.72934600  1
  N  407  1  0.08984000  0.60397900  0.39662500  1
  N  408  1  0.26274900  0.70194900  0.44927200  1
  N  409  1  0.27102400  0.67188800  0.35427800  1
  N  410  1  0.36147900  0.89000200  0.39554400  1
  N  448  1  0.36818800  0.49288200  0.06332800  1
  N  449  1  0.27097500  0.56758100  0.11596300  1
  N  450  1  0.30034800  0.60609100  0.02098300  1
  N  451  1  0.08211700  0.47838700  0.06223200  1
  N  489  1  0.47927500  0.88226300  0.72991700  1
  N  490  1  0.40455000  0.70964200  0.78260700  1
  N  491  1  0.36611200  0.70125900  0.68762500  1
  N  492  1  0.49387900  0.61073900  0.72890100  1
