# generated using pymatgen
data_CuH24C32(N2O)4
_symmetry_space_group_name_H-M   'P 1'
_cell_length_a   15.09647000
_cell_length_b   28.50516000
_cell_length_c   57.69486000
_cell_angle_alpha   90.01954000
_cell_angle_beta   90.10398000
_cell_angle_gamma   89.98851000
_symmetry_Int_Tables_number   1
_chemical_formula_structural   CuH24C32(N2O)4
_chemical_formula_sum   'Cu12 H288 C384 N96 O48'
_cell_volume   24827.63008681
_cell_formula_units_Z   12
loop_
 _symmetry_equiv_pos_site_id
 _symmetry_equiv_pos_as_xyz
  1  'x, y, z'
loop_
 _atom_site_type_symbol
 _atom_site_label
 _atom_site_symmetry_multiplicity
 _atom_site_fract_x
 _atom_site_fract_y
 _atom_site_fract_z
 _atom_site_occupancy
  Cu  Cu0  1  0.11923000  0.48394000  0.59217000  1
  Cu  Cu1  1  0.38113000  0.01427000  0.59168000  1
  Cu  Cu2  1  0.11891000  0.51593000  0.09215000  1
  Cu  Cu3  1  0.38144000  0.98486000  0.09197000  1
  Cu  Cu4  1  0.74775000  0.75012000  0.83984000  1
  Cu  Cu5  1  0.74817000  0.24989000  0.33996000  1
  Cu  Cu6  1  0.88063000  0.48378000  0.90789000  1
  Cu  Cu7  1  0.61833000  0.01481000  0.90820000  1
  Cu  Cu8  1  0.88091000  0.51630000  0.40777000  1
  Cu  Cu9  1  0.61864000  0.98482000  0.40808000  1
  Cu  Cu10  1  0.25197000  0.75027000  0.66013000  1
  Cu  Cu11  1  0.25184000  0.24998000  0.16027000  1
  H  H12  1  0.49051000  0.50894000  0.65694000  1
  H  H13  1  0.70643000  0.61131000  0.74822000  1
  H  H14  1  0.74382000  0.55894000  0.64400000  1
  H  H15  1  0.16158000  0.55320000  0.62582000  1
  H  H16  1  0.29214000  0.58386000  0.64681000  1
  H  H17  1  0.41474000  0.44825000  0.63705000  1
  H  H18  1  0.27827000  0.42278000  0.61701000  1
  H  H19  1  0.78358000  0.65640000  0.82266000  1
  H  H20  1  0.77569000  0.61644000  0.78453000  1
  H  H21  1  0.58410000  0.72069000  0.76336000  1
  H  H22  1  0.59970000  0.75611000  0.80254000  1
  H  H23  1  0.94838000  0.54411000  0.58544000  1
  H  H24  1  0.81330000  0.56004000  0.60824000  1
  H  H25  1  0.94479000  0.49895000  0.66766000  1
  H  H26  1  0.07435000  0.48455000  0.64209000  1
  H  H27  1  0.48668000  0.63268000  0.70290000  1
  H  H28  1  0.76331000  0.59852000  0.71371000  1
  H  H29  1  0.61910000  0.53375000  0.65803000  1
  H  H30  1  0.74466000  0.63869000  0.94096000  1
  H  H31  1  0.49661000  0.52306000  0.02979000  1
  H  H32  1  0.74147000  0.56647000  0.03486000  1
  H  H33  1  0.64281000  0.67018000  0.85199000  1
  H  H34  1  0.59899000  0.63156000  0.88891000  1
  H  H35  1  0.84148000  0.68510000  0.91894000  1
  H  H36  1  0.87416000  0.72236000  0.88116000  1
  H  H37  1  0.30607000  0.47259000  0.08648000  1
  H  H38  1  0.43721000  0.48731000  0.06250000  1
  H  H39  1  0.28147000  0.58657000  0.02298000  1
  H  H40  1  0.15666000  0.56894000  0.04939000  1
  H  H41  1  0.95087000  0.58023000  0.09267000  1
  H  H42  1  0.81497000  0.58632000  0.06885000  1
  H  H43  1  0.94568000  0.50182000  0.01682000  1
  H  H44  1  0.07548000  0.49844000  0.04276000  1
  H  H45  1  0.47933000  0.60160000  0.96364000  1
  H  H46  1  0.61833000  0.54326000  0.02245000  1
  H  H47  1  0.76389000  0.58191000  0.96159000  1
  H  H48  1  0.00732000  0.99052000  0.65721000  1
  H  H49  1  0.78929000  0.88828000  0.74806000  1
  H  H50  1  0.75348000  0.94188000  0.64402000  1
  H  H51  1  0.33608000  0.94616000  0.62623000  1
  H  H52  1  0.20456000  0.91509000  0.64662000  1
  H  H53  1  0.08263000  0.05096000  0.63707000  1
  H  H54  1  0.22009000  0.07663000  0.61765000  1
  H  H55  1  0.71373000  0.84436000  0.82253000  1
  H  H56  1  0.72260000  0.88410000  0.78439000  1
  H  H57  1  0.91579000  0.78017000  0.76397000  1
  H  H58  1  0.89883000  0.74485000  0.80307000  1
  H  H59  1  0.54955000  0.95568000  0.58525000  1
  H  H60  1  0.68419000  0.93988000  0.60841000  1
  H  H61  1  0.55243000  0.00229000  0.66734000  1
  H  H62  1  0.42322000  0.01653000  0.64145000  1
  H  H63  1  0.01052000  0.86671000  0.70274000  1
  H  H64  1  0.73438000  0.90150000  0.71367000  1
  H  H65  1  0.87842000  0.96574000  0.65786000  1
  H  H66  1  0.75433000  0.85952000  0.94119000  1
  H  H67  1  0.00441000  0.97674000  0.02946000  1
  H  H68  1  0.75949000  0.93288000  0.03501000  1
  H  H69  1  0.85283000  0.82960000  0.85194000  1
  H  H70  1  0.89814000  0.86760000  0.88887000  1
  H  H71  1  0.65627000  0.81429000  0.91901000  1
  H  H72  1  0.62205000  0.77756000  0.88116000  1
  H  H73  1  0.19430000  0.02704000  0.08654000  1
  H  H74  1  0.06366000  0.01281000  0.06218000  1
  H  H75  1  0.21952000  0.91355000  0.02278000  1
  H  H76  1  0.34415000  0.93080000  0.04956000  1
  H  H77  1  0.54985000  0.91982000  0.09253000  1
  H  H78  1  0.68654000  0.91416000  0.06908000  1
  H  H79  1  0.55661000  0.99882000  0.01684000  1
  H  H80  1  0.42570000  0.00133000  0.04229000  1
  H  H81  1  0.01964000  0.89718000  0.96354000  1
  H  H82  1  0.88306000  0.95669000  0.02234000  1
  H  H83  1  0.73528000  0.91775000  0.96177000  1
  H  H84  1  0.49056000  0.49091000  0.15698000  1
  H  H85  1  0.70895000  0.38791000  0.24800000  1
  H  H86  1  0.74360000  0.44099000  0.14392000  1
  H  H87  1  0.16189000  0.44704000  0.12556000  1
  H  H88  1  0.29229000  0.41605000  0.14645000  1
  H  H89  1  0.41526000  0.55166000  0.13703000  1
  H  H90  1  0.27889000  0.57737000  0.11704000  1
  H  H91  1  0.78512000  0.34394000  0.32259000  1
  H  H92  1  0.77702000  0.38355000  0.28436000  1
  H  H93  1  0.58601000  0.27889000  0.26340000  1
  H  H94  1  0.60182000  0.24380000  0.30259000  1
  H  H95  1  0.94898000  0.45582000  0.08546000  1
  H  H96  1  0.81358000  0.43991000  0.10813000  1
  H  H97  1  0.94464000  0.50084000  0.16773000  1
  H  H98  1  0.07448000  0.51518000  0.14226000  1
  H  H99  1  0.48649000  0.36708000  0.20296000  1
  H  H100  1  0.76336000  0.40111000  0.21361000  1
  H  H101  1  0.61881000  0.46577000  0.15800000  1
  H  H102  1  0.74667000  0.36090000  0.44110000  1
  H  H103  1  0.49715000  0.47723000  0.52964000  1
  H  H104  1  0.74306000  0.43321000  0.53457000  1
  H  H105  1  0.64500000  0.32990000  0.35210000  1
  H  H106  1  0.60078000  0.36805000  0.38902000  1
  H  H107  1  0.84309000  0.31459000  0.41906000  1
  H  H108  1  0.87618000  0.27756000  0.38124000  1
  H  H109  1  0.30575000  0.52769000  0.58639000  1
  H  H110  1  0.43737000  0.51319000  0.56249000  1
  H  H111  1  0.28338000  0.41259000  0.52324000  1
  H  H112  1  0.15769000  0.43024000  0.54948000  1
  H  H113  1  0.95148000  0.41947000  0.59252000  1
  H  H114  1  0.81536000  0.41411000  0.56870000  1
  H  H115  1  0.94653000  0.49904000  0.51696000  1
  H  H116  1  0.07689000  0.50151000  0.54282000  1
  H  H117  1  0.48136000  0.39689000  0.46422000  1
  H  H118  1  0.62043000  0.45743000  0.52249000  1
  H  H119  1  0.76524000  0.41938000  0.46150000  1
  H  H120  1  0.00963000  0.00876000  0.15703000  1
  H  H121  1  0.78977000  0.11123000  0.24820000  1
  H  H122  1  0.75639000  0.05843000  0.14387000  1
  H  H123  1  0.33776000  0.05362000  0.12587000  1
  H  H124  1  0.20666000  0.08432000  0.14658000  1
  H  H125  1  0.08522000  0.94828000  0.13695000  1
  H  H126  1  0.22215000  0.92300000  0.11717000  1
  H  H127  1  0.71126000  0.15580000  0.32239000  1
  H  H128  1  0.72019000  0.11618000  0.28417000  1
  H  H129  1  0.91604000  0.21906000  0.26421000  1
  H  H130  1  0.89878000  0.25431000  0.30336000  1
  H  H131  1  0.55031000  0.04473000  0.08543000  1
  H  H132  1  0.68580000  0.06043000  0.10823000  1
  H  H133  1  0.55556000  0.99843000  0.16751000  1
  H  H134  1  0.42559000  0.98433000  0.14192000  1
  H  H135  1  0.01427000  0.13134000  0.20354000  1
  H  H136  1  0.73737000  0.09740000  0.21387000  1
  H  H137  1  0.88146000  0.03437000  0.15775000  1
  H  H138  1  0.75477000  0.14042000  0.44127000  1
  H  H139  1  0.00450000  0.02319000  0.52944000  1
  H  H140  1  0.75946000  0.06602000  0.53463000  1
  H  H141  1  0.85236000  0.17024000  0.35194000  1
  H  H142  1  0.89785000  0.13234000  0.38886000  1
  H  H143  1  0.65645000  0.18595000  0.41917000  1
  H  H144  1  0.62200000  0.22265000  0.38132000  1
  H  H145  1  0.19362000  0.97285000  0.58665000  1
  H  H146  1  0.06343000  0.98696000  0.56211000  1
  H  H147  1  0.21954000  0.08660000  0.52306000  1
  H  H148  1  0.34366000  0.06946000  0.55002000  1
  H  H149  1  0.54941000  0.08036000  0.59194000  1
  H  H150  1  0.68630000  0.08539000  0.56855000  1
  H  H151  1  0.55601000  0.00074000  0.51638000  1
  H  H152  1  0.42467000  0.99876000  0.54180000  1
  H  H153  1  0.02052000  0.10287000  0.46361000  1
  H  H154  1  0.88283000  0.04306000  0.52218000  1
  H  H155  1  0.73616000  0.08214000  0.46154000  1
  H  H156  1  0.50944000  0.50859000  0.84296000  1
  H  H157  1  0.28990000  0.61101000  0.75180000  1
  H  H158  1  0.25657000  0.55797000  0.85581000  1
  H  H159  1  0.83750000  0.55280000  0.87472000  1
  H  H160  1  0.70717000  0.58364000  0.85363000  1
  H  H161  1  0.58442000  0.44802000  0.86302000  1
  H  H162  1  0.72058000  0.42242000  0.88321000  1
  H  H163  1  0.21282000  0.65656000  0.67737000  1
  H  H164  1  0.22064000  0.61650000  0.71546000  1
  H  H165  1  0.41600000  0.71930000  0.73626000  1
  H  H166  1  0.40004000  0.75488000  0.69720000  1
  H  H167  1  0.04954000  0.54491000  0.91421000  1
  H  H168  1  0.18517000  0.56013000  0.89164000  1
  H  H169  1  0.05502000  0.49814000  0.83223000  1
  H  H170  1  0.92434000  0.48445000  0.85769000  1
  H  H171  1  0.51318000  0.63232000  0.79693000  1
  H  H172  1  0.23705000  0.59657000  0.78607000  1
  H  H173  1  0.38212000  0.53401000  0.84224000  1
  H  H174  1  0.25324000  0.63931000  0.55895000  1
  H  H175  1  0.50291000  0.52268000  0.47048000  1
  H  H176  1  0.25733000  0.56696000  0.46513000  1
  H  H177  1  0.35462000  0.66982000  0.64800000  1
  H  H178  1  0.39885000  0.63166000  0.61111000  1
  H  H179  1  0.15706000  0.68562000  0.58096000  1
  H  H180  1  0.12386000  0.72254000  0.61881000  1
  H  H181  1  0.69448000  0.47240000  0.41363000  1
  H  H182  1  0.56275000  0.48671000  0.43750000  1
  H  H183  1  0.71631000  0.58744000  0.47681000  1
  H  H184  1  0.84212000  0.56988000  0.45058000  1
  H  H185  1  0.04828000  0.58081000  0.40739000  1
  H  H186  1  0.18446000  0.58627000  0.43118000  1
  H  H187  1  0.05374000  0.50101000  0.48287000  1
  H  H188  1  0.92346000  0.49859000  0.45707000  1
  H  H189  1  0.51835000  0.60318000  0.53584000  1
  H  H190  1  0.37985000  0.54234000  0.47757000  1
  H  H191  1  0.23445000  0.58076000  0.53845000  1
  H  H192  1  0.99090000  0.99106000  0.84305000  1
  H  H193  1  0.20897000  0.88879000  0.75202000  1
  H  H194  1  0.24434000  0.94170000  0.85594000  1
  H  H195  1  0.66241000  0.94643000  0.87408000  1
  H  H196  1  0.79331000  0.91588000  0.85327000  1
  H  H197  1  0.91493000  0.05179000  0.86299000  1
  H  H198  1  0.77821000  0.07702000  0.88287000  1
  H  H199  1  0.28648000  0.84515000  0.67760000  1
  H  H200  1  0.27668000  0.88481000  0.71578000  1
  H  H201  1  0.08420000  0.78030000  0.73593000  1
  H  H202  1  0.10207000  0.74508000  0.69685000  1
  H  H203  1  0.44921000  0.95509000  0.91456000  1
  H  H204  1  0.31404000  0.93953000  0.89158000  1
  H  H205  1  0.44463000  0.00247000  0.83263000  1
  H  H206  1  0.57442000  0.01631000  0.85833000  1
  H  H207  1  0.98739000  0.86685000  0.79709000  1
  H  H208  1  0.26337000  0.90215000  0.78633000  1
  H  H209  1  0.11897000  0.96631000  0.84199000  1
  H  H210  1  0.24526000  0.85943000  0.55878000  1
  H  H211  1  0.99536000  0.97686000  0.47063000  1
  H  H212  1  0.24079000  0.93382000  0.46532000  1
  H  H213  1  0.14627000  0.82898000  0.64793000  1
  H  H214  1  0.10104000  0.86695000  0.61102000  1
  H  H215  1  0.34371000  0.81441000  0.58095000  1
  H  H216  1  0.37807000  0.77770000  0.61882000  1
  H  H217  1  0.80594000  0.02693000  0.41337000  1
  H  H218  1  0.93642000  0.01289000  0.43785000  1
  H  H219  1  0.78055000  0.91343000  0.47708000  1
  H  H220  1  0.65616000  0.93052000  0.45019000  1
  H  H221  1  0.45036000  0.91948000  0.40791000  1
  H  H222  1  0.31383000  0.91422000  0.43143000  1
  H  H223  1  0.44423000  0.99929000  0.48343000  1
  H  H224  1  0.57510000  0.00150000  0.45786000  1
  H  H225  1  0.97968000  0.89725000  0.53638000  1
  H  H226  1  0.11725000  0.95693000  0.47778000  1
  H  H227  1  0.26403000  0.91788000  0.53846000  1
  H  H228  1  0.50985000  0.49117000  0.34306000  1
  H  H229  1  0.29102000  0.38736000  0.25206000  1
  H  H230  1  0.25678000  0.44131000  0.35584000  1
  H  H231  1  0.83880000  0.44672000  0.37426000  1
  H  H232  1  0.70804000  0.41608000  0.35338000  1
  H  H233  1  0.58590000  0.55183000  0.36305000  1
  H  H234  1  0.72253000  0.57726000  0.38299000  1
  H  H235  1  0.21635000  0.34381000  0.17745000  1
  H  H236  1  0.22388000  0.38301000  0.21581000  1
  H  H237  1  0.41623000  0.27872000  0.23650000  1
  H  H238  1  0.40108000  0.24402000  0.19719000  1
  H  H239  1  0.05225000  0.45589000  0.41442000  1
  H  H240  1  0.18733000  0.44015000  0.39156000  1
  H  H241  1  0.05542000  0.50108000  0.33219000  1
  H  H242  1  0.92585000  0.51545000  0.35780000  1
  H  H243  1  0.51423000  0.36703000  0.29724000  1
  H  H244  1  0.23730000  0.40049000  0.28632000  1
  H  H245  1  0.38084000  0.46612000  0.34185000  1
  H  H246  1  0.25387000  0.36067000  0.05898000  1
  H  H247  1  0.50277000  0.47621000  0.97021000  1
  H  H248  1  0.25708000  0.43303000  0.96555000  1
  H  H249  1  0.35608000  0.32971000  0.14799000  1
  H  H250  1  0.40010000  0.36776000  0.11099000  1
  H  H251  1  0.15695000  0.31466000  0.08115000  1
  H  H252  1  0.12396000  0.27786000  0.11903000  1
  H  H253  1  0.69325000  0.52674000  0.91351000  1
  H  H254  1  0.56210000  0.51191000  0.93743000  1
  H  H255  1  0.71833000  0.41346000  0.97731000  1
  H  H256  1  0.84331000  0.43113000  0.95090000  1
  H  H257  1  0.04916000  0.42019000  0.90741000  1
  H  H258  1  0.18495000  0.41442000  0.93123000  1
  H  H259  1  0.05371000  0.49898000  0.98316000  1
  H  H260  1  0.92394000  0.50201000  0.95718000  1
  H  H261  1  0.51945000  0.39713000  0.03611000  1
  H  H262  1  0.38084000  0.45744000  0.97775000  1
  H  H263  1  0.23551000  0.41885000  0.03861000  1
  H  H264  1  0.99094000  0.00900000  0.34300000  1
  H  H265  1  0.20771000  0.11114000  0.25194000  1
  H  H266  1  0.24490000  0.05879000  0.35616000  1
  H  H267  1  0.66204000  0.05310000  0.37388000  1
  H  H268  1  0.79276000  0.08397000  0.35312000  1
  H  H269  1  0.91573000  0.94847000  0.36301000  1
  H  H270  1  0.77894000  0.92284000  0.38276000  1
  H  H271  1  0.28473000  0.15545000  0.17747000  1
  H  H272  1  0.27615000  0.11553000  0.21558000  1
  H  H273  1  0.08702000  0.22101000  0.23669000  1
  H  H274  1  0.10326000  0.25635000  0.19755000  1
  H  H275  1  0.44981000  0.04397000  0.41479000  1
  H  H276  1  0.31466000  0.06005000  0.39195000  1
  H  H277  1  0.44484000  0.99835000  0.33260000  1
  H  H278  1  0.57459000  0.98367000  0.35822000  1
  H  H279  1  0.98657000  0.13264000  0.29700000  1
  H  H280  1  0.26321000  0.09838000  0.28644000  1
  H  H281  1  0.11929000  0.03400000  0.34207000  1
  H  H282  1  0.24521000  0.14053000  0.05886000  1
  H  H283  1  0.99582000  0.02337000  0.97051000  1
  H  H284  1  0.24067000  0.06645000  0.96543000  1
  H  H285  1  0.14558000  0.17116000  0.14803000  1
  H  H286  1  0.10091000  0.13307000  0.11102000  1
  H  H287  1  0.34424000  0.18542000  0.08129000  1
  H  H288  1  0.37774000  0.22224000  0.11916000  1
  H  H289  1  0.80567000  0.97260000  0.91355000  1
  H  H290  1  0.93641000  0.98710000  0.93785000  1
  H  H291  1  0.78055000  0.08653000  0.97712000  1
  H  H292  1  0.65589000  0.06906000  0.95042000  1
  H  H293  1  0.45002000  0.08014000  0.90790000  1
  H  H294  1  0.31368000  0.08577000  0.93149000  1
  H  H295  1  0.44410000  0.00112000  0.98361000  1
  H  H296  1  0.57484000  0.99848000  0.95799000  1
  H  H297  1  0.97968000  0.10274000  0.03649000  1
  H  H298  1  0.11734000  0.04315000  0.97786000  1
  H  H299  1  0.26414000  0.08231000  0.03848000  1
  C  C300  1  0.21847000  0.53057000  0.62892000  1
  C  C301  1  0.29160000  0.54818000  0.64044000  1
  C  C302  1  0.36565000  0.51884000  0.64402000  1
  C  C303  1  0.35991000  0.47278000  0.63508000  1
  C  C304  1  0.28312000  0.45824000  0.62391000  1
  C  C305  1  0.45350000  0.57439000  0.66871000  1
  C  C306  1  0.74061000  0.66974000  0.80900000  1
  C  C307  1  0.73616000  0.64773000  0.78764000  1
  C  C308  1  0.67961000  0.66589000  0.77042000  1
  C  C309  1  0.62988000  0.70608000  0.77589000  1
  C  C310  1  0.63842000  0.72537000  0.79785000  1
  C  C311  1  0.62134000  0.65400000  0.73016000  1
  C  C312  1  0.94599000  0.53476000  0.60371000  1
  C  C313  1  0.87012000  0.54337000  0.61648000  1
  C  C314  1  0.86761000  0.53124000  0.64017000  1
  C  C315  1  0.94299000  0.50916000  0.64956000  1
  C  C316  1  0.01543000  0.50171000  0.63533000  1
  C  C317  1  0.78400000  0.54394000  0.67722000  1
  C  C318  1  0.54067000  0.58012000  0.67988000  1
  C  C319  1  0.54539000  0.61263000  0.69837000  1
  C  C320  1  0.62352000  0.61860000  0.71098000  1
  C  C321  1  0.70029000  0.59346000  0.70487000  1
  C  C322  1  0.69858000  0.56425000  0.68506000  1
  C  C323  1  0.61914000  0.55712000  0.67299000  1
  C  C324  1  0.68479000  0.67309000  0.86729000  1
  C  C325  1  0.66026000  0.65124000  0.88772000  1
  C  C326  1  0.71653000  0.65488000  0.90715000  1
  C  C327  1  0.79545000  0.68089000  0.90453000  1
  C  C328  1  0.81428000  0.70159000  0.88337000  1
  C  C329  1  0.61939000  0.61286000  0.93568000  1
  C  C330  1  0.30246000  0.49787000  0.07239000  1
  C  C331  1  0.37645000  0.50656000  0.05894000  1
  C  C332  1  0.37075000  0.53810000  0.04020000  1
  C  C333  1  0.28943000  0.56153000  0.03696000  1
  C  C334  1  0.21964000  0.55106000  0.05159000  1
  C  C335  1  0.44966000  0.56998000  0.00549000  1
  C  C336  1  0.94771000  0.56340000  0.07576000  1
  C  C337  1  0.87144000  0.56643000  0.06247000  1
  C  C338  1  0.86857000  0.54497000  0.04043000  1
  C  C339  1  0.94392000  0.51951000  0.03344000  1
  C  C340  1  0.01694000  0.51802000  0.04805000  1
  C  C341  1  0.78739000  0.54874000  0.00262000  1
  C  C342  1  0.62168000  0.59570000  0.95992000  1
  C  C343  1  0.54093000  0.59090000  0.97183000  1
  C  C344  1  0.53885000  0.57241000  0.99447000  1
  C  C345  1  0.61870000  0.55843000  0.00512000  1
  C  C346  1  0.70008000  0.56249000  0.99312000  1
  C  C347  1  0.70050000  0.58126000  0.97055000  1
  C  C348  1  0.27901000  0.96871000  0.62925000  1
  C  C349  1  0.20540000  0.95088000  0.64042000  1
  C  C350  1  0.13147000  0.98027000  0.64396000  1
  C  C351  1  0.13744000  0.02642000  0.63519000  1
  C  C352  1  0.21477000  0.04107000  0.62437000  1
  C  C353  1  0.04285000  0.92424000  0.66813000  1
  C  C354  1  0.75700000  0.83087000  0.80902000  1
  C  C355  1  0.76193000  0.85279000  0.78766000  1
  C  C356  1  0.81880000  0.83457000  0.77058000  1
  C  C357  1  0.86906000  0.79463000  0.77627000  1
  C  C358  1  0.85986000  0.77542000  0.79823000  1
  C  C359  1  0.87766000  0.84678000  0.73047000  1
  C  C360  1  0.55194000  0.96544000  0.60348000  1
  C  C361  1  0.62745000  0.95692000  0.61645000  1
  C  C362  1  0.62988000  0.96946000  0.64011000  1
  C  C363  1  0.55451000  0.99183000  0.64928000  1
  C  C364  1  0.48229000  0.99925000  0.63490000  1
  C  C365  1  0.71293000  0.95605000  0.67726000  1
  C  C366  1  0.95604000  0.91891000  0.67957000  1
  C  C367  1  0.95180000  0.88677000  0.69816000  1
  C  C368  1  0.87401000  0.88125000  0.71096000  1
  C  C369  1  0.79725000  0.90635000  0.70479000  1
  C  C370  1  0.79855000  0.93563000  0.68503000  1
  C  C371  1  0.87787000  0.94241000  0.67283000  1
  C  C372  1  0.81129000  0.82662000  0.86726000  1
  C  C373  1  0.83668000  0.84809000  0.88775000  1
  C  C374  1  0.78124000  0.84414000  0.90726000  1
  C  C375  1  0.70194000  0.81848000  0.90458000  1
  C  C376  1  0.68218000  0.79813000  0.88337000  1
  C  C377  1  0.87943000  0.88541000  0.93599000  1
  C  C378  1  0.19803000  0.00187000  0.07240000  1
  C  C379  1  0.12433000  0.99340000  0.05874000  1
  C  C380  1  0.13026000  0.96185000  0.03999000  1
  C  C381  1  0.21161000  0.93844000  0.03684000  1
  C  C382  1  0.28115000  0.94870000  0.05165000  1
  C  C383  1  0.05084000  0.92943000  0.00535000  1
  C  C384  1  0.55338000  0.93673000  0.07564000  1
  C  C385  1  0.63008000  0.93399000  0.06257000  1
  C  C386  1  0.63323000  0.95558000  0.04057000  1
  C  C387  1  0.55792000  0.98103000  0.03345000  1
  C  C388  1  0.48436000  0.98203000  0.04782000  1
  C  C389  1  0.71453000  0.95215000  0.00288000  1
  C  C390  1  0.87724000  0.90326000  0.96009000  1
  C  C391  1  0.95850000  0.90817000  0.97182000  1
  C  C392  1  0.96161000  0.92700000  0.99438000  1
  C  C393  1  0.88233000  0.94123000  0.00508000  1
  C  C394  1  0.80068000  0.93739000  0.99321000  1
  C  C395  1  0.79887000  0.91823000  0.97071000  1
  C  C396  1  0.21881000  0.46959000  0.12875000  1
  C  C397  1  0.29190000  0.45183000  0.14023000  1
  C  C398  1  0.36595000  0.48110000  0.14395000  1
  C  C399  1  0.36031000  0.52721000  0.13505000  1
  C  C400  1  0.28354000  0.54187000  0.12389000  1
  C  C401  1  0.45335000  0.42540000  0.16871000  1
  C  C402  1  0.74230000  0.33033000  0.30896000  1
  C  C403  1  0.73779000  0.35219000  0.28755000  1
  C  C404  1  0.68131000  0.33386000  0.27035000  1
  C  C405  1  0.63188000  0.29363000  0.27586000  1
  C  C406  1  0.64040000  0.27453000  0.29784000  1
  C  C407  1  0.62060000  0.34635000  0.23031000  1
  C  C408  1  0.94615000  0.46519000  0.10374000  1
  C  C409  1  0.87018000  0.45658000  0.11648000  1
  C  C410  1  0.86751000  0.46863000  0.14019000  1
  C  C411  1  0.94291000  0.49068000  0.14962000  1
  C  C412  1  0.01549000  0.49815000  0.13541000  1
  C  C413  1  0.78391000  0.45578000  0.17720000  1
  C  C414  1  0.54059000  0.41942000  0.17984000  1
  C  C415  1  0.54525000  0.38704000  0.19835000  1
  C  C416  1  0.62345000  0.38118000  0.21097000  1
  C  C417  1  0.70035000  0.40609000  0.20477000  1
  C  C418  1  0.69861000  0.43527000  0.18500000  1
  C  C419  1  0.61908000  0.44243000  0.17296000  1
  C  C420  1  0.68690000  0.32686000  0.36740000  1
  C  C421  1  0.66216000  0.34850000  0.38789000  1
  C  C422  1  0.71812000  0.34477000  0.40736000  1
  C  C423  1  0.79712000  0.31884000  0.40465000  1
  C  C424  1  0.81621000  0.29827000  0.38346000  1
  C  C425  1  0.62036000  0.38592000  0.43617000  1
  C  C426  1  0.30268000  0.50215000  0.57238000  1
  C  C427  1  0.37697000  0.49352000  0.55900000  1
  C  C428  1  0.37186000  0.46152000  0.54042000  1
  C  C429  1  0.29075000  0.43785000  0.53716000  1
  C  C430  1  0.22057000  0.44832000  0.55168000  1
  C  C431  1  0.45214000  0.42814000  0.50620000  1
  C  C432  1  0.94842000  0.43653000  0.57567000  1
  C  C433  1  0.87213000  0.43384000  0.56238000  1
  C  C434  1  0.86958000  0.45548000  0.54040000  1
  C  C435  1  0.94493000  0.48106000  0.53351000  1
  C  C436  1  0.01806000  0.48212000  0.54810000  1
  C  C437  1  0.78846000  0.45245000  0.50259000  1
  C  C438  1  0.62335000  0.40394000  0.46023000  1
  C  C439  1  0.54274000  0.40837000  0.47226000  1
  C  C440  1  0.54072000  0.42716000  0.49482000  1
  C  C441  1  0.62043000  0.44191000  0.50526000  1
  C  C442  1  0.70153000  0.43826000  0.49311000  1
  C  C443  1  0.70207000  0.41936000  0.47060000  1
  C  C444  1  0.28093000  0.03097000  0.12896000  1
  C  C445  1  0.20756000  0.04855000  0.14031000  1
  C  C446  1  0.13394000  0.01899000  0.14392000  1
  C  C447  1  0.13988000  0.97291000  0.13503000  1
  C  C448  1  0.21692000  0.95850000  0.12400000  1
  C  C449  1  0.04674000  0.07436000  0.16871000  1
  C  C450  1  0.75531000  0.16905000  0.30897000  1
  C  C451  1  0.76030000  0.14717000  0.28757000  1
  C  C452  1  0.81844000  0.16495000  0.27065000  1
  C  C453  1  0.86892000  0.20472000  0.27642000  1
  C  C454  1  0.85960000  0.22391000  0.29839000  1
  C  C455  1  0.88015000  0.15185000  0.23078000  1
  C  C456  1  0.55336000  0.03497000  0.10364000  1
  C  C457  1  0.62936000  0.04346000  0.11644000  1
  C  C458  1  0.63231000  0.03109000  0.14011000  1
  C  C459  1  0.55715000  0.00878000  0.14942000  1
  C  C460  1  0.48450000  0.00143000  0.13517000  1
  C  C461  1  0.71609000  0.04392000  0.17714000  1
  C  C462  1  0.95971000  0.08001000  0.17993000  1
  C  C463  1  0.95543000  0.11158000  0.19875000  1
  C  C464  1  0.87732000  0.11707000  0.21141000  1
  C  C465  1  0.80027000  0.09254000  0.20499000  1
  C  C466  1  0.80172000  0.06396000  0.18500000  1
  C  C467  1  0.88116000  0.05723000  0.17288000  1
  C  C468  1  0.81096000  0.17333000  0.36729000  1
  C  C469  1  0.83643000  0.15190000  0.38778000  1
  C  C470  1  0.78120000  0.15592000  0.40733000  1
  C  C471  1  0.70197000  0.18168000  0.40470000  1
  C  C472  1  0.68212000  0.20203000  0.38349000  1
  C  C473  1  0.88005000  0.11459000  0.43585000  1
  C  C474  1  0.19750000  0.99808000  0.57254000  1
  C  C475  1  0.12403000  0.00650000  0.55879000  1
  C  C476  1  0.13007000  0.03813000  0.54009000  1
  C  C477  1  0.21136000  0.06166000  0.53707000  1
  C  C478  1  0.28068000  0.05149000  0.55196000  1
  C  C479  1  0.05105000  0.07057000  0.50538000  1
  C  C480  1  0.55282000  0.06329000  0.57508000  1
  C  C481  1  0.62959000  0.06578000  0.56202000  1
  C  C482  1  0.63259000  0.04418000  0.54003000  1
  C  C483  1  0.55719000  0.01879000  0.53292000  1
  C  C484  1  0.48354000  0.01798000  0.54729000  1
  C  C485  1  0.71353000  0.04867000  0.50232000  1
  C  C486  1  0.87821000  0.09673000  0.45994000  1
  C  C487  1  0.95923000  0.09182000  0.47178000  1
  C  C488  1  0.96184000  0.07281000  0.49431000  1
  C  C489  1  0.88226000  0.05852000  0.50492000  1
  C  C490  1  0.80071000  0.06269000  0.49294000  1
  C  C491  1  0.79976000  0.08176000  0.47046000  1
  C  C492  1  0.78059000  0.53026000  0.87148000  1
  C  C493  1  0.70762000  0.54790000  0.85991000  1
  C  C494  1  0.63376000  0.51855000  0.85613000  1
  C  C495  1  0.63929000  0.47249000  0.86508000  1
  C  C496  1  0.71590000  0.45790000  0.87633000  1
  C  C497  1  0.54672000  0.57418000  0.83124000  1
  C  C498  1  0.25646000  0.66965000  0.69096000  1
  C  C499  1  0.26087000  0.64753000  0.71230000  1
  C  C500  1  0.31829000  0.66520000  0.72946000  1
  C  C501  1  0.36919000  0.70500000  0.72391000  1
  C  C502  1  0.36055000  0.72445000  0.70199000  1
  C  C503  1  0.37809000  0.65259000  0.76954000  1
  C  C504  1  0.05248000  0.53497000  0.89602000  1
  C  C505  1  0.12874000  0.54325000  0.88334000  1
  C  C506  1  0.13190000  0.53066000  0.85971000  1
  C  C507  1  0.05645000  0.50854000  0.85031000  1
  C  C508  1  0.98353000  0.50142000  0.86446000  1
  C  C509  1  0.21610000  0.54263000  0.82274000  1
  C  C510  1  0.45945000  0.58006000  0.82012000  1
  C  C511  1  0.45448000  0.61231000  0.80156000  1
  C  C512  1  0.37619000  0.61770000  0.78890000  1
  C  C513  1  0.29984000  0.59225000  0.79510000  1
  C  C514  1  0.30156000  0.56328000  0.81495000  1
  C  C515  1  0.38119000  0.55683000  0.82709000  1
  C  C516  1  0.31281000  0.67294000  0.63268000  1
  C  C517  1  0.33758000  0.65132000  0.61219000  1
  C  C518  1  0.28178000  0.65523000  0.59270000  1
  C  C519  1  0.20289000  0.68126000  0.59540000  1
  C  C520  1  0.18375000  0.70176000  0.61660000  1
  C  C521  1  0.37944000  0.61410000  0.56385000  1
  C  C522  1  0.69735000  0.49791000  0.42765000  1
  C  C523  1  0.62301000  0.50646000  0.44104000  1
  C  C524  1  0.62807000  0.53843000  0.45965000  1
  C  C525  1  0.70910000  0.56218000  0.46288000  1
  C  C526  1  0.77931000  0.55176000  0.44836000  1
  C  C527  1  0.54792000  0.57173000  0.49394000  1
  C  C528  1  0.05150000  0.56370000  0.42422000  1
  C  C529  1  0.12785000  0.56641000  0.43748000  1
  C  C530  1  0.13079000  0.54460000  0.45942000  1
  C  C531  1  0.05546000  0.51904000  0.46633000  1
  C  C532  1  0.98222000  0.51800000  0.45179000  1
  C  C533  1  0.21176000  0.54764000  0.49719000  1
  C  C534  1  0.37632000  0.59609000  0.53977000  1
  C  C535  1  0.45701000  0.59165000  0.52779000  1
  C  C536  1  0.45926000  0.57274000  0.50526000  1
  C  C537  1  0.37967000  0.55798000  0.49478000  1
  C  C538  1  0.29842000  0.56181000  0.50683000  1
  C  C539  1  0.29763000  0.58071000  0.52935000  1
  C  C540  1  0.71919000  0.96914000  0.87100000  1
  C  C541  1  0.79250000  0.95160000  0.85959000  1
  C  C542  1  0.86630000  0.98106000  0.85599000  1
  C  C543  1  0.86033000  0.02713000  0.86492000  1
  C  C544  1  0.78334000  0.04154000  0.87600000  1
  C  C545  1  0.95385000  0.92544000  0.83130000  1
  C  C546  1  0.24304000  0.83152000  0.69105000  1
  C  C547  1  0.23760000  0.85344000  0.71242000  1
  C  C548  1  0.18059000  0.83507000  0.72943000  1
  C  C549  1  0.13088000  0.79497000  0.72369000  1
  C  C550  1  0.14058000  0.77579000  0.70174000  1
  C  C551  1  0.12073000  0.84710000  0.76950000  1
  C  C552  1  0.44645000  0.96509000  0.89637000  1
  C  C553  1  0.37057000  0.95670000  0.88350000  1
  C  C554  1  0.36775000  0.96947000  0.85987000  1
  C  C555  1  0.44294000  0.99188000  0.85067000  1
  C  C556  1  0.51548000  0.99908000  0.86497000  1
  C  C557  1  0.28374000  0.95707000  0.82275000  1
  C  C558  1  0.04099000  0.91953000  0.82021000  1
  C  C559  1  0.04583000  0.88713000  0.80170000  1
  C  C560  1  0.12382000  0.88161000  0.78902000  1
  C  C561  1  0.20046000  0.90685000  0.79520000  1
  C  C562  1  0.19863000  0.93606000  0.81497000  1
  C  C563  1  0.11926000  0.94287000  0.82706000  1
  C  C564  1  0.18802000  0.82614000  0.63263000  1
  C  C565  1  0.16265000  0.84757000  0.61214000  1
  C  C566  1  0.21835000  0.84388000  0.59267000  1
  C  C567  1  0.29789000  0.81841000  0.59538000  1
  C  C568  1  0.31767000  0.79807000  0.61658000  1
  C  C569  1  0.11995000  0.88540000  0.56407000  1
  C  C570  1  0.80220000  0.00176000  0.42751000  1
  C  C571  1  0.87579000  0.99340000  0.44123000  1
  C  C572  1  0.86980000  0.96184000  0.45996000  1
  C  C573  1  0.78856000  0.93833000  0.46305000  1
  C  C574  1  0.71914000  0.94846000  0.44818000  1
  C  C575  1  0.94909000  0.92925000  0.49459000  1
  C  C576  1  0.44703000  0.93657000  0.42477000  1
  C  C577  1  0.37046000  0.93397000  0.43790000  1
  C  C578  1  0.36754000  0.95568000  0.45987000  1
  C  C579  1  0.44290000  0.98118000  0.46690000  1
  C  C580  1  0.51634000  0.98210000  0.45246000  1
  C  C581  1  0.28668000  0.95129000  0.49763000  1
  C  C582  1  0.12206000  0.90332000  0.54002000  1
  C  C583  1  0.04098000  0.90826000  0.52819000  1
  C  C584  1  0.03837000  0.92721000  0.50567000  1
  C  C585  1  0.11792000  0.94148000  0.49504000  1
  C  C586  1  0.19953000  0.93735000  0.50702000  1
  C  C587  1  0.20049000  0.91829000  0.52951000  1
  C  C588  1  0.78190000  0.46938000  0.37120000  1
  C  C589  1  0.70867000  0.45180000  0.35971000  1
  C  C590  1  0.63461000  0.48113000  0.35607000  1
  C  C591  1  0.64059000  0.52722000  0.36500000  1
  C  C592  1  0.71745000  0.54176000  0.37615000  1
  C  C593  1  0.54662000  0.42552000  0.33137000  1
  C  C594  1  0.25924000  0.33020000  0.19106000  1
  C  C595  1  0.26345000  0.35179000  0.21251000  1
  C  C596  1  0.32012000  0.33347000  0.22965000  1
  C  C597  1  0.37020000  0.29341000  0.22406000  1
  C  C598  1  0.36190000  0.27454000  0.20200000  1
  C  C599  1  0.38047000  0.34636000  0.26959000  1
  C  C600  1  0.05458000  0.46531000  0.39615000  1
  C  C601  1  0.13044000  0.45680000  0.38334000  1
  C  C602  1  0.13279000  0.46885000  0.35965000  1
  C  C603  1  0.05728000  0.49090000  0.35029000  1
  C  C604  1  0.98487000  0.49832000  0.36456000  1
  C  C605  1  0.21618000  0.45572000  0.32262000  1
  C  C606  1  0.45954000  0.41956000  0.32019000  1
  C  C607  1  0.45530000  0.38700000  0.30172000  1
  C  C608  1  0.37728000  0.38095000  0.28904000  1
  C  C609  1  0.30020000  0.40581000  0.29516000  1
  C  C610  1  0.30159000  0.43518000  0.31487000  1
  C  C611  1  0.38093000  0.44256000  0.32696000  1
  C  C612  1  0.31399000  0.32674000  0.13271000  1
  C  C613  1  0.33864000  0.34827000  0.11219000  1
  C  C614  1  0.28238000  0.34453000  0.09277000  1
  C  C615  1  0.20315000  0.31883000  0.09553000  1
  C  C616  1  0.18414000  0.29839000  0.11675000  1
  C  C617  1  0.37987000  0.38582000  0.06396000  1
  C  C618  1  0.69700000  0.50164000  0.92768000  1
  C  C619  1  0.62296000  0.49283000  0.94110000  1
  C  C620  1  0.62878000  0.46143000  0.95990000  1
  C  C621  1  0.71036000  0.43835000  0.96327000  1
  C  C622  1  0.78020000  0.44887000  0.94866000  1
  C  C623  1  0.54892000  0.42895000  0.99439000  1
  C  C624  1  0.05216000  0.43706000  0.92431000  1
  C  C625  1  0.12832000  0.43416000  0.93763000  1
  C  C626  1  0.13086000  0.45556000  0.95969000  1
  C  C627  1  0.05552000  0.48115000  0.96657000  1
  C  C628  1  0.98260000  0.48249000  0.95193000  1
  C  C629  1  0.21191000  0.45229000  0.99760000  1
  C  C630  1  0.37712000  0.40374000  0.03990000  1
  C  C631  1  0.45797000  0.40841000  0.02804000  1
  C  C632  1  0.46000000  0.42738000  0.00553000  1
  C  C633  1  0.38038000  0.44191000  0.99498000  1
  C  C634  1  0.29905000  0.43813000  0.00701000  1
  C  C635  1  0.29855000  0.41901000  0.02948000  1
  C  C636  1  0.71897000  0.03048000  0.37083000  1
  C  C637  1  0.79217000  0.04827000  0.35947000  1
  C  C638  1  0.86626000  0.01898000  0.35593000  1
  C  C639  1  0.86077000  0.97294000  0.36487000  1
  C  C640  1  0.78384000  0.95829000  0.37587000  1
  C  C641  1  0.95376000  0.07448000  0.33127000  1
  C  C642  1  0.24217000  0.16913000  0.19110000  1
  C  C643  1  0.23738000  0.14712000  0.21246000  1
  C  C644  1  0.18128000  0.16560000  0.22966000  1
  C  C645  1  0.13249000  0.20613000  0.22420000  1
  C  C646  1  0.14134000  0.22536000  0.20224000  1
  C  C647  1  0.12159000  0.15348000  0.26983000  1
  C  C648  1  0.44700000  0.03448000  0.39653000  1
  C  C649  1  0.37114000  0.04317000  0.38370000  1
  C  C650  1  0.36830000  0.03095000  0.36000000  1
  C  C651  1  0.44341000  0.00862000  0.35069000  1
  C  C652  1  0.51590000  0.00101000  0.36496000  1
  C  C653  1  0.28414000  0.04406000  0.32290000  1
  C  C654  1  0.04085000  0.08035000  0.32015000  1
  C  C655  1  0.04534000  0.11263000  0.30160000  1
  C  C656  1  0.12352000  0.11832000  0.28902000  1
  C  C657  1  0.20028000  0.09347000  0.29527000  1
  C  C658  1  0.19867000  0.06448000  0.31512000  1
  C  C659  1  0.11925000  0.05739000  0.32713000  1
  C  C660  1  0.18758000  0.17384000  0.13278000  1
  C  C661  1  0.16255000  0.15237000  0.11227000  1
  C  C662  1  0.21854000  0.15603000  0.09284000  1
  C  C663  1  0.29807000  0.18145000  0.09563000  1
  C  C664  1  0.31747000  0.20182000  0.11686000  1
  C  C665  1  0.12008000  0.11458000  0.06429000  1
  C  C666  1  0.80196000  0.99786000  0.92766000  1
  C  C667  1  0.87571000  0.00647000  0.94128000  1
  C  C668  1  0.86986000  0.03811000  0.96000000  1
  C  C669  1  0.78850000  0.06152000  0.96312000  1
  C  C670  1  0.71889000  0.05115000  0.94834000  1
  C  C671  1  0.94917000  0.07059000  0.99467000  1
  C  C672  1  0.44670000  0.06314000  0.92477000  1
  C  C673  1  0.37027000  0.06596000  0.93794000  1
  C  C674  1  0.36744000  0.04446000  0.95995000  1
  C  C675  1  0.44276000  0.01895000  0.96701000  1
  C  C676  1  0.51606000  0.01778000  0.95253000  1
  C  C677  1  0.28671000  0.04887000  0.99770000  1
  C  C678  1  0.12199000  0.09669000  0.04018000  1
  C  C679  1  0.04099000  0.09172000  0.02831000  1
  C  C680  1  0.03843000  0.07286000  0.00574000  1
  C  C681  1  0.11799000  0.05865000  0.99511000  1
  C  C682  1  0.19954000  0.06278000  0.00710000  1
  C  C683  1  0.20046000  0.08184000  0.02960000  1
  N  N684  1  0.21099000  0.48599000  0.62071000  1
  N  N685  1  0.69296000  0.70836000  0.81449000  1
  N  N686  1  0.01991000  0.51449000  0.61267000  1
  N  N687  1  0.44196000  0.53342000  0.65545000  1
  N  N688  1  0.67393000  0.64250000  0.74921000  1
  N  N689  1  0.79206000  0.54176000  0.65294000  1
  N  N690  1  0.76043000  0.69834000  0.86455000  1
  N  N691  1  0.22299000  0.51906000  0.06901000  1
  N  N692  1  0.02154000  0.54009000  0.06894000  1
  N  N693  1  0.69798000  0.63438000  0.92842000  1
  N  N694  1  0.44484000  0.54474000  0.02627000  1
  N  N695  1  0.79274000  0.54991000  0.02694000  1
  N  N696  1  0.28684000  0.01340000  0.62136000  1
  N  N697  1  0.80441000  0.79223000  0.81466000  1
  N  N698  1  0.47806000  0.98612000  0.61225000  1
  N  N699  1  0.05507000  0.96571000  0.65533000  1
  N  N700  1  0.82377000  0.85773000  0.74930000  1
  N  N701  1  0.70531000  0.95896000  0.65298000  1
  N  N702  1  0.73551000  0.80147000  0.86451000  1
  N  N703  1  0.27743000  0.98051000  0.06917000  1
  N  N704  1  0.47941000  0.95976000  0.06864000  1
  N  N705  1  0.80064000  0.86410000  0.92864000  1
  N  N706  1  0.05637000  0.95526000  0.02594000  1
  N  N707  1  0.70921000  0.95054000  0.02719000  1
  N  N708  1  0.21129000  0.51423000  0.12066000  1
  N  N709  1  0.69480000  0.29169000  0.31448000  1
  N  N710  1  0.02009000  0.48536000  0.11275000  1
  N  N711  1  0.44206000  0.46641000  0.15545000  1
  N  N712  1  0.67531000  0.35708000  0.24910000  1
  N  N713  1  0.79183000  0.45809000  0.15293000  1
  N  N714  1  0.76251000  0.30160000  0.36461000  1
  N  N715  1  0.22354000  0.48056000  0.56901000  1
  N  N716  1  0.02250000  0.45963000  0.56888000  1
  N  N717  1  0.69960000  0.36524000  0.42867000  1
  N  N718  1  0.44603000  0.45489000  0.52648000  1
  N  N719  1  0.79382000  0.45066000  0.52688000  1
  N  N720  1  0.28883000  0.98632000  0.12092000  1
  N  N721  1  0.80369000  0.20728000  0.31474000  1
  N  N722  1  0.47958000  0.01453000  0.11255000  1
  N  N723  1  0.05784000  0.03340000  0.15543000  1
  N  N724  1  0.82478000  0.14157000  0.24943000  1
  N  N725  1  0.70802000  0.04156000  0.15288000  1
  N  N726  1  0.73525000  0.19859000  0.36459000  1
  N  N727  1  0.27685000  0.01959000  0.56943000  1
  N  N728  1  0.47871000  0.04044000  0.56807000  1
  N  N729  1  0.80099000  0.13595000  0.42867000  1
  N  N730  1  0.05641000  0.04472000  0.52596000  1
  N  N731  1  0.70869000  0.04895000  0.52666000  1
  N  N732  1  0.78803000  0.48561000  0.87958000  1
  N  N733  1  0.30496000  0.70798000  0.68545000  1
  N  N734  1  0.97867000  0.51459000  0.88706000  1
  N  N735  1  0.55790000  0.53313000  0.84450000  1
  N  N736  1  0.32378000  0.64176000  0.75070000  1
  N  N737  1  0.20791000  0.54079000  0.84699000  1
  N  N738  1  0.23731000  0.69829000  0.63546000  1
  N  N739  1  0.77645000  0.51951000  0.43103000  1
  N  N740  1  0.97758000  0.54044000  0.43100000  1
  N  N741  1  0.30029000  0.63483000  0.57137000  1
  N  N742  1  0.55403000  0.54502000  0.47364000  1
  N  N743  1  0.20673000  0.54945000  0.47287000  1
  N  N744  1  0.71139000  0.01374000  0.87910000  1
  N  N745  1  0.19600000  0.79277000  0.68536000  1
  N  N746  1  0.52022000  0.98575000  0.88757000  1
  N  N747  1  0.94244000  0.96652000  0.84452000  1
  N  N748  1  0.17480000  0.85818000  0.75072000  1
  N  N749  1  0.29222000  0.95904000  0.84701000  1
  N  N750  1  0.26412000  0.80126000  0.63541000  1
  N  N751  1  0.72288000  0.98028000  0.43068000  1
  N  N752  1  0.52107000  0.95962000  0.43169000  1
  N  N753  1  0.19883000  0.86393000  0.57133000  1
  N  N754  1  0.94348000  0.95531000  0.47410000  1
  N  N755  1  0.29159000  0.95087000  0.47328000  1
  N  N756  1  0.78953000  0.51399000  0.37939000  1
  N  N757  1  0.30720000  0.29172000  0.18544000  1
  N  N758  1  0.98052000  0.48551000  0.38722000  1
  N  N759  1  0.55828000  0.46660000  0.34458000  1
  N  N760  1  0.32531000  0.35674000  0.25091000  1
  N  N761  1  0.20835000  0.45827000  0.34687000  1
  N  N762  1  0.23817000  0.30167000  0.13553000  1
  N  N763  1  0.77664000  0.48068000  0.93116000  1
  N  N764  1  0.97812000  0.46025000  0.93108000  1
  N  N765  1  0.30099000  0.36480000  0.07142000  1
  N  N766  1  0.55468000  0.45471000  0.97382000  1
  N  N767  1  0.20630000  0.45040000  0.97329000  1
  N  N768  1  0.71153000  0.98586000  0.37890000  1
  N  N769  1  0.19539000  0.20807000  0.18561000  1
  N  N770  1  0.52069000  0.01389000  0.38762000  1
  N  N771  1  0.94252000  0.03354000  0.34453000  1
  N  N772  1  0.17491000  0.14226000  0.25089000  1
  N  N773  1  0.29290000  0.04172000  0.34715000  1
  N  N774  1  0.26365000  0.19870000  0.13563000  1
  N  N775  1  0.72252000  0.01920000  0.93088000  1
  N  N776  1  0.52070000  0.04004000  0.93170000  1
  N  N777  1  0.19903000  0.13607000  0.07147000  1
  N  N778  1  0.94376000  0.04477000  0.97406000  1
  N  N779  1  0.29155000  0.04941000  0.97336000  1
  O  O780  1  0.39304000  0.60362000  0.67124000  1
  O  O781  1  0.57610000  0.68993000  0.72912000  1
  O  O782  1  0.84383000  0.53248000  0.69071000  1
  O  O783  1  0.55362000  0.60858000  0.92294000  1
  O  O784  1  0.38432000  0.58969000  0.99682000  1
  O  O785  1  0.85249000  0.53918000  0.99040000  1
  O  O786  1  0.10223000  0.89425000  0.67010000  1
  O  O787  1  0.92612000  0.81203000  0.73001000  1
  O  O788  1  0.65257000  0.96726000  0.69061000  1
  O  O789  1  0.94588000  0.88897000  0.92351000  1
  O  O790  1  0.11582000  0.90944000  0.99676000  1
  O  O791  1  0.65009000  0.96303000  0.99064000  1
  O  O792  1  0.39269000  0.39629000  0.17120000  1
  O  O793  1  0.57253000  0.31140000  0.22960000  1
  O  O794  1  0.84354000  0.46754000  0.19070000  1
  O  O795  1  0.55356000  0.38883000  0.42370000  1
  O  O796  1  0.38841000  0.40599000  0.49818000  1
  O  O797  1  0.85297000  0.46295000  0.49036000  1
  O  O798  1  0.10712000  0.10365000  0.17117000  1
  O  O799  1  0.92869000  0.18659000  0.23024000  1
  O  O800  1  0.65628000  0.03248000  0.19060000  1
  O  O801  1  0.94602000  0.11099000  0.42320000  1
  O  O802  1  0.11598000  0.09078000  0.49689000  1
  O  O803  1  0.64846000  0.03941000  0.48992000  1
  O  O804  1  0.60731000  0.60334000  0.82879000  1
  O  O805  1  0.42513000  0.68791000  0.77025000  1
  O  O806  1  0.15651000  0.53047000  0.80928000  1
  O  O807  1  0.44632000  0.61116000  0.57629000  1
  O  O808  1  0.61159000  0.59380000  0.50206000  1
  O  O809  1  0.14708000  0.53698000  0.50932000  1
  O  O810  1  0.89325000  0.89627000  0.82877000  1
  O  O811  1  0.07258000  0.81219000  0.76990000  1
  O  O812  1  0.34287000  0.96955000  0.80931000  1
  O  O813  1  0.05370000  0.88906000  0.57660000  1
  O  O814  1  0.88437000  0.90867000  0.50298000  1
  O  O815  1  0.35179000  0.96059000  0.51000000  1
  O  O816  1  0.60703000  0.39626000  0.32883000  1
  O  O817  1  0.42936000  0.31176000  0.26999000  1
  O  O818  1  0.15632000  0.46736000  0.30919000  1
  O  O819  1  0.44672000  0.38907000  0.07637000  1
  O  O820  1  0.61317000  0.40803000  0.00287000  1
  O  O821  1  0.14752000  0.46255000  0.00997000  1
  O  O822  1  0.89323000  0.10365000  0.32872000  1
  O  O823  1  0.07562000  0.18916000  0.27093000  1
  O  O824  1  0.34358000  0.03254000  0.30936000  1
  O  O825  1  0.05420000  0.11101000  0.07697000  1
  O  O826  1  0.88422000  0.09073000  0.00318000  1
  O  O827  1  0.35177000  0.03942000  0.01008000  1
