# generated using pymatgen
data_H36C45N4
_symmetry_space_group_name_H-M   'P 1'
_cell_length_a   54.57430000
_cell_length_b   64.02970000
_cell_length_c   64.03050000
_cell_angle_alpha   90.00000000
_cell_angle_beta   90.00030000
_cell_angle_gamma   90.00000000
_symmetry_Int_Tables_number   1
_chemical_formula_structural   H36C45N4
_chemical_formula_sum   'H2304 C2880 N256'
_cell_volume   223746.64609610
_cell_formula_units_Z   64
loop_
 _symmetry_equiv_pos_site_id
 _symmetry_equiv_pos_as_xyz
  1  'x, y, z'
loop_
 _atom_site_type_symbol
 _atom_site_label
 _atom_site_symmetry_multiplicity
 _atom_site_fract_x
 _atom_site_fract_y
 _atom_site_fract_z
 _atom_site_occupancy
  H  26  1  0.95103400  0.19375700  0.40482400  1
  H  27  1  0.91846000  0.18635700  0.38139800  1
  H  28  1  0.92606100  0.14637600  0.44521600  1
  H  29  1  0.89346100  0.13914800  0.42182300  1
  H  30  1  0.84673600  0.15415200  0.41275400  1
  H  31  1  0.81330800  0.17708200  0.41901000  1
  H  32  1  0.83973800  0.21783500  0.37250300  1
  H  33  1  0.87301900  0.19492200  0.36636400  1
  H  34  1  0.85251500  0.15657100  0.34794000  1
  H  35  1  0.86064700  0.15572800  0.31171200  1
  H  36  1  0.93640400  0.15242900  0.32431100  1
  H  37  1  0.92813500  0.15289900  0.36062200  1
  H  38  1  0.91374900  0.12106900  0.38367500  1
  H  39  1  0.83810900  0.13342800  0.37941500  1
  H  40  1  0.83005200  0.09710800  0.37875200  1
  H  41  1  0.90583100  0.08480000  0.38262000  1
  H  44  1  0.78895200  0.20750200  0.40935200  1
  H  45  1  0.97120500  0.18842200  0.43828600  1
  H  47  1  0.92115500  0.14795600  0.28834800  1
  H  49  1  0.84553000  0.06125400  0.37424000  1
  H  75  1  0.45112300  0.32284300  0.56453000  1
  H  76  1  0.41855100  0.33023800  0.58795600  1
  H  77  1  0.42597700  0.37006000  0.52402400  1
  H  78  1  0.39337900  0.37728600  0.54742200  1
  H  79  1  0.34664700  0.36244900  0.55660500  1
  H  80  1  0.31322100  0.33951900  0.55035800  1
  H  81  1  0.33982100  0.29864900  0.59669200  1
  H  82  1  0.37310200  0.32156800  0.60282600  1
  H  83  1  0.35251600  0.35985500  0.62135300  1
  H  84  1  0.36063900  0.36072500  0.65757800  1
  H  85  1  0.43637800  0.36427600  0.64498400  1
  H  86  1  0.42811200  0.36377500  0.60867500  1
  H  87  1  0.41375300  0.39546400  0.58551200  1
  H  88  1  0.33814300  0.38311300  0.59003300  1
  H  89  1  0.33009100  0.41943200  0.59073600  1
  H  90  1  0.40585200  0.43173100  0.58660100  1
  H  93  1  0.28893500  0.30904300  0.55995500  1
  H  94  1  0.47120900  0.32810300  0.53101000  1
  H  96  1  0.42112000  0.36866300  0.68095000  1
  H  98  1  0.34559500  0.45528600  0.59518400  1
  H  124  1  0.19909700  0.83697900  0.92184800  1
  H  125  1  0.16662500  0.86043100  0.91407800  1
  H  126  1  0.17806200  0.79890800  0.87126900  1
  H  127  1  0.14558600  0.82216400  0.86376300  1
  H  128  1  0.09963700  0.82832400  0.88263300  1
  H  129  1  0.06633500  0.82168200  0.90560500  1
  H  130  1  0.08765300  0.87278900  0.94286200  1
  H  131  1  0.12083000  0.87921400  0.92005200  1
  H  132  1  0.10282300  0.89505100  0.88012200  1
  H  133  1  0.11097000  0.93131800  0.87942600  1
  H  134  1  0.18679700  0.91880200  0.88176200  1
  H  135  1  0.17857300  0.88248100  0.88201200  1
  H  136  1  0.16334600  0.86202200  0.84720700  1
  H  137  1  0.08768200  0.85954500  0.86010700  1
  H  138  1  0.07935000  0.85724000  0.82391300  1
  H  139  1  0.15504900  0.86030300  0.81094700  1
  H  142  1  0.03993000  0.83274400  0.93443800  1
  H  143  1  0.22079400  0.80441600  0.91539600  1
  H  145  1  0.17172400  0.95468100  0.87512200  1
  H  147  1  0.09465200  0.85052400  0.78827400  1
  H  173  1  0.69907500  0.67957600  0.04744100  1
  H  174  1  0.66666667  0.65612100  0.05521200  1
  H  175  1  0.67807800  0.71761700  0.09805300  1
  H  176  1  0.64560600  0.69435900  0.10556200  1
  H  177  1  0.59964900  0.68822200  0.08665700  1
  H  178  1  0.56634700  0.69486100  0.06368400  1
  H  179  1  0.58763900  0.64372700  0.02645300  1
  H  180  1  0.62081600  0.63730300  0.04926400  1
  H  181  1  0.60281700  0.62148500  0.08919900  1
  H  182  1  0.61096500  0.58521500  0.08987200  1
  H  183  1  0.68679100  0.59773100  0.08748200  1
  H  184  1  0.67856900  0.63405100  0.08725700  1
  H  185  1  0.66334700  0.65449000  0.12209900  1
  H  186  1  0.58768500  0.65703400  0.10919200  1
  H  187  1  0.57935300  0.65935200  0.14538500  1
  H  188  1  0.65504700  0.65622400  0.15836000  1
  H  191  1  0.53992500  0.68377800  0.03486900  1
  H  192  1  0.72078800  0.71212600  0.05390600  1
  H  194  1  0.67172100  0.56185200  0.09414900  1
  H  196  1  0.59465400  0.66604100  0.18102600  1
  H  222  1  0.56335900  0.32403400  0.40349800  1
  H  223  1  0.59680100  0.33028700  0.38058900  1
  H  224  1  0.58985100  0.37044700  0.44432900  1
  H  225  1  0.62315100  0.37658300  0.42143300  1
  H  226  1  0.66867000  0.36167100  0.41276900  1
  H  227  1  0.70123000  0.33822600  0.42015800  1
  H  228  1  0.67603800  0.29773100  0.37294900  1
  H  229  1  0.64346100  0.32114800  0.36572600  1
  H  230  1  0.66385300  0.35924400  0.34754500  1
  H  231  1  0.65592200  0.36028800  0.31127800  1
  H  232  1  0.58016300  0.36437000  0.32360900  1
  H  233  1  0.58823700  0.36371400  0.35992300  1
  H  234  1  0.60259300  0.39507500  0.38315300  1
  H  235  1  0.67819900  0.38241000  0.37927100  1
  H  236  1  0.68645500  0.41872100  0.37877400  1
  H  237  1  0.61071100  0.43130500  0.38228800  1
  H  240  1  0.72129800  0.30470200  0.41489200  1
  H  241  1  0.53901900  0.33365500  0.43393000  1
  H  243  1  0.59562700  0.36878800  0.28775200  1
  H  245  1  0.67118600  0.45468300  0.37434700  1
  H  271  1  0.06341600  0.19254200  0.56576100  1
  H  272  1  0.09685700  0.18628700  0.58867000  1
  H  273  1  0.08981000  0.14602900  0.52499600  1
  H  274  1  0.12311000  0.13989100  0.54789000  1
  H  275  1  0.16860500  0.15490900  0.55648000  1
  H  276  1  0.20116300  0.17835500  0.54908000  1
  H  277  1  0.17610300  0.21877000  0.59640700  1
  H  278  1  0.14352700  0.19535600  0.60363800  1
  H  279  1  0.16385300  0.15721100  0.62175500  1
  H  280  1  0.15591700  0.15617400  0.65802200  1
  H  281  1  0.08014700  0.15226400  0.64568400  1
  H  282  1  0.08822400  0.15291100  0.60937100  1
  H  283  1  0.10260900  0.12146600  0.58623700  1
  H  284  1  0.17822900  0.13412400  0.58994000  1
  H  285  1  0.18648200  0.09781100  0.59042100  1
  H  286  1  0.11072400  0.08523600  0.58709000  1
  H  289  1  0.22129800  0.21183600  0.55440000  1
  H  290  1  0.03903200  0.18288100  0.53536100  1
  H  292  1  0.09560300  0.14777700  0.68154200  1
  H  294  1  0.17119900  0.06185600  0.59494100  1
  H  320  1  0.31534400  0.67831200  0.92075200  1
  H  321  1  0.34871000  0.65539100  0.91405100  1
  H  322  1  0.33780600  0.71669000  0.87084000  1
  H  323  1  0.37100800  0.69395000  0.86436400  1
  H  324  1  0.41567600  0.68822200  0.88335200  1
  H  325  1  0.44804300  0.69593700  0.90688300  1
  H  326  1  0.42824000  0.64416100  0.94380400  1
  H  327  1  0.39583100  0.63669100  0.92044500  1
  H  328  1  0.41359400  0.62111200  0.88077000  1
  H  329  1  0.40563600  0.58480400  0.87990000  1
  H  330  1  0.32972700  0.59704300  0.88168300  1
  H  331  1  0.33776200  0.63337000  0.88207800  1
  H  332  1  0.35306700  0.65384100  0.84757500  1
  H  333  1  0.42863000  0.65702200  0.86080200  1
  H  334  1  0.43712200  0.65947700  0.82462200  1
  H  335  1  0.36153100  0.65573700  0.81136500  1
  H  338  1  0.47010200  0.68902700  0.93909900  1
  H  339  1  0.28943900  0.70767800  0.91018400  1
  H  341  1  0.34500700  0.56127400  0.87505100  1
  H  343  1  0.42191300  0.66602700  0.78890300  1
  H  369  1  0.81535300  0.83821900  0.04853900  1
  H  370  1  0.84872200  0.86114000  0.05524100  1
  H  371  1  0.83779000  0.79985900  0.09847200  1
  H  372  1  0.87099600  0.82259500  0.10494600  1
  H  373  1  0.91565800  0.82831300  0.08593900  1
  H  374  1  0.94802200  0.82059500  0.06240900  1
  H  375  1  0.92825400  0.87239400  0.02550600  1
  H  376  1  0.89584700  0.87986900  0.04886500  1
  H  377  1  0.91358800  0.89542100  0.08854800  1
  H  378  1  0.90563700  0.93173100  0.08941900  1
  H  379  1  0.82972600  0.91950500  0.08760600  1
  H  380  1  0.83775400  0.88317500  0.08720900  1
  H  381  1  0.85306800  0.86272500  0.12172600  1
  H  382  1  0.92862800  0.85949500  0.10850000  1
  H  383  1  0.93711700  0.85702900  0.14467900  1
  H  384  1  0.86152800  0.86082100  0.15793500  1
  H  387  1  0.97007600  0.82750100  0.03018700  1
  H  388  1  0.78943600  0.80885900  0.05911500  1
  H  390  1  0.84501700  0.95527100  0.09426300  1
  H  392  1  0.92189200  0.85047000  0.18039800  1
  H  418  1  0.06745100  0.82112600  0.56335400  1
  H  419  1  0.09992900  0.82887000  0.58680900  1
  H  420  1  0.08845100  0.87176500  0.52535000  1
  H  421  1  0.12093400  0.87924400  0.54860500  1
  H  422  1  0.16689600  0.86028400  0.55474300  1
  H  423  1  0.20020600  0.83730900  0.54812300  1
  H  424  1  0.17891500  0.80011500  0.59928100  1
  H  425  1  0.14573200  0.82292500  0.60568300  1
  H  426  1  0.16370900  0.86288100  0.62147400  1
  H  427  1  0.15555800  0.86355600  0.65774400  1
  H  428  1  0.07973700  0.86109500  0.64522400  1
  H  429  1  0.08796000  0.86086600  0.60890300  1
  H  430  1  0.10319700  0.89574900  0.58848900  1
  H  431  1  0.17886000  0.88285800  0.58589200  1
  H  432  1  0.18717800  0.91905400  0.58356800  1
  H  433  1  0.11148300  0.93201000  0.58675400  1
  H  436  1  0.22662500  0.80849700  0.55921900  1
  H  437  1  0.04571400  0.82762700  0.53082600  1
  H  439  1  0.09480300  0.86778700  0.68110600  1
  H  441  1  0.17187200  0.95469000  0.57691400  1
  H  467  1  0.56742300  0.69540100  0.40593000  1
  H  468  1  0.59989400  0.68765300  0.38247100  1
  H  469  1  0.58849300  0.64481800  0.44397900  1
  H  470  1  0.62096800  0.63733400  0.42071700  1
  H  471  1  0.66692800  0.65622400  0.41453500  1
  H  472  1  0.70023500  0.67920100  0.42115900  1
  H  473  1  0.67886900  0.71645500  0.37006600  1
  H  474  1  0.64569100  0.69363900  0.36366100  1
  H  475  1  0.66371000  0.65369800  0.34782800  1
  H  476  1  0.65556300  0.65300800  0.31155900  1
  H  477  1  0.57973800  0.65537100  0.32407500  1
  H  478  1  0.58796000  0.65561600  0.36039700  1
  H  479  1  0.60318300  0.62079500  0.38085000  1
  H  480  1  0.67885100  0.63367800  0.38334600  1
  H  481  1  0.68717000  0.59748200  0.38565200  1
  H  482  1  0.61146900  0.58453200  0.38256900  1
  H  485  1  0.72662200  0.70804000  0.41008800  1
  H  486  1  0.54573300  0.68893200  0.43849100  1
  H  488  1  0.59481700  0.64870700  0.28819200  1
  H  490  1  0.67186800  0.56184400  0.39234000  1
  H  516  1  0.81954500  0.18108000  0.04625800  1
  H  517  1  0.85186600  0.15755500  0.05419600  1
  H  518  1  0.83712900  0.21672800  0.09948400  1
  H  519  1  0.86948300  0.19348500  0.10712700  1
  H  520  1  0.91604100  0.18881400  0.08617400  1
  H  521  1  0.94929000  0.19572500  0.06319600  1
  H  522  1  0.93013600  0.14310100  0.02722700  1
  H  523  1  0.89702300  0.13646200  0.04993100  1
  H  524  1  0.91322900  0.12118800  0.09073600  1
  H  525  1  0.90485800  0.08495200  0.08874900  1
  H  526  1  0.82954500  0.09820400  0.08203600  1
  H  527  1  0.83790400  0.13437700  0.08460700  1
  H  528  1  0.85349000  0.15296200  0.12217800  1
  H  529  1  0.92896700  0.15840500  0.10936200  1
  H  530  1  0.93713700  0.16081800  0.14555500  1
  H  531  1  0.86167100  0.15476000  0.15846900  1
  H  534  1  0.97648700  0.18436100  0.03487700  1
  H  535  1  0.79663300  0.21279200  0.05362100  1
  H  537  1  0.84488000  0.06247200  0.07651300  1
  H  539  1  0.92169100  0.16642000  0.18120700  1
  H  565  1  0.31955700  0.33544600  0.92304000  1
  H  566  1  0.35187300  0.35897400  0.91510000  1
  H  567  1  0.33712400  0.29981700  0.86979700  1
  H  568  1  0.36947300  0.32306300  0.86215400  1
  H  569  1  0.41604000  0.32772600  0.88312100  1
  H  570  1  0.44929000  0.32082000  0.90609900  1
  H  571  1  0.43014400  0.37345300  0.94205700  1
  H  572  1  0.39702900  0.38008900  0.91935300  1
  H  573  1  0.41322600  0.39535700  0.87855200  1
  H  574  1  0.40484800  0.43159400  0.88054200  1
  H  575  1  0.32954000  0.41833300  0.88727800  1
  H  576  1  0.33790300  0.38216200  0.88470200  1
  H  577  1  0.35348700  0.36359100  0.84711200  1
  H  578  1  0.42896000  0.35811500  0.85993300  1
  H  579  1  0.43713300  0.35569600  0.82374100  1
  H  580  1  0.36167200  0.36178700  0.81082000  1
  H  583  1  0.47649900  0.33219800  0.93440600  1
  H  584  1  0.29664000  0.30374000  0.91566900  1
  H  586  1  0.34485700  0.45407100  0.89275800  1
  H  588  1  0.42168900  0.35011300  0.78808800  1
  H  614  1  0.45123800  0.69430900  0.56463300  1
  H  615  1  0.41787400  0.68762700  0.58756300  1
  H  616  1  0.42872000  0.64441500  0.52625900  1
  H  617  1  0.39551800  0.63795900  0.54900600  1
  H  618  1  0.35084700  0.65694700  0.55476600  1
  H  619  1  0.31847800  0.68048300  0.54707400  1
  H  620  1  0.33834800  0.71741000  0.59882400  1
  H  621  1  0.37075900  0.69404400  0.60627200  1
  H  622  1  0.35296500  0.65435300  0.62185400  1
  H  623  1  0.36092100  0.65349500  0.65816600  1
  H  624  1  0.43682500  0.65527000  0.64593200  1
  H  625  1  0.42879700  0.65565500  0.60960500  1
  H  626  1  0.41350600  0.62117000  0.58913900  1
  H  627  1  0.33794100  0.63437200  0.58594400  1
  H  628  1  0.32946700  0.59819000  0.58348300  1
  H  629  1  0.40506100  0.58495700  0.58723900  1
  H  632  1  0.29645600  0.71272300  0.55397800  1
  H  633  1  0.47711500  0.68374200  0.53525200  1
  H  635  1  0.42152500  0.64859300  0.68169600  1
  H  637  1  0.34468200  0.56247400  0.57694700  1
  H  663  1  0.95123700  0.82223900  0.40466900  1
  H  664  1  0.91787200  0.82891400  0.38174100  1
  H  665  1  0.92871900  0.87213500  0.44304000  1
  H  666  1  0.89551500  0.87858800  0.42029300  1
  H  667  1  0.85085900  0.85958100  0.41454700  1
  H  668  1  0.81849200  0.83604400  0.42224300  1
  H  669  1  0.83832700  0.79913600  0.37046800  1
  H  670  1  0.87073600  0.82250100  0.36301900  1
  H  671  1  0.85296200  0.86219600  0.34744600  1
  H  672  1  0.86091800  0.86305500  0.31113700  1
  H  673  1  0.93682200  0.86125700  0.32337400  1
  H  674  1  0.92879300  0.86087000  0.35970000  1
  H  675  1  0.91349100  0.89536900  0.38015600  1
  H  676  1  0.83792800  0.88216100  0.38336700  1
  H  677  1  0.82945100  0.91834300  0.38582600  1
  H  678  1  0.90504200  0.93158200  0.38205300  1
  H  681  1  0.79644500  0.80382300  0.41532500  1
  H  682  1  0.97712000  0.83281500  0.43404600  1
  H  684  1  0.92152000  0.86795100  0.28760800  1
  H  686  1  0.84465800  0.95405900  0.39234400  1
  H  712  1  0.69915200  0.33670600  0.04726500  1
  H  713  1  0.66588700  0.35966400  0.05417600  1
  H  714  1  0.68010400  0.30078600  0.09995100  1
  H  715  1  0.64697100  0.32346900  0.10659000  1
  H  716  1  0.60174100  0.32772300  0.08546000  1
  H  717  1  0.56942600  0.31979200  0.06192500  1
  H  718  1  0.58703700  0.37301800  0.02628800  1
  H  719  1  0.61938100  0.38065300  0.04953800  1
  H  720  1  0.60341800  0.39571300  0.09006400  1
  H  721  1  0.61163400  0.43200000  0.08822400  1
  H  722  1  0.68708200  0.41902600  0.08210200  1
  H  723  1  0.67887800  0.38284100  0.08455700  1
  H  724  1  0.66314800  0.36427200  0.12181300  1
  H  725  1  0.58781500  0.35810300  0.10866600  1
  H  726  1  0.57948500  0.35555700  0.14484500  1
  H  727  1  0.65480300  0.36231000  0.15805400  1
  H  730  1  0.54650300  0.32717300  0.03022200  1
  H  731  1  0.72641700  0.30844800  0.05866400  1
  H  733  1  0.67164200  0.45467800  0.07644900  1
  H  735  1  0.59482400  0.35012800  0.18058100  1
  H  761  1  0.19915200  0.17983400  0.92203200  1
  H  762  1  0.16588400  0.15687400  0.91512100  1
  H  763  1  0.18010800  0.21574800  0.86934200  1
  H  764  1  0.14697300  0.19306700  0.86270600  1
  H  765  1  0.10174400  0.18880900  0.88383300  1
  H  766  1  0.06943000  0.19674000  0.90736700  1
  H  767  1  0.08703300  0.14351200  0.94300500  1
  H  768  1  0.11937700  0.13587200  0.91975500  1
  H  769  1  0.10342500  0.12082100  0.87923300  1
  H  770  1  0.11164400  0.08453500  0.88106200  1
  H  771  1  0.18709200  0.09751100  0.88717200  1
  H  772  1  0.17888700  0.13369500  0.88472800  1
  H  773  1  0.16314300  0.15225300  0.84747900  1
  H  774  1  0.08781500  0.15843600  0.86063600  1
  H  775  1  0.07947800  0.16098300  0.82445800  1
  H  776  1  0.15479200  0.15421400  0.81123800  1
  H  779  1  0.04651800  0.18936800  0.93907800  1
  H  780  1  0.22641800  0.20809300  0.91063200  1
  H  782  1  0.17166900  0.06185500  0.89279800  1
  H  784  1  0.09480700  0.16639900  0.78871900  1
  H  790  1  0.73324800  0.26297300  0.36020100  1
  H  792  1  0.75070500  0.27909200  0.42170300  1
  H  794  1  0.75479000  0.23761200  0.34100700  1
  H  795  1  0.76584800  0.21715400  0.35688400  1
  H  796  1  0.78613000  0.23683400  0.34773500  1
  H  798  1  0.80438800  0.24444900  0.42688900  1
  H  799  1  0.77747600  0.24965600  0.44124200  1
  H  800  1  0.79579800  0.27043900  0.43164600  1
  H  808  1  0.23324500  0.25357300  0.60908300  1
  H  810  1  0.25071700  0.23743700  0.54758900  1
  H  812  1  0.25478300  0.27893900  0.62827400  1
  H  813  1  0.26585200  0.29939200  0.61239600  1
  H  814  1  0.28612600  0.27970900  0.62155200  1
  H  816  1  0.30439400  0.27208800  0.54240100  1
  H  817  1  0.27748400  0.26687300  0.52804800  1
  H  818  1  0.29581500  0.24609500  0.53764500  1
  H  826  1  0.98330700  0.88278300  0.98939900  1
  H  828  1  0.00074200  0.82128800  0.00555100  1
  H  830  1  0.00484000  0.90197200  0.96405300  1
  H  831  1  0.01589500  0.88610800  0.94358500  1
  H  832  1  0.03617700  0.89523600  0.96327400  1
  H  834  1  0.05465200  0.81616500  0.97120000  1
  H  835  1  0.02769200  0.80174500  0.97606800  1
  H  836  1  0.04568700  0.81132500  0.99706300  1
  H  844  1  0.48330800  0.63375000  0.97989700  1
  H  846  1  0.50073400  0.69525100  0.96376200  1
  H  848  1  0.50484200  0.61455900  0.00524200  1
  H  849  1  0.51589900  0.63042200  0.02571100  1
  H  850  1  0.53617900  0.62129300  0.00602000  1
  H  852  1  0.55464800  0.70036900  0.99810900  1
  H  853  1  0.52768300  0.71478600  0.99325300  1
  H  854  1  0.54567600  0.70522000  0.97225100  1
  H  862  1  0.28324000  0.75351300  0.60926100  1
  H  864  1  0.26581900  0.73738800  0.54775900  1
  H  866  1  0.26170800  0.77885900  0.62845400  1
  H  867  1  0.25066200  0.79933300  0.61259100  1
  H  868  1  0.23037200  0.77964500  0.62171300  1
  H  870  1  0.21191100  0.77173800  0.54264100  1
  H  871  1  0.23888000  0.76688500  0.52822500  1
  H  872  1  0.22088800  0.74587900  0.53778900  1
  H  880  1  0.78324600  0.76301300  0.36005400  1
  H  882  1  0.76580800  0.77915800  0.42154600  1
  H  884  1  0.76171800  0.73766300  0.34086500  1
  H  885  1  0.75066100  0.71719600  0.35672900  1
  H  886  1  0.73038100  0.73688300  0.34759700  1
  H  888  1  0.71189900  0.74480500  0.42666600  1
  H  889  1  0.73886600  0.74966200  0.44108200  1
  H  890  1  0.72087100  0.77066500  0.43151700  1
  H  898  1  0.03320600  0.13401900  0.97979000  1
  H  900  1  0.01569900  0.19551200  0.96370200  1
  H  902  1  0.01183800  0.11483500  0.00523100  1
  H  903  1  0.00092400  0.13069500  0.02575700  1
  H  904  1  0.98051100  0.12158100  0.00615800  1
  H  906  1  0.96194600  0.20063000  0.99822800  1
  H  907  1  0.98888900  0.21506700  0.99333200  1
  H  908  1  0.97085500  0.20549100  0.97235900  1
  H  916  1  0.53320200  0.38252600  0.98951100  1
  H  918  1  0.51570800  0.32102300  0.00557500  1
  H  920  1  0.51183300  0.40171200  0.96407100  1
  H  921  1  0.50091700  0.38585400  0.94354400  1
  H  922  1  0.48050700  0.39496500  0.96314400  1
  H  924  1  0.46195400  0.31590800  0.97105100  1
  H  925  1  0.48890400  0.30147700  0.97593600  1
  H  926  1  0.47086800  0.31103500  0.99691500  1
  H  934  1  0.23328800  0.76309300  0.86041300  1
  H  936  1  0.25081000  0.77915800  0.92191200  1
  H  938  1  0.25466900  0.73765200  0.84121900  1
  H  939  1  0.26560100  0.71713300  0.85708200  1
  H  940  1  0.28600100  0.73673700  0.84795900  1
  H  942  1  0.30442500  0.74444900  0.92706500  1
  H  943  1  0.27751300  0.74956700  0.94146100  1
  H  944  1  0.29576000  0.77040100  0.93187000  1
  H  952  1  0.73328300  0.75344900  0.10888900  1
  H  954  1  0.75081100  0.73737800  0.04739300  1
  H  956  1  0.75466300  0.77889400  0.12808000  1
  H  957  1  0.76559900  0.79940900  0.11221600  1
  H  958  1  0.78599500  0.77980400  0.12134400  1
  H  960  1  0.80442500  0.77208700  0.04223800  1
  H  961  1  0.77751100  0.76697400  0.02784400  1
  H  962  1  0.79575800  0.74613800  0.03742900  1
  H  970  1  0.48323700  0.38281000  0.48931800  1
  H  972  1  0.50068800  0.32131500  0.50547600  1
  H  974  1  0.50481500  0.40200400  0.46397800  1
  H  975  1  0.51591300  0.38612600  0.44353600  1
  H  976  1  0.53615700  0.39528100  0.46324100  1
  H  978  1  0.55442800  0.31613300  0.47089500  1
  H  979  1  0.52751400  0.30177300  0.47607900  1
  H  980  1  0.54580100  0.31138400  0.49687700  1
  H  988  1  0.98325100  0.13370800  0.47996800  1
  H  990  1  0.00068400  0.19520900  0.46382600  1
  H  992  1  0.00482700  0.11451600  0.50530900  1
  H  993  1  0.01591900  0.13039500  0.52575300  1
  H  994  1  0.03616900  0.12124300  0.50605000  1
  H  996  1  0.05442200  0.20039600  0.49840400  1
  H  997  1  0.02750000  0.21475000  0.49323300  1
  H  998  1  0.04578700  0.20515500  0.47242700  1
  H  1006  1  0.78322600  0.25344000  0.10900400  1
  H  1008  1  0.76573600  0.23734000  0.04751000  1
  H  1010  1  0.76181300  0.27885400  0.12819200  1
  H  1011  1  0.75085700  0.29936400  0.11233300  1
  H  1012  1  0.73048300  0.27973900  0.12145000  1
  H  1014  1  0.71190900  0.27178000  0.04240700  1
  H  1015  1  0.73886400  0.26694200  0.02796500  1
  H  1016  1  0.72088500  0.24593100  0.03753300  1
  H  1024  1  0.28322900  0.26309400  0.86028700  1
  H  1026  1  0.26573500  0.27920200  0.92177800  1
  H  1028  1  0.26182100  0.23767700  0.84110100  1
  H  1029  1  0.25086000  0.21716800  0.85696000  1
  H  1030  1  0.23049000  0.23679500  0.84784000  1
  H  1032  1  0.21190900  0.24476200  0.92688200  1
  H  1033  1  0.23886700  0.24959400  0.94132200  1
  H  1034  1  0.22088800  0.27060700  0.93176100  1
  H  1042  1  0.53325700  0.63395600  0.47982900  1
  H  1044  1  0.51573200  0.69545300  0.46376000  1
  H  1046  1  0.51188000  0.61476500  0.50527600  1
  H  1047  1  0.50095800  0.63062900  0.52579600  1
  H  1048  1  0.48055100  0.62150700  0.50619700  1
  H  1050  1  0.46213200  0.70061400  0.49848400  1
  H  1051  1  0.48904000  0.71500900  0.49335000  1
  H  1052  1  0.47078200  0.70540900  0.47252900  1
  H  1060  1  0.03324200  0.88259900  0.48948300  1
  H  1062  1  0.01573700  0.82109400  0.50553400  1
  H  1064  1  0.01186500  0.90178800  0.46403500  1
  H  1065  1  0.00094600  0.88592400  0.44351400  1
  H  1066  1  0.98053500  0.89504300  0.46311200  1
  H  1068  1  0.96214000  0.81592600  0.47080800  1
  H  1069  1  0.98905600  0.80154100  0.47593600  1
  H  1070  1  0.97079200  0.81112400  0.49676200  1
  H  1078  1  0.86626300  0.13138300  0.21638700  1
  H  1080  1  0.91690100  0.18045900  0.21575600  1
  H  1082  1  0.84976500  0.11725200  0.24728900  1
  H  1083  1  0.84665300  0.13629100  0.26704100  1
  H  1084  1  0.87078700  0.11770800  0.26822300  1
  H  1086  1  0.91851100  0.18886400  0.27281300  1
  H  1087  1  0.91551400  0.20307300  0.24949500  1
  H  1088  1  0.94023600  0.18536600  0.25270700  1
  H  1096  1  0.36626200  0.38515900  0.75291400  1
  H  1098  1  0.41690700  0.33608600  0.75353100  1
  H  1100  1  0.34975800  0.39929100  0.72201300  1
  H  1101  1  0.34664500  0.38025500  0.70226100  1
  H  1102  1  0.37077500  0.39884000  0.70107600  1
  H  1104  1  0.41852500  0.32770400  0.69646700  1
  H  1105  1  0.41552500  0.31348100  0.71977800  1
  H  1106  1  0.44024200  0.33119800  0.71658100  1
  H  1114  1  0.11642600  0.02661500  0.85763900  1
  H  1116  1  0.16681800  0.02732300  0.90689100  1
  H  1118  1  0.10005000  0.99569900  0.84345400  1
  H  1119  1  0.09688200  0.97594100  0.86247700  1
  H  1120  1  0.12110400  0.97479000  0.84397700  1
  H  1122  1  0.16832100  0.97030000  0.91546200  1
  H  1123  1  0.16537400  0.99369700  0.92953200  1
  H  1124  1  0.19015900  0.99031700  0.91191800  1
  H  1132  1  0.61641100  0.48991800  0.11163500  1
  H  1134  1  0.66682000  0.48921400  0.06239200  1
  H  1136  1  0.60004600  0.52083500  0.12582900  1
  H  1137  1  0.59687600  0.54059500  0.10680900  1
  H  1138  1  0.62110400  0.54174100  0.12530400  1
  H  1140  1  0.66832400  0.54623600  0.05382300  1
  H  1141  1  0.66539600  0.52283600  0.03975600  1
  H  1142  1  0.69016400  0.52622300  0.05738500  1
  H  1150  1  0.65023100  0.38517900  0.21586700  1
  H  1152  1  0.59953700  0.33614300  0.21517700  1
  H  1154  1  0.66682700  0.39919800  0.24679000  1
  H  1155  1  0.66997100  0.38009300  0.26647500  1
  H  1156  1  0.64585500  0.39868500  0.26776100  1
  H  1158  1  0.59801800  0.32761200  0.27222800  1
  H  1159  1  0.60099400  0.31342500  0.24888700  1
  H  1160  1  0.57629000  0.33114600  0.25213300  1
  H  1168  1  0.15021200  0.13135200  0.75343000  1
  H  1170  1  0.09952900  0.18039600  0.75412300  1
  H  1172  1  0.16680800  0.11733500  0.72250700  1
  H  1173  1  0.16995800  0.13644300  0.70282700  1
  H  1174  1  0.14584000  0.11785200  0.70153400  1
  H  1176  1  0.09801900  0.18893600  0.69707200  1
  H  1177  1  0.10098400  0.20311800  0.72041500  1
  H  1178  1  0.07628400  0.18539400  0.71716100  1
  H  1186  1  0.40007500  0.48942000  0.85759500  1
  H  1188  1  0.34965900  0.48864100  0.90683100  1
  H  1190  1  0.41653900  0.52035600  0.84351700  1
  H  1191  1  0.41975300  0.54004300  0.86260800  1
  H  1192  1  0.39553600  0.54130100  0.84410800  1
  H  1194  1  0.34828300  0.54564900  0.91556400  1
  H  1195  1  0.35118900  0.52221600  0.92958400  1
  H  1196  1  0.32641700  0.52566400  0.91197000  1
  H  1204  1  0.90009200  0.02712200  0.11169900  1
  H  1206  1  0.84965700  0.02789800  0.06247500  1
  H  1208  1  0.91654500  0.99618500  0.12578400  1
  H  1209  1  0.91975900  0.97649400  0.10669600  1
  H  1210  1  0.89553900  0.97524300  0.12519200  1
  H  1212  1  0.84827100  0.97088900  0.05374800  1
  H  1213  1  0.85116300  0.99432200  0.03972600  1
  H  1214  1  0.82640800  0.99087300  0.05735600  1
  H  1222  1  0.15029700  0.88510500  0.75305800  1
  H  1224  1  0.09961500  0.83607300  0.75375300  1
  H  1226  1  0.16670700  0.89927100  0.72214800  1
  H  1227  1  0.16976300  0.88025300  0.70237100  1
  H  1228  1  0.14563700  0.89884600  0.70124800  1
  H  1230  1  0.09807400  0.82751800  0.69672800  1
  H  1231  1  0.10091800  0.81344800  0.72013300  1
  H  1232  1  0.07623500  0.83116000  0.71672600  1
  H  1240  1  0.65028600  0.63143500  0.21623700  1
  H  1242  1  0.59960700  0.68047000  0.21555500  1
  H  1244  1  0.66666667  0.61726700  0.24714500  1
  H  1245  1  0.66976100  0.63628200  0.26692300  1
  H  1246  1  0.64563400  0.61768700  0.26804700  1
  H  1248  1  0.59806400  0.68900700  0.27258400  1
  H  1249  1  0.60090600  0.70308800  0.24918600  1
  H  1250  1  0.57622900  0.68536800  0.25258100  1
  H  1258  1  0.36629300  0.63142400  0.75357600  1
  H  1260  1  0.41703300  0.68041400  0.75433300  1
  H  1262  1  0.34977600  0.61737800  0.72264700  1
  H  1263  1  0.34669400  0.63646300  0.70293900  1
  H  1264  1  0.37079600  0.61785300  0.70171000  1
  H  1266  1  0.41848600  0.68909600  0.69731500  1
  H  1267  1  0.41565400  0.70314600  0.72073700  1
  H  1268  1  0.44032500  0.68542400  0.71730700  1
  H  1276  1  0.86628500  0.88510200  0.21572500  1
  H  1278  1  0.91704400  0.83612500  0.21497200  1
  H  1280  1  0.84977800  0.89915800  0.24665400  1
  H  1281  1  0.84669400  0.88007600  0.26636600  1
  H  1282  1  0.87080000  0.89868300  0.26758700  1
  H  1284  1  0.91850800  0.82745200  0.27199200  1
  H  1285  1  0.91569000  0.81339900  0.24857200  1
  H  1286  1  0.94034200  0.83113800  0.25200000  1
  H  1294  1  0.61607400  0.52661700  0.35791700  1
  H  1296  1  0.66700300  0.52732300  0.40676700  1
  H  1298  1  0.59955700  0.49569000  0.34385000  1
  H  1299  1  0.59658100  0.47594000  0.36290600  1
  H  1300  1  0.62061300  0.47477800  0.34422600  1
  H  1302  1  0.66872900  0.47026600  0.41520100  1
  H  1303  1  0.66578100  0.49359300  0.42940300  1
  H  1304  1  0.69041500  0.49038500  0.41160400  1
  H  1312  1  0.11610200  0.98992200  0.61136600  1
  H  1314  1  0.16701500  0.98921600  0.56250300  1
  H  1316  1  0.09958600  0.02085000  0.62543200  1
  H  1317  1  0.09660300  0.04059600  0.60637400  1
  H  1318  1  0.12063900  0.04176300  0.62505000  1
  H  1320  1  0.16874000  0.04627500  0.55407100  1
  H  1321  1  0.16579300  0.02294900  0.53986700  1
  H  1322  1  0.19042500  0.02615400  0.55766800  1
  H  1330  1  0.90040600  0.98940200  0.35788800  1
  H  1332  1  0.84945700  0.98862600  0.40672300  1
  H  1334  1  0.91701100  0.02034900  0.34393100  1
  H  1335  1  0.92002100  0.04003200  0.36305200  1
  H  1336  1  0.89600100  0.04129300  0.34436700  1
  H  1338  1  0.84782600  0.04567500  0.41529500  1
  H  1339  1  0.85076000  0.02232400  0.42946500  1
  H  1340  1  0.82613100  0.02557000  0.41166900  1
  H  1348  1  0.40045400  0.52714000  0.61139500  1
  H  1350  1  0.34944100  0.52790200  0.56260400  1
  H  1352  1  0.41706100  0.49619300  0.62535600  1
  H  1353  1  0.42005300  0.47650300  0.60624100  1
  H  1354  1  0.39604600  0.47525300  0.62493700  1
  H  1356  1  0.34777400  0.47084700  0.55407100  1
  H  1357  1  0.35070000  0.49418700  0.53987700  1
  H  1358  1  0.32609900  0.49096800  0.55770600  1
  H  1386  1  0.18924100  0.19375700  0.40482400  1
  H  1387  1  0.15666700  0.18635700  0.38139800  1
  H  1388  1  0.16426800  0.14637600  0.44521600  1
  H  1389  1  0.13166800  0.13914800  0.42182300  1
  H  1390  1  0.08494340  0.15415200  0.41275400  1
  H  1391  1  0.05151540  0.17708200  0.41901000  1
  H  1392  1  0.07794540  0.21783500  0.37250300  1
  H  1393  1  0.11122600  0.19492200  0.36636400  1
  H  1394  1  0.09072240  0.15657100  0.34794000  1
  H  1395  1  0.09885440  0.15572800  0.31171200  1
  H  1396  1  0.17461100  0.15242900  0.32431100  1
  H  1397  1  0.16634200  0.15289900  0.36062200  1
  H  1398  1  0.15195600  0.12106900  0.38367500  1
  H  1399  1  0.07631640  0.13342800  0.37941500  1
  H  1400  1  0.06825940  0.09710800  0.37875200  1
  H  1401  1  0.14403800  0.08480000  0.38262000  1
  H  1404  1  0.02715940  0.20750200  0.40935200  1
  H  1405  1  0.20941200  0.18842200  0.43828600  1
  H  1407  1  0.15936200  0.14795600  0.28834800  1
  H  1409  1  0.08373740  0.06125400  0.37424000  1
  H  1435  1  0.68933000  0.32284300  0.56453000  1
  H  1436  1  0.65675800  0.33023800  0.58795600  1
  H  1437  1  0.66418400  0.37006000  0.52402400  1
  H  1438  1  0.63158600  0.37728600  0.54742200  1
  H  1439  1  0.58485400  0.36244900  0.55660500  1
  H  1440  1  0.55142800  0.33951900  0.55035800  1
  H  1441  1  0.57802800  0.29864900  0.59669200  1
  H  1442  1  0.61130900  0.32156800  0.60282600  1
  H  1443  1  0.59072300  0.35985500  0.62135300  1
  H  1444  1  0.59884600  0.36072500  0.65757800  1
  H  1445  1  0.67458500  0.36427600  0.64498400  1
  H  1446  1  0.66631900  0.36377500  0.60867500  1
  H  1447  1  0.65196000  0.39546400  0.58551200  1
  H  1448  1  0.57635000  0.38311300  0.59003300  1
  H  1449  1  0.56829800  0.41943200  0.59073600  1
  H  1450  1  0.64405900  0.43173100  0.58660100  1
  H  1453  1  0.52714200  0.30904300  0.55995500  1
  H  1454  1  0.70941600  0.32810300  0.53101000  1
  H  1456  1  0.65932700  0.36866300  0.68095000  1
  H  1458  1  0.58380200  0.45528600  0.59518400  1
  H  1484  1  0.43730400  0.83697900  0.92184800  1
  H  1485  1  0.40483200  0.86043100  0.91407800  1
  H  1486  1  0.41626900  0.79890800  0.87126900  1
  H  1487  1  0.38379300  0.82216400  0.86376300  1
  H  1488  1  0.33784400  0.82832400  0.88263300  1
  H  1489  1  0.30454200  0.82168200  0.90560500  1
  H  1490  1  0.32586000  0.87278900  0.94286200  1
  H  1491  1  0.35903700  0.87921400  0.92005200  1
  H  1492  1  0.34103000  0.89505100  0.88012200  1
  H  1493  1  0.34917700  0.93131800  0.87942600  1
  H  1494  1  0.42500400  0.91880200  0.88176200  1
  H  1495  1  0.41678000  0.88248100  0.88201200  1
  H  1496  1  0.40155300  0.86202200  0.84720700  1
  H  1497  1  0.32588900  0.85954500  0.86010700  1
  H  1498  1  0.31755700  0.85724000  0.82391300  1
  H  1499  1  0.39325600  0.86030300  0.81094700  1
  H  1502  1  0.27813700  0.83274400  0.93443800  1
  H  1503  1  0.45900100  0.80441600  0.91539600  1
  H  1505  1  0.40993100  0.95468100  0.87512200  1
  H  1507  1  0.33285900  0.85052400  0.78827400  1
  H  1533  1  0.93728200  0.67957600  0.04744100  1
  H  1534  1  0.90481400  0.65612100  0.05521200  1
  H  1535  1  0.91628500  0.71761700  0.09805300  1
  H  1536  1  0.88381300  0.69435900  0.10556200  1
  H  1537  1  0.83785600  0.68822200  0.08665700  1
  H  1538  1  0.80455400  0.69486100  0.06368400  1
  H  1539  1  0.82584600  0.64372700  0.02645300  1
  H  1540  1  0.85902300  0.63730300  0.04926400  1
  H  1541  1  0.84102400  0.62148500  0.08919900  1
  H  1542  1  0.84917200  0.58521500  0.08987200  1
  H  1543  1  0.92499800  0.59773100  0.08748200  1
  H  1544  1  0.91677600  0.63405100  0.08725700  1
  H  1545  1  0.90155400  0.65449000  0.12209900  1
  H  1546  1  0.82589200  0.65703400  0.10919200  1
  H  1547  1  0.81756000  0.65935200  0.14538500  1
  H  1548  1  0.89325400  0.65622400  0.15836000  1
  H  1551  1  0.77813200  0.68377800  0.03486900  1
  H  1552  1  0.95899500  0.71212600  0.05390600  1
  H  1554  1  0.90992800  0.56185200  0.09414900  1
  H  1556  1  0.83286100  0.66604100  0.18102600  1
  H  1582  1  0.80156600  0.32403400  0.40349800  1
  H  1583  1  0.83500800  0.33028700  0.38058900  1
  H  1584  1  0.82805800  0.37044700  0.44432900  1
  H  1585  1  0.86135800  0.37658300  0.42143300  1
  H  1586  1  0.90687700  0.36167100  0.41276900  1
  H  1587  1  0.93943700  0.33822600  0.42015800  1
  H  1588  1  0.91424500  0.29773100  0.37294900  1
  H  1589  1  0.88166800  0.32114800  0.36572600  1
  H  1590  1  0.90206000  0.35924400  0.34754500  1
  H  1591  1  0.89412900  0.36028800  0.31127800  1
  H  1592  1  0.81837000  0.36437000  0.32360900  1
  H  1593  1  0.82644400  0.36371400  0.35992300  1
  H  1594  1  0.84080000  0.39507500  0.38315300  1
  H  1595  1  0.91640600  0.38241000  0.37927100  1
  H  1596  1  0.92466200  0.41872100  0.37877400  1
  H  1597  1  0.84891800  0.43130500  0.38228800  1
  H  1600  1  0.95950500  0.30470200  0.41489200  1
  H  1601  1  0.77722600  0.33365500  0.43393000  1
  H  1603  1  0.83383400  0.36878800  0.28775200  1
  H  1605  1  0.90939300  0.45468300  0.37434700  1
  H  1631  1  0.30162300  0.19254200  0.56576100  1
  H  1632  1  0.33506400  0.18628700  0.58867000  1
  H  1633  1  0.32801700  0.14602900  0.52499600  1
  H  1634  1  0.36131700  0.13989100  0.54789000  1
  H  1635  1  0.40681200  0.15490900  0.55648000  1
  H  1636  1  0.43937000  0.17835500  0.54908000  1
  H  1637  1  0.41431000  0.21877000  0.59640700  1
  H  1638  1  0.38173400  0.19535600  0.60363800  1
  H  1639  1  0.40206000  0.15721100  0.62175500  1
  H  1640  1  0.39412400  0.15617400  0.65802200  1
  H  1641  1  0.31835400  0.15226400  0.64568400  1
  H  1642  1  0.32643100  0.15291100  0.60937100  1
  H  1643  1  0.34081600  0.12146600  0.58623700  1
  H  1644  1  0.41643600  0.13412400  0.58994000  1
  H  1645  1  0.42468900  0.09781100  0.59042100  1
  H  1646  1  0.34893100  0.08523600  0.58709000  1
  H  1649  1  0.45950500  0.21183600  0.55440000  1
  H  1650  1  0.27723900  0.18288100  0.53536100  1
  H  1652  1  0.33381000  0.14777700  0.68154200  1
  H  1654  1  0.40940600  0.06185600  0.59494100  1
  H  1680  1  0.55355100  0.67831200  0.92075200  1
  H  1681  1  0.58691700  0.65539100  0.91405100  1
  H  1682  1  0.57601300  0.71669000  0.87084000  1
  H  1683  1  0.60921500  0.69395000  0.86436400  1
  H  1684  1  0.65388300  0.68822200  0.88335200  1
  H  1685  1  0.68625000  0.69593700  0.90688300  1
  H  1686  1  0.66644700  0.64416100  0.94380400  1
  H  1687  1  0.63403800  0.63669100  0.92044500  1
  H  1688  1  0.65180100  0.62111200  0.88077000  1
  H  1689  1  0.64384300  0.58480400  0.87990000  1
  H  1690  1  0.56793400  0.59704300  0.88168300  1
  H  1691  1  0.57596900  0.63337000  0.88207800  1
  H  1692  1  0.59127400  0.65384100  0.84757500  1
  H  1693  1  0.66683700  0.65702200  0.86080200  1
  H  1694  1  0.67532900  0.65947700  0.82462200  1
  H  1695  1  0.59973800  0.65573700  0.81136500  1
  H  1698  1  0.70830900  0.68902700  0.93909900  1
  H  1699  1  0.52764600  0.70767800  0.91018400  1
  H  1701  1  0.58321400  0.56127400  0.87505100  1
  H  1703  1  0.66012000  0.66602700  0.78890300  1
  H  1729  1  0.05356040  0.83821900  0.04853900  1
  H  1730  1  0.08692940  0.86114000  0.05524100  1
  H  1731  1  0.07599740  0.79985900  0.09847200  1
  H  1732  1  0.10920300  0.82259500  0.10494600  1
  H  1733  1  0.15386500  0.82831300  0.08593900  1
  H  1734  1  0.18622900  0.82059500  0.06240900  1
  H  1735  1  0.16646100  0.87239400  0.02550600  1
  H  1736  1  0.13405400  0.87986900  0.04886500  1
  H  1737  1  0.15179500  0.89542100  0.08854800  1
  H  1738  1  0.14384400  0.93173100  0.08941900  1
  H  1739  1  0.06793340  0.91950500  0.08760600  1
  H  1740  1  0.07596140  0.88317500  0.08720900  1
  H  1741  1  0.09127540  0.86272500  0.12172600  1
  H  1742  1  0.16683500  0.85949500  0.10850000  1
  H  1743  1  0.17532400  0.85702900  0.14467900  1
  H  1744  1  0.09973540  0.86082100  0.15793500  1
  H  1747  1  0.20828300  0.82750100  0.03018700  1
  H  1748  1  0.02764340  0.80885900  0.05911500  1
  H  1750  1  0.08322440  0.95527100  0.09426300  1
  H  1752  1  0.16009900  0.85047000  0.18039800  1
  H  1778  1  0.30565800  0.82112600  0.56335400  1
  H  1779  1  0.33813600  0.82887000  0.58680900  1
  H  1780  1  0.32665800  0.87176500  0.52535000  1
  H  1781  1  0.35914100  0.87924400  0.54860500  1
  H  1782  1  0.40510300  0.86028400  0.55474300  1
  H  1783  1  0.43841300  0.83730900  0.54812300  1
  H  1784  1  0.41712200  0.80011500  0.59928100  1
  H  1785  1  0.38393900  0.82292500  0.60568300  1
  H  1786  1  0.40191600  0.86288100  0.62147400  1
  H  1787  1  0.39376500  0.86355600  0.65774400  1
  H  1788  1  0.31794400  0.86109500  0.64522400  1
  H  1789  1  0.32616700  0.86086600  0.60890300  1
  H  1790  1  0.34140400  0.89574900  0.58848900  1
  H  1791  1  0.41706700  0.88285800  0.58589200  1
  H  1792  1  0.42538500  0.91905400  0.58356800  1
  H  1793  1  0.34969000  0.93201000  0.58675400  1
  H  1796  1  0.46483200  0.80849700  0.55921900  1
  H  1797  1  0.28392100  0.82762700  0.53082600  1
  H  1799  1  0.33301000  0.86778700  0.68110600  1
  H  1801  1  0.41007900  0.95469000  0.57691400  1
  H  1827  1  0.80563000  0.69540100  0.40593000  1
  H  1828  1  0.83810100  0.68765300  0.38247100  1
  H  1829  1  0.82670000  0.64481800  0.44397900  1
  H  1830  1  0.85917500  0.63733400  0.42071700  1
  H  1831  1  0.90513500  0.65622400  0.41453500  1
  H  1832  1  0.93844200  0.67920100  0.42115900  1
  H  1833  1  0.91707600  0.71645500  0.37006600  1
  H  1834  1  0.88389800  0.69363900  0.36366100  1
  H  1835  1  0.90191700  0.65369800  0.34782800  1
  H  1836  1  0.89377000  0.65300800  0.31155900  1
  H  1837  1  0.81794500  0.65537100  0.32407500  1
  H  1838  1  0.82616700  0.65561600  0.36039700  1
  H  1839  1  0.84139000  0.62079500  0.38085000  1
  H  1840  1  0.91705800  0.63367800  0.38334600  1
  H  1841  1  0.92537700  0.59748200  0.38565200  1
  H  1842  1  0.84967600  0.58453200  0.38256900  1
  H  1845  1  0.96482900  0.70804000  0.41008800  1
  H  1846  1  0.78394000  0.68893200  0.43849100  1
  H  1848  1  0.83302400  0.64870700  0.28819200  1
  H  1850  1  0.91007500  0.56184400  0.39234000  1
  H  1876  1  0.05775240  0.18108000  0.04625800  1
  H  1877  1  0.09007340  0.15755500  0.05419600  1
  H  1878  1  0.07533640  0.21672800  0.09948400  1
  H  1879  1  0.10769000  0.19348500  0.10712700  1
  H  1880  1  0.15424800  0.18881400  0.08617400  1
  H  1881  1  0.18749700  0.19572500  0.06319600  1
  H  1882  1  0.16834300  0.14310100  0.02722700  1
  H  1883  1  0.13523000  0.13646200  0.04993100  1
  H  1884  1  0.15143600  0.12118800  0.09073600  1
  H  1885  1  0.14306500  0.08495200  0.08874900  1
  H  1886  1  0.06775240  0.09820400  0.08203600  1
  H  1887  1  0.07611140  0.13437700  0.08460700  1
  H  1888  1  0.09169740  0.15296200  0.12217800  1
  H  1889  1  0.16717400  0.15840500  0.10936200  1
  H  1890  1  0.17534400  0.16081800  0.14555500  1
  H  1891  1  0.09987840  0.15476000  0.15846900  1
  H  1894  1  0.21469400  0.18436100  0.03487700  1
  H  1895  1  0.03484040  0.21279200  0.05362100  1
  H  1897  1  0.08308740  0.06247200  0.07651300  1
  H  1899  1  0.15989800  0.16642000  0.18120700  1
  H  1925  1  0.55776400  0.33544600  0.92304000  1
  H  1926  1  0.59008000  0.35897400  0.91510000  1
  H  1927  1  0.57533100  0.29981700  0.86979700  1
  H  1928  1  0.60768000  0.32306300  0.86215400  1
  H  1929  1  0.65424700  0.32772600  0.88312100  1
  H  1930  1  0.68749700  0.32082000  0.90609900  1
  H  1931  1  0.66835100  0.37345300  0.94205700  1
  H  1932  1  0.63523600  0.38008900  0.91935300  1
  H  1933  1  0.65143300  0.39535700  0.87855200  1
  H  1934  1  0.64305500  0.43159400  0.88054200  1
  H  1935  1  0.56774700  0.41833300  0.88727800  1
  H  1936  1  0.57611000  0.38216200  0.88470200  1
  H  1937  1  0.59169400  0.36359100  0.84711200  1
  H  1938  1  0.66716700  0.35811500  0.85993300  1
  H  1939  1  0.67534000  0.35569600  0.82374100  1
  H  1940  1  0.59987900  0.36178700  0.81082000  1
  H  1943  1  0.71470600  0.33219800  0.93440600  1
  H  1944  1  0.53484700  0.30374000  0.91566900  1
  H  1946  1  0.58306400  0.45407100  0.89275800  1
  H  1948  1  0.65989600  0.35011300  0.78808800  1
  H  1974  1  0.68944500  0.69430900  0.56463300  1
  H  1975  1  0.65608100  0.68762700  0.58756300  1
  H  1976  1  0.66692700  0.64441500  0.52625900  1
  H  1977  1  0.63372500  0.63795900  0.54900600  1
  H  1978  1  0.58905400  0.65694700  0.55476600  1
  H  1979  1  0.55668500  0.68048300  0.54707400  1
  H  1980  1  0.57655500  0.71741000  0.59882400  1
  H  1981  1  0.60896600  0.69404400  0.60627200  1
  H  1982  1  0.59117200  0.65435300  0.62185400  1
  H  1983  1  0.59912800  0.65349500  0.65816600  1
  H  1984  1  0.67503200  0.65527000  0.64593200  1
  H  1985  1  0.66700400  0.65565500  0.60960500  1
  H  1986  1  0.65171300  0.62117000  0.58913900  1
  H  1987  1  0.57614800  0.63437200  0.58594400  1
  H  1988  1  0.56767400  0.59819000  0.58348300  1
  H  1989  1  0.64326800  0.58495700  0.58723900  1
  H  1992  1  0.53466300  0.71272300  0.55397800  1
  H  1993  1  0.71532200  0.68374200  0.53525200  1
  H  1995  1  0.65973200  0.64859300  0.68169600  1
  H  1997  1  0.58288900  0.56247400  0.57694700  1
  H  2023  1  0.18944400  0.82223900  0.40466900  1
  H  2024  1  0.15607900  0.82891400  0.38174100  1
  H  2025  1  0.16692600  0.87213500  0.44304000  1
  H  2026  1  0.13372200  0.87858800  0.42029300  1
  H  2027  1  0.08906640  0.85958100  0.41454700  1
  H  2028  1  0.05669940  0.83604400  0.42224300  1
  H  2029  1  0.07653440  0.79913600  0.37046800  1
  H  2030  1  0.10894300  0.82250100  0.36301900  1
  H  2031  1  0.09116940  0.86219600  0.34744600  1
  H  2032  1  0.09912540  0.86305500  0.31113700  1
  H  2033  1  0.17502900  0.86125700  0.32337400  1
  H  2034  1  0.16700000  0.86087000  0.35970000  1
  H  2035  1  0.15169800  0.89536900  0.38015600  1
  H  2036  1  0.07613540  0.88216100  0.38336700  1
  H  2037  1  0.06765840  0.91834300  0.38582600  1
  H  2038  1  0.14324900  0.93158200  0.38205300  1
  H  2041  1  0.03465240  0.80382300  0.41532500  1
  H  2042  1  0.21532700  0.83281500  0.43404600  1
  H  2044  1  0.15972700  0.86795100  0.28760800  1
  H  2046  1  0.08286540  0.95405900  0.39234400  1
  H  2072  1  0.93735900  0.33670600  0.04726500  1
  H  2073  1  0.90409400  0.35966400  0.05417600  1
  H  2074  1  0.91831100  0.30078600  0.09995100  1
  H  2075  1  0.88517800  0.32346900  0.10659000  1
  H  2076  1  0.83994800  0.32772300  0.08546000  1
  H  2077  1  0.80763300  0.31979200  0.06192500  1
  H  2078  1  0.82524400  0.37301800  0.02628800  1
  H  2079  1  0.85758800  0.38065300  0.04953800  1
  H  2080  1  0.84162500  0.39571300  0.09006400  1
  H  2081  1  0.84984100  0.43200000  0.08822400  1
  H  2082  1  0.92528900  0.41902600  0.08210200  1
  H  2083  1  0.91708500  0.38284100  0.08455700  1
  H  2084  1  0.90135500  0.36427200  0.12181300  1
  H  2085  1  0.82602200  0.35810300  0.10866600  1
  H  2086  1  0.81769200  0.35555700  0.14484500  1
  H  2087  1  0.89301000  0.36231000  0.15805400  1
  H  2090  1  0.78471000  0.32717300  0.03022200  1
  H  2091  1  0.96462400  0.30844800  0.05866400  1
  H  2093  1  0.90984900  0.45467800  0.07644900  1
  H  2095  1  0.83303100  0.35012800  0.18058100  1
  H  2121  1  0.43735900  0.17983400  0.92203200  1
  H  2122  1  0.40409100  0.15687400  0.91512100  1
  H  2123  1  0.41831500  0.21574800  0.86934200  1
  H  2124  1  0.38518000  0.19306700  0.86270600  1
  H  2125  1  0.33995100  0.18880900  0.88383300  1
  H  2126  1  0.30763700  0.19674000  0.90736700  1
  H  2127  1  0.32524000  0.14351200  0.94300500  1
  H  2128  1  0.35758400  0.13587200  0.91975500  1
  H  2129  1  0.34163200  0.12082100  0.87923300  1
  H  2130  1  0.34985100  0.08453500  0.88106200  1
  H  2131  1  0.42529900  0.09751100  0.88717200  1
  H  2132  1  0.41709400  0.13369500  0.88472800  1
  H  2133  1  0.40135000  0.15225300  0.84747900  1
  H  2134  1  0.32602200  0.15843600  0.86063600  1
  H  2135  1  0.31768500  0.16098300  0.82445800  1
  H  2136  1  0.39299900  0.15421400  0.81123800  1
  H  2139  1  0.28472500  0.18936800  0.93907800  1
  H  2140  1  0.46462500  0.20809300  0.91063200  1
  H  2142  1  0.40987600  0.06185500  0.89279800  1
  H  2144  1  0.33301400  0.16639900  0.78871900  1
  H  2150  1  0.97145500  0.26297300  0.36020100  1
  H  2152  1  0.98891200  0.27909200  0.42170300  1
  H  2154  1  0.99299700  0.23761200  0.34100700  1
  H  2155  1  0.00405536  0.21715400  0.35688400  1
  H  2156  1  0.02433740  0.23683400  0.34773500  1
  H  2158  1  0.04259540  0.24444900  0.42688900  1
  H  2159  1  0.01568340  0.24965600  0.44124200  1
  H  2160  1  0.03400540  0.27043900  0.43164600  1
  H  2168  1  0.47145200  0.25357300  0.60908300  1
  H  2170  1  0.48892400  0.23743700  0.54758900  1
  H  2172  1  0.49299000  0.27893900  0.62827400  1
  H  2173  1  0.50405900  0.29939200  0.61239600  1
  H  2174  1  0.52433300  0.27970900  0.62155200  1
  H  2176  1  0.54260100  0.27208800  0.54240100  1
  H  2177  1  0.51569100  0.26687300  0.52804800  1
  H  2178  1  0.53402200  0.24609500  0.53764500  1
  H  2186  1  0.22151400  0.88278300  0.98939900  1
  H  2188  1  0.23894900  0.82128800  0.00555100  1
  H  2190  1  0.24304700  0.90197200  0.96405300  1
  H  2191  1  0.25410200  0.88610800  0.94358500  1
  H  2192  1  0.27438400  0.89523600  0.96327400  1
  H  2194  1  0.29285900  0.81616500  0.97120000  1
  H  2195  1  0.26589900  0.80174500  0.97606800  1
  H  2196  1  0.28389400  0.81132500  0.99706300  1
  H  2204  1  0.72151500  0.63375000  0.97989700  1
  H  2206  1  0.73894100  0.69525100  0.96376200  1
  H  2208  1  0.74304900  0.61455900  0.00524200  1
  H  2209  1  0.75410600  0.63042200  0.02571100  1
  H  2210  1  0.77438600  0.62129300  0.00602000  1
  H  2212  1  0.79285500  0.70036900  0.99810900  1
  H  2213  1  0.76589000  0.71478600  0.99325300  1
  H  2214  1  0.78388300  0.70522000  0.97225100  1
  H  2222  1  0.52144700  0.75351300  0.60926100  1
  H  2224  1  0.50402600  0.73738800  0.54775900  1
  H  2226  1  0.49991500  0.77885900  0.62845400  1
  H  2227  1  0.48886900  0.79933300  0.61259100  1
  H  2228  1  0.46857900  0.77964500  0.62171300  1
  H  2230  1  0.45011800  0.77173800  0.54264100  1
  H  2231  1  0.47708700  0.76688500  0.52822500  1
  H  2232  1  0.45909500  0.74587900  0.53778900  1
  H  2240  1  0.02145340  0.76301300  0.36005400  1
  H  2242  1  0.00401536  0.77915800  0.42154600  1
  H  2244  1  0.99992500  0.73766300  0.34086500  1
  H  2245  1  0.98886800  0.71719600  0.35672900  1
  H  2246  1  0.96858800  0.73688300  0.34759700  1
  H  2248  1  0.95010600  0.74480500  0.42666600  1
  H  2249  1  0.97707300  0.74966200  0.44108200  1
  H  2250  1  0.95907800  0.77066500  0.43151700  1
  H  2258  1  0.27141300  0.13401900  0.97979000  1
  H  2260  1  0.25390600  0.19551200  0.96370200  1
  H  2262  1  0.25004500  0.11483500  0.00523100  1
  H  2263  1  0.23913100  0.13069500  0.02575700  1
  H  2264  1  0.21871800  0.12158100  0.00615800  1
  H  2266  1  0.20015300  0.20063000  0.99822800  1
  H  2267  1  0.22709600  0.21506700  0.99333200  1
  H  2268  1  0.20906200  0.20549100  0.97235900  1
  H  2276  1  0.77140900  0.38252600  0.98951100  1
  H  2278  1  0.75391500  0.32102300  0.00557500  1
  H  2280  1  0.75004000  0.40171200  0.96407100  1
  H  2281  1  0.73912400  0.38585400  0.94354400  1
  H  2282  1  0.71871400  0.39496500  0.96314400  1
  H  2284  1  0.70016100  0.31590800  0.97105100  1
  H  2285  1  0.72711100  0.30147700  0.97593600  1
  H  2286  1  0.70907500  0.31103500  0.99691500  1
  H  2294  1  0.47149500  0.76309300  0.86041300  1
  H  2296  1  0.48901700  0.77915800  0.92191200  1
  H  2298  1  0.49287600  0.73765200  0.84121900  1
  H  2299  1  0.50380800  0.71713300  0.85708200  1
  H  2300  1  0.52420800  0.73673700  0.84795900  1
  H  2302  1  0.54263200  0.74444900  0.92706500  1
  H  2303  1  0.51572000  0.74956700  0.94146100  1
  H  2304  1  0.53396700  0.77040100  0.93187000  1
  H  2312  1  0.97149000  0.75344900  0.10888900  1
  H  2314  1  0.98901800  0.73737800  0.04739300  1
  H  2316  1  0.99287000  0.77889400  0.12808000  1
  H  2317  1  0.00380636  0.79940900  0.11221600  1
  H  2318  1  0.02420240  0.77980400  0.12134400  1
  H  2320  1  0.04263240  0.77208700  0.04223800  1
  H  2321  1  0.01571840  0.76697400  0.02784400  1
  H  2322  1  0.03396540  0.74613800  0.03742900  1
  H  2330  1  0.72144400  0.38281000  0.48931800  1
  H  2332  1  0.73889500  0.32131500  0.50547600  1
  H  2334  1  0.74302200  0.40200400  0.46397800  1
  H  2335  1  0.75412000  0.38612600  0.44353600  1
  H  2336  1  0.77436400  0.39528100  0.46324100  1
  H  2338  1  0.79263500  0.31613300  0.47089500  1
  H  2339  1  0.76572100  0.30177300  0.47607900  1
  H  2340  1  0.78400800  0.31138400  0.49687700  1
  H  2348  1  0.22145800  0.13370800  0.47996800  1
  H  2350  1  0.23889100  0.19520900  0.46382600  1
  H  2352  1  0.24303400  0.11451600  0.50530900  1
  H  2353  1  0.25412600  0.13039500  0.52575300  1
  H  2354  1  0.27437600  0.12124300  0.50605000  1
  H  2356  1  0.29262900  0.20039600  0.49840400  1
  H  2357  1  0.26570700  0.21475000  0.49323300  1
  H  2358  1  0.28399400  0.20515500  0.47242700  1
  H  2366  1  0.02143340  0.25344000  0.10900400  1
  H  2368  1  0.00394336  0.23734000  0.04751000  1
  H  2370  1  0.00002036  0.27885400  0.12819200  1
  H  2371  1  0.98906400  0.29936400  0.11233300  1
  H  2372  1  0.96869000  0.27973900  0.12145000  1
  H  2374  1  0.95011600  0.27178000  0.04240700  1
  H  2375  1  0.97707100  0.26694200  0.02796500  1
  H  2376  1  0.95909200  0.24593100  0.03753300  1
  H  2384  1  0.52143600  0.26309400  0.86028700  1
  H  2386  1  0.50394200  0.27920200  0.92177800  1
  H  2388  1  0.50002800  0.23767700  0.84110100  1
  H  2389  1  0.48906700  0.21716800  0.85696000  1
  H  2390  1  0.46869700  0.23679500  0.84784000  1
  H  2392  1  0.45011600  0.24476200  0.92688200  1
  H  2393  1  0.47707400  0.24959400  0.94132200  1
  H  2394  1  0.45909500  0.27060700  0.93176100  1
  H  2402  1  0.77146400  0.63395600  0.47982900  1
  H  2404  1  0.75393900  0.69545300  0.46376000  1
  H  2406  1  0.75008700  0.61476500  0.50527600  1
  H  2407  1  0.73916500  0.63062900  0.52579600  1
  H  2408  1  0.71875800  0.62150700  0.50619700  1
  H  2410  1  0.70033900  0.70061400  0.49848400  1
  H  2411  1  0.72724700  0.71500900  0.49335000  1
  H  2412  1  0.70898900  0.70540900  0.47252900  1
  H  2420  1  0.27144900  0.88259900  0.48948300  1
  H  2422  1  0.25394400  0.82109400  0.50553400  1
  H  2424  1  0.25007200  0.90178800  0.46403500  1
  H  2425  1  0.23915300  0.88592400  0.44351400  1
  H  2426  1  0.21874200  0.89504300  0.46311200  1
  H  2428  1  0.20034700  0.81592600  0.47080800  1
  H  2429  1  0.22726300  0.80154100  0.47593600  1
  H  2430  1  0.20899900  0.81112400  0.49676200  1
  H  2438  1  0.10447000  0.13138300  0.21638700  1
  H  2440  1  0.15510800  0.18045900  0.21575600  1
  H  2442  1  0.08797240  0.11725200  0.24728900  1
  H  2443  1  0.08486040  0.13629100  0.26704100  1
  H  2444  1  0.10899400  0.11770800  0.26822300  1
  H  2446  1  0.15671800  0.18886400  0.27281300  1
  H  2447  1  0.15372100  0.20307300  0.24949500  1
  H  2448  1  0.17844300  0.18536600  0.25270700  1
  H  2456  1  0.60446900  0.38515900  0.75291400  1
  H  2458  1  0.65511400  0.33608600  0.75353100  1
  H  2460  1  0.58796500  0.39929100  0.72201300  1
  H  2461  1  0.58485200  0.38025500  0.70226100  1
  H  2462  1  0.60898200  0.39884000  0.70107600  1
  H  2464  1  0.65673200  0.32770400  0.69646700  1
  H  2465  1  0.65373200  0.31348100  0.71977800  1
  H  2466  1  0.67844900  0.33119800  0.71658100  1
  H  2474  1  0.35463300  0.02661500  0.85763900  1
  H  2476  1  0.40502500  0.02732300  0.90689100  1
  H  2478  1  0.33825700  0.99569900  0.84345400  1
  H  2479  1  0.33508900  0.97594100  0.86247700  1
  H  2480  1  0.35931100  0.97479000  0.84397700  1
  H  2482  1  0.40652800  0.97030000  0.91546200  1
  H  2483  1  0.40358100  0.99369700  0.92953200  1
  H  2484  1  0.42836600  0.99031700  0.91191800  1
  H  2492  1  0.85461800  0.48991800  0.11163500  1
  H  2494  1  0.90502700  0.48921400  0.06239200  1
  H  2496  1  0.83825300  0.52083500  0.12582900  1
  H  2497  1  0.83508300  0.54059500  0.10680900  1
  H  2498  1  0.85931100  0.54174100  0.12530400  1
  H  2500  1  0.90653100  0.54623600  0.05382300  1
  H  2501  1  0.90360300  0.52283600  0.03975600  1
  H  2502  1  0.92837100  0.52622300  0.05738500  1
  H  2510  1  0.88843800  0.38517900  0.21586700  1
  H  2512  1  0.83774400  0.33614300  0.21517700  1
  H  2514  1  0.90503400  0.39919800  0.24679000  1
  H  2515  1  0.90817800  0.38009300  0.26647500  1
  H  2516  1  0.88406200  0.39868500  0.26776100  1
  H  2518  1  0.83622500  0.32761200  0.27222800  1
  H  2519  1  0.83920100  0.31342500  0.24888700  1
  H  2520  1  0.81449700  0.33114600  0.25213300  1
  H  2528  1  0.38841900  0.13135200  0.75343000  1
  H  2530  1  0.33773600  0.18039600  0.75412300  1
  H  2532  1  0.40501500  0.11733500  0.72250700  1
  H  2533  1  0.40816500  0.13644300  0.70282700  1
  H  2534  1  0.38404700  0.11785200  0.70153400  1
  H  2536  1  0.33622600  0.18893600  0.69707200  1
  H  2537  1  0.33919100  0.20311800  0.72041500  1
  H  2538  1  0.31449100  0.18539400  0.71716100  1
  H  2546  1  0.63828200  0.48942000  0.85759500  1
  H  2548  1  0.58786600  0.48864100  0.90683100  1
  H  2550  1  0.65474600  0.52035600  0.84351700  1
  H  2551  1  0.65796000  0.54004300  0.86260800  1
  H  2552  1  0.63374300  0.54130100  0.84410800  1
  H  2554  1  0.58649000  0.54564900  0.91556400  1
  H  2555  1  0.58939600  0.52221600  0.92958400  1
  H  2556  1  0.56462400  0.52566400  0.91197000  1
  H  2564  1  0.13829900  0.02712200  0.11169900  1
  H  2566  1  0.08786440  0.02789800  0.06247500  1
  H  2568  1  0.15475200  0.99618500  0.12578400  1
  H  2569  1  0.15796600  0.97649400  0.10669600  1
  H  2570  1  0.13374600  0.97524300  0.12519200  1
  H  2572  1  0.08647840  0.97088900  0.05374800  1
  H  2573  1  0.08937040  0.99432200  0.03972600  1
  H  2574  1  0.06461540  0.99087300  0.05735600  1
  H  2582  1  0.38850400  0.88510500  0.75305800  1
  H  2584  1  0.33782200  0.83607300  0.75375300  1
  H  2586  1  0.40491400  0.89927100  0.72214800  1
  H  2587  1  0.40797000  0.88025300  0.70237100  1
  H  2588  1  0.38384400  0.89884600  0.70124800  1
  H  2590  1  0.33628100  0.82751800  0.69672800  1
  H  2591  1  0.33912500  0.81344800  0.72013300  1
  H  2592  1  0.31444200  0.83116000  0.71672600  1
  H  2600  1  0.88849300  0.63143500  0.21623700  1
  H  2602  1  0.83781400  0.68047000  0.21555500  1
  H  2604  1  0.90490900  0.61726700  0.24714500  1
  H  2605  1  0.90796800  0.63628200  0.26692300  1
  H  2606  1  0.88384100  0.61768700  0.26804700  1
  H  2608  1  0.83627100  0.68900700  0.27258400  1
  H  2609  1  0.83911300  0.70308800  0.24918600  1
  H  2610  1  0.81443600  0.68536800  0.25258100  1
  H  2618  1  0.60450000  0.63142400  0.75357600  1
  H  2620  1  0.65524000  0.68041400  0.75433300  1
  H  2622  1  0.58798300  0.61737800  0.72264700  1
  H  2623  1  0.58490100  0.63646300  0.70293900  1
  H  2624  1  0.60900300  0.61785300  0.70171000  1
  H  2626  1  0.65669300  0.68909600  0.69731500  1
  H  2627  1  0.65386100  0.70314600  0.72073700  1
  H  2628  1  0.67853200  0.68542400  0.71730700  1
  H  2636  1  0.10449200  0.88510200  0.21572500  1
  H  2638  1  0.15525100  0.83612500  0.21497200  1
  H  2640  1  0.08798540  0.89915800  0.24665400  1
  H  2641  1  0.08490140  0.88007600  0.26636600  1
  H  2642  1  0.10900700  0.89868300  0.26758700  1
  H  2644  1  0.15671500  0.82745200  0.27199200  1
  H  2645  1  0.15389700  0.81339900  0.24857200  1
  H  2646  1  0.17854900  0.83113800  0.25200000  1
  H  2654  1  0.85428100  0.52661700  0.35791700  1
  H  2656  1  0.90521000  0.52732300  0.40676700  1
  H  2658  1  0.83776400  0.49569000  0.34385000  1
  H  2659  1  0.83478800  0.47594000  0.36290600  1
  H  2660  1  0.85882000  0.47477800  0.34422600  1
  H  2662  1  0.90693600  0.47026600  0.41520100  1
  H  2663  1  0.90398800  0.49359300  0.42940300  1
  H  2664  1  0.92862200  0.49038500  0.41160400  1
  H  2672  1  0.35430900  0.98992200  0.61136600  1
  H  2674  1  0.40522200  0.98921600  0.56250300  1
  H  2676  1  0.33779300  0.02085000  0.62543200  1
  H  2677  1  0.33481000  0.04059600  0.60637400  1
  H  2678  1  0.35884600  0.04176300  0.62505000  1
  H  2680  1  0.40694700  0.04627500  0.55407100  1
  H  2681  1  0.40400000  0.02294900  0.53986700  1
  H  2682  1  0.42863200  0.02615400  0.55766800  1
  H  2690  1  0.13861300  0.98940200  0.35788800  1
  H  2692  1  0.08766440  0.98862600  0.40672300  1
  H  2694  1  0.15521800  0.02034900  0.34393100  1
  H  2695  1  0.15822800  0.04003200  0.36305200  1
  H  2696  1  0.13420800  0.04129300  0.34436700  1
  H  2698  1  0.08603340  0.04567500  0.41529500  1
  H  2699  1  0.08896740  0.02232400  0.42946500  1
  H  2700  1  0.06433840  0.02557000  0.41166900  1
  H  2708  1  0.63866100  0.52714000  0.61139500  1
  H  2710  1  0.58764800  0.52790200  0.56260400  1
  H  2712  1  0.65526800  0.49619300  0.62535600  1
  H  2713  1  0.65826000  0.47650300  0.60624100  1
  H  2714  1  0.63425300  0.47525300  0.62493700  1
  H  2716  1  0.58598100  0.47084700  0.55407100  1
  H  2717  1  0.58890700  0.49418700  0.53987700  1
  H  2718  1  0.56430600  0.49096800  0.55770600  1
  H  2746  1  0.42744900  0.19375700  0.40482400  1
  H  2747  1  0.39487500  0.18635700  0.38139800  1
  H  2748  1  0.40247600  0.14637600  0.44521600  1
  H  2749  1  0.36987600  0.13914800  0.42182300  1
  H  2750  1  0.32315100  0.15415200  0.41275400  1
  H  2751  1  0.28972300  0.17708200  0.41901000  1
  H  2752  1  0.31615300  0.21783500  0.37250300  1
  H  2753  1  0.34943400  0.19492200  0.36636400  1
  H  2754  1  0.32893000  0.15657100  0.34794000  1
  H  2755  1  0.33706200  0.15572800  0.31171200  1
  H  2756  1  0.41281900  0.15242900  0.32431100  1
  H  2757  1  0.40455000  0.15289900  0.36062200  1
  H  2758  1  0.39016400  0.12106900  0.38367500  1
  H  2759  1  0.31452400  0.13342800  0.37941500  1
  H  2760  1  0.30646700  0.09710800  0.37875200  1
  H  2761  1  0.38224600  0.08480000  0.38262000  1
  H  2764  1  0.26536700  0.20750200  0.40935200  1
  H  2765  1  0.44762000  0.18842200  0.43828600  1
  H  2767  1  0.39757000  0.14795600  0.28834800  1
  H  2769  1  0.32194500  0.06125400  0.37424000  1
  H  2795  1  0.92753800  0.32284300  0.56453000  1
  H  2796  1  0.89496600  0.33023800  0.58795600  1
  H  2797  1  0.90239200  0.37006000  0.52402400  1
  H  2798  1  0.86979400  0.37728600  0.54742200  1
  H  2799  1  0.82306200  0.36244900  0.55660500  1
  H  2800  1  0.78963600  0.33951900  0.55035800  1
  H  2801  1  0.81623600  0.29864900  0.59669200  1
  H  2802  1  0.84951700  0.32156800  0.60282600  1
  H  2803  1  0.82893100  0.35985500  0.62135300  1
  H  2804  1  0.83705400  0.36072500  0.65757800  1
  H  2805  1  0.91279300  0.36427600  0.64498400  1
  H  2806  1  0.90452700  0.36377500  0.60867500  1
  H  2807  1  0.89016800  0.39546400  0.58551200  1
  H  2808  1  0.81455800  0.38311300  0.59003300  1
  H  2809  1  0.80650600  0.41943200  0.59073600  1
  H  2810  1  0.88226700  0.43173100  0.58660100  1
  H  2813  1  0.76535000  0.30904300  0.55995500  1
  H  2814  1  0.94762400  0.32810300  0.53101000  1
  H  2816  1  0.89753500  0.36866300  0.68095000  1
  H  2818  1  0.82201000  0.45528600  0.59518400  1
  H  2844  1  0.67551200  0.83697900  0.92184800  1
  H  2845  1  0.64304000  0.86043100  0.91407800  1
  H  2846  1  0.65447700  0.79890800  0.87126900  1
  H  2847  1  0.62200100  0.82216400  0.86376300  1
  H  2848  1  0.57605200  0.82832400  0.88263300  1
  H  2849  1  0.54275000  0.82168200  0.90560500  1
  H  2850  1  0.56406800  0.87278900  0.94286200  1
  H  2851  1  0.59724500  0.87921400  0.92005200  1
  H  2852  1  0.57923800  0.89505100  0.88012200  1
  H  2853  1  0.58738500  0.93131800  0.87942600  1
  H  2854  1  0.66321200  0.91880200  0.88176200  1
  H  2855  1  0.65498800  0.88248100  0.88201200  1
  H  2856  1  0.63976100  0.86202200  0.84720700  1
  H  2857  1  0.56409700  0.85954500  0.86010700  1
  H  2858  1  0.55576500  0.85724000  0.82391300  1
  H  2859  1  0.63146400  0.86030300  0.81094700  1
  H  2862  1  0.51634500  0.83274400  0.93443800  1
  H  2863  1  0.69720900  0.80441600  0.91539600  1
  H  2865  1  0.64813900  0.95468100  0.87512200  1
  H  2867  1  0.57106700  0.85052400  0.78827400  1
  H  2893  1  0.17549000  0.67957600  0.04744100  1
  H  2894  1  0.14302200  0.65612100  0.05521200  1
  H  2895  1  0.15449300  0.71761700  0.09805300  1
  H  2896  1  0.12202100  0.69435900  0.10556200  1
  H  2897  1  0.07606370  0.68822200  0.08665700  1
  H  2898  1  0.04276170  0.69486100  0.06368400  1
  H  2899  1  0.06405370  0.64372700  0.02645300  1
  H  2900  1  0.09723070  0.63730300  0.04926400  1
  H  2901  1  0.07923170  0.62148500  0.08919900  1
  H  2902  1  0.08737970  0.58521500  0.08987200  1
  H  2903  1  0.16320600  0.59773100  0.08748200  1
  H  2904  1  0.15498400  0.63405100  0.08725700  1
  H  2905  1  0.13976200  0.65449000  0.12209900  1
  H  2906  1  0.06409970  0.65703400  0.10919200  1
  H  2907  1  0.05576770  0.65935200  0.14538500  1
  H  2908  1  0.13146200  0.65622400  0.15836000  1
  H  2911  1  0.01633970  0.68377800  0.03486900  1
  H  2912  1  0.19720300  0.71212600  0.05390600  1
  H  2914  1  0.14813600  0.56185200  0.09414900  1
  H  2916  1  0.07106870  0.66604100  0.18102600  1
  H  2942  1  0.03977370  0.32403400  0.40349800  1
  H  2943  1  0.07321570  0.33028700  0.38058900  1
  H  2944  1  0.06626570  0.37044700  0.44432900  1
  H  2945  1  0.09956570  0.37658300  0.42143300  1
  H  2946  1  0.14508500  0.36167100  0.41276900  1
  H  2947  1  0.17764500  0.33822600  0.42015800  1
  H  2948  1  0.15245300  0.29773100  0.37294900  1
  H  2949  1  0.11987600  0.32114800  0.36572600  1
  H  2950  1  0.14026800  0.35924400  0.34754500  1
  H  2951  1  0.13233700  0.36028800  0.31127800  1
  H  2952  1  0.05657770  0.36437000  0.32360900  1
  H  2953  1  0.06465170  0.36371400  0.35992300  1
  H  2954  1  0.07900770  0.39507500  0.38315300  1
  H  2955  1  0.15461400  0.38241000  0.37927100  1
  H  2956  1  0.16287000  0.41872100  0.37877400  1
  H  2957  1  0.08712570  0.43130500  0.38228800  1
  H  2960  1  0.19771300  0.30470200  0.41489200  1
  H  2961  1  0.01543370  0.33365500  0.43393000  1
  H  2963  1  0.07204170  0.36878800  0.28775200  1
  H  2965  1  0.14760100  0.45468300  0.37434700  1
  H  2991  1  0.53983100  0.19254200  0.56576100  1
  H  2992  1  0.57327200  0.18628700  0.58867000  1
  H  2993  1  0.56622500  0.14602900  0.52499600  1
  H  2994  1  0.59952500  0.13989100  0.54789000  1
  H  2995  1  0.64502000  0.15490900  0.55648000  1
  H  2996  1  0.67757800  0.17835500  0.54908000  1
  H  2997  1  0.65251800  0.21877000  0.59640700  1
  H  2998  1  0.61994200  0.19535600  0.60363800  1
  H  2999  1  0.64026800  0.15721100  0.62175500  1
  H  3000  1  0.63233200  0.15617400  0.65802200  1
  H  3001  1  0.55656200  0.15226400  0.64568400  1
  H  3002  1  0.56463900  0.15291100  0.60937100  1
  H  3003  1  0.57902400  0.12146600  0.58623700  1
  H  3004  1  0.65464400  0.13412400  0.58994000  1
  H  3005  1  0.66289700  0.09781100  0.59042100  1
  H  3006  1  0.58713900  0.08523600  0.58709000  1
  H  3009  1  0.69771300  0.21183600  0.55440000  1
  H  3010  1  0.51544700  0.18288100  0.53536100  1
  H  3012  1  0.57201800  0.14777700  0.68154200  1
  H  3014  1  0.64761400  0.06185600  0.59494100  1
  H  3040  1  0.79175900  0.67831200  0.92075200  1
  H  3041  1  0.82512500  0.65539100  0.91405100  1
  H  3042  1  0.81422100  0.71669000  0.87084000  1
  H  3043  1  0.84742300  0.69395000  0.86436400  1
  H  3044  1  0.89209100  0.68822200  0.88335200  1
  H  3045  1  0.92445800  0.69593700  0.90688300  1
  H  3046  1  0.90465500  0.64416100  0.94380400  1
  H  3047  1  0.87224600  0.63669100  0.92044500  1
  H  3048  1  0.89000900  0.62111200  0.88077000  1
  H  3049  1  0.88205100  0.58480400  0.87990000  1
  H  3050  1  0.80614200  0.59704300  0.88168300  1
  H  3051  1  0.81417700  0.63337000  0.88207800  1
  H  3052  1  0.82948200  0.65384100  0.84757500  1
  H  3053  1  0.90504500  0.65702200  0.86080200  1
  H  3054  1  0.91353700  0.65947700  0.82462200  1
  H  3055  1  0.83794600  0.65573700  0.81136500  1
  H  3058  1  0.94651700  0.68902700  0.93909900  1
  H  3059  1  0.76585400  0.70767800  0.91018400  1
  H  3061  1  0.82142200  0.56127400  0.87505100  1
  H  3063  1  0.89832800  0.66602700  0.78890300  1
  H  3089  1  0.29176800  0.83821900  0.04853900  1
  H  3090  1  0.32513700  0.86114000  0.05524100  1
  H  3091  1  0.31420500  0.79985900  0.09847200  1
  H  3092  1  0.34741100  0.82259500  0.10494600  1
  H  3093  1  0.39207300  0.82831300  0.08593900  1
  H  3094  1  0.42443700  0.82059500  0.06240900  1
  H  3095  1  0.40466900  0.87239400  0.02550600  1
  H  3096  1  0.37226200  0.87986900  0.04886500  1
  H  3097  1  0.39000300  0.89542100  0.08854800  1
  H  3098  1  0.38205200  0.93173100  0.08941900  1
  H  3099  1  0.30614100  0.91950500  0.08760600  1
  H  3100  1  0.31416900  0.88317500  0.08720900  1
  H  3101  1  0.32948300  0.86272500  0.12172600  1
  H  3102  1  0.40504300  0.85949500  0.10850000  1
  H  3103  1  0.41353200  0.85702900  0.14467900  1
  H  3104  1  0.33794300  0.86082100  0.15793500  1
  H  3107  1  0.44649100  0.82750100  0.03018700  1
  H  3108  1  0.26585100  0.80885900  0.05911500  1
  H  3110  1  0.32143200  0.95527100  0.09426300  1
  H  3112  1  0.39830700  0.85047000  0.18039800  1
  H  3138  1  0.54386600  0.82112600  0.56335400  1
  H  3139  1  0.57634400  0.82887000  0.58680900  1
  H  3140  1  0.56486600  0.87176500  0.52535000  1
  H  3141  1  0.59734900  0.87924400  0.54860500  1
  H  3142  1  0.64331100  0.86028400  0.55474300  1
  H  3143  1  0.67662100  0.83730900  0.54812300  1
  H  3144  1  0.65533000  0.80011500  0.59928100  1
  H  3145  1  0.62214700  0.82292500  0.60568300  1
  H  3146  1  0.64012400  0.86288100  0.62147400  1
  H  3147  1  0.63197300  0.86355600  0.65774400  1
  H  3148  1  0.55615200  0.86109500  0.64522400  1
  H  3149  1  0.56437500  0.86086600  0.60890300  1
  H  3150  1  0.57961200  0.89574900  0.58848900  1
  H  3151  1  0.65527500  0.88285800  0.58589200  1
  H  3152  1  0.66359300  0.91905400  0.58356800  1
  H  3153  1  0.58789800  0.93201000  0.58675400  1
  H  3156  1  0.70304000  0.80849700  0.55921900  1
  H  3157  1  0.52212900  0.82762700  0.53082600  1
  H  3159  1  0.57121800  0.86778700  0.68110600  1
  H  3161  1  0.64828700  0.95469000  0.57691400  1
  H  3187  1  0.04383770  0.69540100  0.40593000  1
  H  3188  1  0.07630870  0.68765300  0.38247100  1
  H  3189  1  0.06490770  0.64481800  0.44397900  1
  H  3190  1  0.09738270  0.63733400  0.42071700  1
  H  3191  1  0.14334300  0.65622400  0.41453500  1
  H  3192  1  0.17665000  0.67920100  0.42115900  1
  H  3193  1  0.15528400  0.71645500  0.37006600  1
  H  3194  1  0.12210600  0.69363900  0.36366100  1
  H  3195  1  0.14012500  0.65369800  0.34782800  1
  H  3196  1  0.13197800  0.65300800  0.31155900  1
  H  3197  1  0.05615270  0.65537100  0.32407500  1
  H  3198  1  0.06437470  0.65561600  0.36039700  1
  H  3199  1  0.07959770  0.62079500  0.38085000  1
  H  3200  1  0.15526600  0.63367800  0.38334600  1
  H  3201  1  0.16358500  0.59748200  0.38565200  1
  H  3202  1  0.08788370  0.58453200  0.38256900  1
  H  3205  1  0.20303700  0.70804000  0.41008800  1
  H  3206  1  0.02214770  0.68893200  0.43849100  1
  H  3208  1  0.07123170  0.64870700  0.28819200  1
  H  3210  1  0.14828300  0.56184400  0.39234000  1
  H  3236  1  0.29596000  0.18108000  0.04625800  1
  H  3237  1  0.32828100  0.15755500  0.05419600  1
  H  3238  1  0.31354400  0.21672800  0.09948400  1
  H  3239  1  0.34589800  0.19348500  0.10712700  1
  H  3240  1  0.39245600  0.18881400  0.08617400  1
  H  3241  1  0.42570500  0.19572500  0.06319600  1
  H  3242  1  0.40655100  0.14310100  0.02722700  1
  H  3243  1  0.37343800  0.13646200  0.04993100  1
  H  3244  1  0.38964400  0.12118800  0.09073600  1
  H  3245  1  0.38127300  0.08495200  0.08874900  1
  H  3246  1  0.30596000  0.09820400  0.08203600  1
  H  3247  1  0.31431900  0.13437700  0.08460700  1
  H  3248  1  0.32990500  0.15296200  0.12217800  1
  H  3249  1  0.40538200  0.15840500  0.10936200  1
  H  3250  1  0.41355200  0.16081800  0.14555500  1
  H  3251  1  0.33808600  0.15476000  0.15846900  1
  H  3254  1  0.45290200  0.18436100  0.03487700  1
  H  3255  1  0.27304800  0.21279200  0.05362100  1
  H  3257  1  0.32129500  0.06247200  0.07651300  1
  H  3259  1  0.39810600  0.16642000  0.18120700  1
  H  3285  1  0.79597200  0.33544600  0.92304000  1
  H  3286  1  0.82828800  0.35897400  0.91510000  1
  H  3287  1  0.81353900  0.29981700  0.86979700  1
  H  3288  1  0.84588800  0.32306300  0.86215400  1
  H  3289  1  0.89245500  0.32772600  0.88312100  1
  H  3290  1  0.92570500  0.32082000  0.90609900  1
  H  3291  1  0.90655900  0.37345300  0.94205700  1
  H  3292  1  0.87344400  0.38008900  0.91935300  1
  H  3293  1  0.88964100  0.39535700  0.87855200  1
  H  3294  1  0.88126300  0.43159400  0.88054200  1
  H  3295  1  0.80595500  0.41833300  0.88727800  1
  H  3296  1  0.81431800  0.38216200  0.88470200  1
  H  3297  1  0.82990200  0.36359100  0.84711200  1
  H  3298  1  0.90537500  0.35811500  0.85993300  1
  H  3299  1  0.91354800  0.35569600  0.82374100  1
  H  3300  1  0.83808700  0.36178700  0.81082000  1
  H  3303  1  0.95291400  0.33219800  0.93440600  1
  H  3304  1  0.77305500  0.30374000  0.91566900  1
  H  3306  1  0.82127200  0.45407100  0.89275800  1
  H  3308  1  0.89810400  0.35011300  0.78808800  1
  H  3334  1  0.92765300  0.69430900  0.56463300  1
  H  3335  1  0.89428900  0.68762700  0.58756300  1
  H  3336  1  0.90513500  0.64441500  0.52625900  1
  H  3337  1  0.87193300  0.63795900  0.54900600  1
  H  3338  1  0.82726200  0.65694700  0.55476600  1
  H  3339  1  0.79489300  0.68048300  0.54707400  1
  H  3340  1  0.81476300  0.71741000  0.59882400  1
  H  3341  1  0.84717400  0.69404400  0.60627200  1
  H  3342  1  0.82938000  0.65435300  0.62185400  1
  H  3343  1  0.83733600  0.65349500  0.65816600  1
  H  3344  1  0.91324000  0.65527000  0.64593200  1
  H  3345  1  0.90521200  0.65565500  0.60960500  1
  H  3346  1  0.88992100  0.62117000  0.58913900  1
  H  3347  1  0.81435600  0.63437200  0.58594400  1
  H  3348  1  0.80588200  0.59819000  0.58348300  1
  H  3349  1  0.88147600  0.58495700  0.58723900  1
  H  3352  1  0.77287100  0.71272300  0.55397800  1
  H  3353  1  0.95353000  0.68374200  0.53525200  1
  H  3355  1  0.89794000  0.64859300  0.68169600  1
  H  3357  1  0.82109700  0.56247400  0.57694700  1
  H  3383  1  0.42765200  0.82223900  0.40466900  1
  H  3384  1  0.39428700  0.82891400  0.38174100  1
  H  3385  1  0.40513400  0.87213500  0.44304000  1
  H  3386  1  0.37193000  0.87858800  0.42029300  1
  H  3387  1  0.32727400  0.85958100  0.41454700  1
  H  3388  1  0.29490700  0.83604400  0.42224300  1
  H  3389  1  0.31474200  0.79913600  0.37046800  1
  H  3390  1  0.34715100  0.82250100  0.36301900  1
  H  3391  1  0.32937700  0.86219600  0.34744600  1
  H  3392  1  0.33733300  0.86305500  0.31113700  1
  H  3393  1  0.41323700  0.86125700  0.32337400  1
  H  3394  1  0.40520800  0.86087000  0.35970000  1
  H  3395  1  0.38990600  0.89536900  0.38015600  1
  H  3396  1  0.31434300  0.88216100  0.38336700  1
  H  3397  1  0.30586600  0.91834300  0.38582600  1
  H  3398  1  0.38145700  0.93158200  0.38205300  1
  H  3401  1  0.27286000  0.80382300  0.41532500  1
  H  3402  1  0.45353500  0.83281500  0.43404600  1
  H  3404  1  0.39793500  0.86795100  0.28760800  1
  H  3406  1  0.32107300  0.95405900  0.39234400  1
  H  3432  1  0.17556700  0.33670600  0.04726500  1
  H  3433  1  0.14230200  0.35966400  0.05417600  1
  H  3434  1  0.15651900  0.30078600  0.09995100  1
  H  3435  1  0.12338600  0.32346900  0.10659000  1
  H  3436  1  0.07815570  0.32772300  0.08546000  1
  H  3437  1  0.04584070  0.31979200  0.06192500  1
  H  3438  1  0.06345170  0.37301800  0.02628800  1
  H  3439  1  0.09579570  0.38065300  0.04953800  1
  H  3440  1  0.07983270  0.39571300  0.09006400  1
  H  3441  1  0.08804870  0.43200000  0.08822400  1
  H  3442  1  0.16349700  0.41902600  0.08210200  1
  H  3443  1  0.15529300  0.38284100  0.08455700  1
  H  3444  1  0.13956300  0.36427200  0.12181300  1
  H  3445  1  0.06422970  0.35810300  0.10866600  1
  H  3446  1  0.05589970  0.35555700  0.14484500  1
  H  3447  1  0.13121800  0.36231000  0.15805400  1
  H  3450  1  0.02291770  0.32717300  0.03022200  1
  H  3451  1  0.20283200  0.30844800  0.05866400  1
  H  3453  1  0.14805700  0.45467800  0.07644900  1
  H  3455  1  0.07123870  0.35012800  0.18058100  1
  H  3481  1  0.67556700  0.17983400  0.92203200  1
  H  3482  1  0.64229900  0.15687400  0.91512100  1
  H  3483  1  0.65652300  0.21574800  0.86934200  1
  H  3484  1  0.62338800  0.19306700  0.86270600  1
  H  3485  1  0.57815900  0.18880900  0.88383300  1
  H  3486  1  0.54584500  0.19674000  0.90736700  1
  H  3487  1  0.56344800  0.14351200  0.94300500  1
  H  3488  1  0.59579200  0.13587200  0.91975500  1
  H  3489  1  0.57984000  0.12082100  0.87923300  1
  H  3490  1  0.58805900  0.08453500  0.88106200  1
  H  3491  1  0.66350700  0.09751100  0.88717200  1
  H  3492  1  0.65530200  0.13369500  0.88472800  1
  H  3493  1  0.63955800  0.15225300  0.84747900  1
  H  3494  1  0.56423000  0.15843600  0.86063600  1
  H  3495  1  0.55589300  0.16098300  0.82445800  1
  H  3496  1  0.63120700  0.15421400  0.81123800  1
  H  3499  1  0.52293300  0.18936800  0.93907800  1
  H  3500  1  0.70283300  0.20809300  0.91063200  1
  H  3502  1  0.64808400  0.06185500  0.89279800  1
  H  3504  1  0.57122200  0.16639900  0.78871900  1
  H  3510  1  0.20966300  0.26297300  0.36020100  1
  H  3512  1  0.22712000  0.27909200  0.42170300  1
  H  3514  1  0.23120500  0.23761200  0.34100700  1
  H  3515  1  0.24226300  0.21715400  0.35688400  1
  H  3516  1  0.26254500  0.23683400  0.34773500  1
  H  3518  1  0.28080300  0.24444900  0.42688900  1
  H  3519  1  0.25389100  0.24965600  0.44124200  1
  H  3520  1  0.27221300  0.27043900  0.43164600  1
  H  3528  1  0.70966000  0.25357300  0.60908300  1
  H  3530  1  0.72713200  0.23743700  0.54758900  1
  H  3532  1  0.73119800  0.27893900  0.62827400  1
  H  3533  1  0.74226700  0.29939200  0.61239600  1
  H  3534  1  0.76254100  0.27970900  0.62155200  1
  H  3536  1  0.78080900  0.27208800  0.54240100  1
  H  3537  1  0.75389900  0.26687300  0.52804800  1
  H  3538  1  0.77223000  0.24609500  0.53764500  1
  H  3546  1  0.45972200  0.88278300  0.98939900  1
  H  3548  1  0.47715700  0.82128800  0.00555100  1
  H  3550  1  0.48125500  0.90197200  0.96405300  1
  H  3551  1  0.49231000  0.88610800  0.94358500  1
  H  3552  1  0.51259200  0.89523600  0.96327400  1
  H  3554  1  0.53106700  0.81616500  0.97120000  1
  H  3555  1  0.50410700  0.80174500  0.97606800  1
  H  3556  1  0.52210200  0.81132500  0.99706300  1
  H  3564  1  0.95972300  0.63375000  0.97989700  1
  H  3566  1  0.97714900  0.69525100  0.96376200  1
  H  3568  1  0.98125700  0.61455900  0.00524200  1
  H  3569  1  0.99231400  0.63042200  0.02571100  1
  H  3570  1  0.01259370  0.62129300  0.00602000  1
  H  3572  1  0.03106270  0.70036900  0.99810900  1
  H  3573  1  0.00409772  0.71478600  0.99325300  1
  H  3574  1  0.02209070  0.70522000  0.97225100  1
  H  3582  1  0.75965500  0.75351300  0.60926100  1
  H  3584  1  0.74223400  0.73738800  0.54775900  1
  H  3586  1  0.73812300  0.77885900  0.62845400  1
  H  3587  1  0.72707700  0.79933300  0.61259100  1
  H  3588  1  0.70678700  0.77964500  0.62171300  1
  H  3590  1  0.68832600  0.77173800  0.54264100  1
  H  3591  1  0.71529500  0.76688500  0.52822500  1
  H  3592  1  0.69730300  0.74587900  0.53778900  1
  H  3600  1  0.25966100  0.76301300  0.36005400  1
  H  3602  1  0.24222300  0.77915800  0.42154600  1
  H  3604  1  0.23813300  0.73766300  0.34086500  1
  H  3605  1  0.22707600  0.71719600  0.35672900  1
  H  3606  1  0.20679600  0.73688300  0.34759700  1
  H  3608  1  0.18831400  0.74480500  0.42666600  1
  H  3609  1  0.21528100  0.74966200  0.44108200  1
  H  3610  1  0.19728600  0.77066500  0.43151700  1
  H  3618  1  0.50962100  0.13401900  0.97979000  1
  H  3620  1  0.49211400  0.19551200  0.96370200  1
  H  3622  1  0.48825300  0.11483500  0.00523100  1
  H  3623  1  0.47733900  0.13069500  0.02575700  1
  H  3624  1  0.45692600  0.12158100  0.00615800  1
  H  3626  1  0.43836100  0.20063000  0.99822800  1
  H  3627  1  0.46530400  0.21506700  0.99333200  1
  H  3628  1  0.44727000  0.20549100  0.97235900  1
  H  3636  1  0.00961672  0.38252600  0.98951100  1
  H  3638  1  0.99212300  0.32102300  0.00557500  1
  H  3640  1  0.98824800  0.40171200  0.96407100  1
  H  3641  1  0.97733200  0.38585400  0.94354400  1
  H  3642  1  0.95692200  0.39496500  0.96314400  1
  H  3644  1  0.93836900  0.31590800  0.97105100  1
  H  3645  1  0.96531900  0.30147700  0.97593600  1
  H  3646  1  0.94728300  0.31103500  0.99691500  1
  H  3654  1  0.70970300  0.76309300  0.86041300  1
  H  3656  1  0.72722500  0.77915800  0.92191200  1
  H  3658  1  0.73108400  0.73765200  0.84121900  1
  H  3659  1  0.74201600  0.71713300  0.85708200  1
  H  3660  1  0.76241600  0.73673700  0.84795900  1
  H  3662  1  0.78084000  0.74444900  0.92706500  1
  H  3663  1  0.75392800  0.74956700  0.94146100  1
  H  3664  1  0.77217500  0.77040100  0.93187000  1
  H  3672  1  0.20969800  0.75344900  0.10888900  1
  H  3674  1  0.22722600  0.73737800  0.04739300  1
  H  3676  1  0.23107800  0.77889400  0.12808000  1
  H  3677  1  0.24201400  0.79940900  0.11221600  1
  H  3678  1  0.26241000  0.77980400  0.12134400  1
  H  3680  1  0.28084000  0.77208700  0.04223800  1
  H  3681  1  0.25392600  0.76697400  0.02784400  1
  H  3682  1  0.27217300  0.74613800  0.03742900  1
  H  3690  1  0.95965200  0.38281000  0.48931800  1
  H  3692  1  0.97710300  0.32131500  0.50547600  1
  H  3694  1  0.98123000  0.40200400  0.46397800  1
  H  3695  1  0.99232800  0.38612600  0.44353600  1
  H  3696  1  0.01257170  0.39528100  0.46324100  1
  H  3698  1  0.03084270  0.31613300  0.47089500  1
  H  3699  1  0.00392872  0.30177300  0.47607900  1
  H  3700  1  0.02221570  0.31138400  0.49687700  1
  H  3708  1  0.45966600  0.13370800  0.47996800  1
  H  3710  1  0.47709900  0.19520900  0.46382600  1
  H  3712  1  0.48124200  0.11451600  0.50530900  1
  H  3713  1  0.49233400  0.13039500  0.52575300  1
  H  3714  1  0.51258400  0.12124300  0.50605000  1
  H  3716  1  0.53083700  0.20039600  0.49840400  1
  H  3717  1  0.50391500  0.21475000  0.49323300  1
  H  3718  1  0.52220200  0.20515500  0.47242700  1
  H  3726  1  0.25964100  0.25344000  0.10900400  1
  H  3728  1  0.24215100  0.23734000  0.04751000  1
  H  3730  1  0.23822800  0.27885400  0.12819200  1
  H  3731  1  0.22727200  0.29936400  0.11233300  1
  H  3732  1  0.20689800  0.27973900  0.12145000  1
  H  3734  1  0.18832400  0.27178000  0.04240700  1
  H  3735  1  0.21527900  0.26694200  0.02796500  1
  H  3736  1  0.19730000  0.24593100  0.03753300  1
  H  3744  1  0.75964400  0.26309400  0.86028700  1
  H  3746  1  0.74215000  0.27920200  0.92177800  1
  H  3748  1  0.73823600  0.23767700  0.84110100  1
  H  3749  1  0.72727500  0.21716800  0.85696000  1
  H  3750  1  0.70690500  0.23679500  0.84784000  1
  H  3752  1  0.68832400  0.24476200  0.92688200  1
  H  3753  1  0.71528200  0.24959400  0.94132200  1
  H  3754  1  0.69730300  0.27060700  0.93176100  1
  H  3762  1  0.00967172  0.63395600  0.47982900  1
  H  3764  1  0.99214700  0.69545300  0.46376000  1
  H  3766  1  0.98829500  0.61476500  0.50527600  1
  H  3767  1  0.97737300  0.63062900  0.52579600  1
  H  3768  1  0.95696600  0.62150700  0.50619700  1
  H  3770  1  0.93854700  0.70061400  0.49848400  1
  H  3771  1  0.96545500  0.71500900  0.49335000  1
  H  3772  1  0.94719700  0.70540900  0.47252900  1
  H  3780  1  0.50965700  0.88259900  0.48948300  1
  H  3782  1  0.49215200  0.82109400  0.50553400  1
  H  3784  1  0.48828000  0.90178800  0.46403500  1
  H  3785  1  0.47736100  0.88592400  0.44351400  1
  H  3786  1  0.45695000  0.89504300  0.46311200  1
  H  3788  1  0.43855500  0.81592600  0.47080800  1
  H  3789  1  0.46547100  0.80154100  0.47593600  1
  H  3790  1  0.44720700  0.81112400  0.49676200  1
  H  3798  1  0.34267800  0.13138300  0.21638700  1
  H  3800  1  0.39331600  0.18045900  0.21575600  1
  H  3802  1  0.32618000  0.11725200  0.24728900  1
  H  3803  1  0.32306800  0.13629100  0.26704100  1
  H  3804  1  0.34720200  0.11770800  0.26822300  1
  H  3806  1  0.39492600  0.18886400  0.27281300  1
  H  3807  1  0.39192900  0.20307300  0.24949500  1
  H  3808  1  0.41665100  0.18536600  0.25270700  1
  H  3816  1  0.84267700  0.38515900  0.75291400  1
  H  3818  1  0.89332200  0.33608600  0.75353100  1
  H  3820  1  0.82617300  0.39929100  0.72201300  1
  H  3821  1  0.82306000  0.38025500  0.70226100  1
  H  3822  1  0.84719000  0.39884000  0.70107600  1
  H  3824  1  0.89494000  0.32770400  0.69646700  1
  H  3825  1  0.89194000  0.31348100  0.71977800  1
  H  3826  1  0.91665700  0.33119800  0.71658100  1
  H  3834  1  0.59284100  0.02661500  0.85763900  1
  H  3836  1  0.64323300  0.02732300  0.90689100  1
  H  3838  1  0.57646500  0.99569900  0.84345400  1
  H  3839  1  0.57329700  0.97594100  0.86247700  1
  H  3840  1  0.59751900  0.97479000  0.84397700  1
  H  3842  1  0.64473600  0.97030000  0.91546200  1
  H  3843  1  0.64178900  0.99369700  0.92953200  1
  H  3844  1  0.66657400  0.99031700  0.91191800  1
  H  3852  1  0.09282570  0.48991800  0.11163500  1
  H  3854  1  0.14323500  0.48921400  0.06239200  1
  H  3856  1  0.07646070  0.52083500  0.12582900  1
  H  3857  1  0.07329070  0.54059500  0.10680900  1
  H  3858  1  0.09751870  0.54174100  0.12530400  1
  H  3860  1  0.14473900  0.54623600  0.05382300  1
  H  3861  1  0.14181100  0.52283600  0.03975600  1
  H  3862  1  0.16657900  0.52622300  0.05738500  1
  H  3870  1  0.12664600  0.38517900  0.21586700  1
  H  3872  1  0.07595170  0.33614300  0.21517700  1
  H  3874  1  0.14324200  0.39919800  0.24679000  1
  H  3875  1  0.14638600  0.38009300  0.26647500  1
  H  3876  1  0.12227000  0.39868500  0.26776100  1
  H  3878  1  0.07443270  0.32761200  0.27222800  1
  H  3879  1  0.07740870  0.31342500  0.24888700  1
  H  3880  1  0.05270470  0.33114600  0.25213300  1
  H  3888  1  0.62662700  0.13135200  0.75343000  1
  H  3890  1  0.57594400  0.18039600  0.75412300  1
  H  3892  1  0.64322300  0.11733500  0.72250700  1
  H  3893  1  0.64637300  0.13644300  0.70282700  1
  H  3894  1  0.62225500  0.11785200  0.70153400  1
  H  3896  1  0.57443400  0.18893600  0.69707200  1
  H  3897  1  0.57739900  0.20311800  0.72041500  1
  H  3898  1  0.55269900  0.18539400  0.71716100  1
  H  3906  1  0.87649000  0.48942000  0.85759500  1
  H  3908  1  0.82607400  0.48864100  0.90683100  1
  H  3910  1  0.89295400  0.52035600  0.84351700  1
  H  3911  1  0.89616800  0.54004300  0.86260800  1
  H  3912  1  0.87195100  0.54130100  0.84410800  1
  H  3914  1  0.82469800  0.54564900  0.91556400  1
  H  3915  1  0.82760400  0.52221600  0.92958400  1
  H  3916  1  0.80283200  0.52566400  0.91197000  1
  H  3924  1  0.37650700  0.02712200  0.11169900  1
  H  3926  1  0.32607200  0.02789800  0.06247500  1
  H  3928  1  0.39296000  0.99618500  0.12578400  1
  H  3929  1  0.39617400  0.97649400  0.10669600  1
  H  3930  1  0.37195400  0.97524300  0.12519200  1
  H  3932  1  0.32468600  0.97088900  0.05374800  1
  H  3933  1  0.32757800  0.99432200  0.03972600  1
  H  3934  1  0.30282300  0.99087300  0.05735600  1
  H  3942  1  0.62671200  0.88510500  0.75305800  1
  H  3944  1  0.57603000  0.83607300  0.75375300  1
  H  3946  1  0.64312200  0.89927100  0.72214800  1
  H  3947  1  0.64617800  0.88025300  0.70237100  1
  H  3948  1  0.62205200  0.89884600  0.70124800  1
  H  3950  1  0.57448900  0.82751800  0.69672800  1
  H  3951  1  0.57733300  0.81344800  0.72013300  1
  H  3952  1  0.55265000  0.83116000  0.71672600  1
  H  3960  1  0.12670100  0.63143500  0.21623700  1
  H  3962  1  0.07602170  0.68047000  0.21555500  1
  H  3964  1  0.14311700  0.61726700  0.24714500  1
  H  3965  1  0.14617600  0.63628200  0.26692300  1
  H  3966  1  0.12204900  0.61768700  0.26804700  1
  H  3968  1  0.07447870  0.68900700  0.27258400  1
  H  3969  1  0.07732070  0.70308800  0.24918600  1
  H  3970  1  0.05264370  0.68536800  0.25258100  1
  H  3978  1  0.84270800  0.63142400  0.75357600  1
  H  3980  1  0.89344800  0.68041400  0.75433300  1
  H  3982  1  0.82619100  0.61737800  0.72264700  1
  H  3983  1  0.82310900  0.63646300  0.70293900  1
  H  3984  1  0.84721100  0.61785300  0.70171000  1
  H  3986  1  0.89490100  0.68909600  0.69731500  1
  H  3987  1  0.89206900  0.70314600  0.72073700  1
  H  3988  1  0.91674000  0.68542400  0.71730700  1
  H  3996  1  0.34270000  0.88510200  0.21572500  1
  H  3998  1  0.39345900  0.83612500  0.21497200  1
  H  4000  1  0.32619300  0.89915800  0.24665400  1
  H  4001  1  0.32310900  0.88007600  0.26636600  1
  H  4002  1  0.34721500  0.89868300  0.26758700  1
  H  4004  1  0.39492300  0.82745200  0.27199200  1
  H  4005  1  0.39210500  0.81339900  0.24857200  1
  H  4006  1  0.41675700  0.83113800  0.25200000  1
  H  4014  1  0.09248870  0.52661700  0.35791700  1
  H  4016  1  0.14341800  0.52732300  0.40676700  1
  H  4018  1  0.07597170  0.49569000  0.34385000  1
  H  4019  1  0.07299570  0.47594000  0.36290600  1
  H  4020  1  0.09702770  0.47477800  0.34422600  1
  H  4022  1  0.14514400  0.47026600  0.41520100  1
  H  4023  1  0.14219600  0.49359300  0.42940300  1
  H  4024  1  0.16683000  0.49038500  0.41160400  1
  H  4032  1  0.59251700  0.98992200  0.61136600  1
  H  4034  1  0.64343000  0.98921600  0.56250300  1
  H  4036  1  0.57600100  0.02085000  0.62543200  1
  H  4037  1  0.57301800  0.04059600  0.60637400  1
  H  4038  1  0.59705400  0.04176300  0.62505000  1
  H  4040  1  0.64515500  0.04627500  0.55407100  1
  H  4041  1  0.64220800  0.02294900  0.53986700  1
  H  4042  1  0.66684000  0.02615400  0.55766800  1
  H  4050  1  0.37682100  0.98940200  0.35788800  1
  H  4052  1  0.32587200  0.98862600  0.40672300  1
  H  4054  1  0.39342600  0.02034900  0.34393100  1
  H  4055  1  0.39643600  0.04003200  0.36305200  1
  H  4056  1  0.37241600  0.04129300  0.34436700  1
  H  4058  1  0.32424100  0.04567500  0.41529500  1
  H  4059  1  0.32717500  0.02232400  0.42946500  1
  H  4060  1  0.30254600  0.02557000  0.41166900  1
  H  4068  1  0.87686900  0.52714000  0.61139500  1
  H  4070  1  0.82585600  0.52790200  0.56260400  1
  H  4072  1  0.89347600  0.49619300  0.62535600  1
  H  4073  1  0.89646800  0.47650300  0.60624100  1
  H  4074  1  0.87246100  0.47525300  0.62493700  1
  H  4076  1  0.82418900  0.47084700  0.55407100  1
  H  4077  1  0.82711500  0.49418700  0.53987700  1
  H  4078  1  0.80251400  0.49096800  0.55770600  1
  H  4106  1  0.66565600  0.19375700  0.40482400  1
  H  4107  1  0.63308200  0.18635700  0.38139800  1
  H  4108  1  0.64068300  0.14637600  0.44521600  1
  H  4109  1  0.60808300  0.13914800  0.42182300  1
  H  4110  1  0.56135800  0.15415200  0.41275400  1
  H  4111  1  0.52793000  0.17708200  0.41901000  1
  H  4112  1  0.55436000  0.21783500  0.37250300  1
  H  4113  1  0.58764100  0.19492200  0.36636400  1
  H  4114  1  0.56713700  0.15657100  0.34794000  1
  H  4115  1  0.57526900  0.15572800  0.31171200  1
  H  4116  1  0.65102600  0.15242900  0.32431100  1
  H  4117  1  0.64275700  0.15289900  0.36062200  1
  H  4118  1  0.62837100  0.12106900  0.38367500  1
  H  4119  1  0.55273100  0.13342800  0.37941500  1
  H  4120  1  0.54467400  0.09710800  0.37875200  1
  H  4121  1  0.62045300  0.08480000  0.38262000  1
  H  4124  1  0.50357400  0.20750200  0.40935200  1
  H  4125  1  0.68582700  0.18842200  0.43828600  1
  H  4127  1  0.63577700  0.14795600  0.28834800  1
  H  4129  1  0.56015200  0.06125400  0.37424000  1
  H  4155  1  0.16574500  0.32284300  0.56453000  1
  H  4156  1  0.13317300  0.33023800  0.58795600  1
  H  4157  1  0.14059900  0.37006000  0.52402400  1
  H  4158  1  0.10800100  0.37728600  0.54742200  1
  H  4159  1  0.06126910  0.36244900  0.55660500  1
  H  4160  1  0.02784310  0.33951900  0.55035800  1
  H  4161  1  0.05444310  0.29864900  0.59669200  1
  H  4162  1  0.08772410  0.32156800  0.60282600  1
  H  4163  1  0.06713810  0.35985500  0.62135300  1
  H  4164  1  0.07526110  0.36072500  0.65757800  1
  H  4165  1  0.15100000  0.36427600  0.64498400  1
  H  4166  1  0.14273400  0.36377500  0.60867500  1
  H  4167  1  0.12837500  0.39546400  0.58551200  1
  H  4168  1  0.05276510  0.38311300  0.59003300  1
  H  4169  1  0.04471310  0.41943200  0.59073600  1
  H  4170  1  0.12047400  0.43173100  0.58660100  1
  H  4173  1  0.00355708  0.30904300  0.55995500  1
  H  4174  1  0.18583100  0.32810300  0.53101000  1
  H  4176  1  0.13574200  0.36866300  0.68095000  1
  H  4178  1  0.06021710  0.45528600  0.59518400  1
  H  4204  1  0.91371900  0.83697900  0.92184800  1
  H  4205  1  0.88124700  0.86043100  0.91407800  1
  H  4206  1  0.89268400  0.79890800  0.87126900  1
  H  4207  1  0.86020800  0.82216400  0.86376300  1
  H  4208  1  0.81425900  0.82832400  0.88263300  1
  H  4209  1  0.78095700  0.82168200  0.90560500  1
  H  4210  1  0.80227500  0.87278900  0.94286200  1
  H  4211  1  0.83545200  0.87921400  0.92005200  1
  H  4212  1  0.81744500  0.89505100  0.88012200  1
  H  4213  1  0.82559200  0.93131800  0.87942600  1
  H  4214  1  0.90141900  0.91880200  0.88176200  1
  H  4215  1  0.89319500  0.88248100  0.88201200  1
  H  4216  1  0.87796800  0.86202200  0.84720700  1
  H  4217  1  0.80230400  0.85954500  0.86010700  1
  H  4218  1  0.79397200  0.85724000  0.82391300  1
  H  4219  1  0.86967100  0.86030300  0.81094700  1
  H  4222  1  0.75455200  0.83274400  0.93443800  1
  H  4223  1  0.93541600  0.80441600  0.91539600  1
  H  4225  1  0.88634600  0.95468100  0.87512200  1
  H  4227  1  0.80927400  0.85052400  0.78827400  1
  H  4253  1  0.41369700  0.67957600  0.04744100  1
  H  4254  1  0.38122900  0.65612100  0.05521200  1
  H  4255  1  0.39270000  0.71761700  0.09805300  1
  H  4256  1  0.36022800  0.69435900  0.10556200  1
  H  4257  1  0.31427100  0.68822200  0.08665700  1
  H  4258  1  0.28096900  0.69486100  0.06368400  1
  H  4259  1  0.30226100  0.64372700  0.02645300  1
  H  4260  1  0.33543800  0.63730300  0.04926400  1
  H  4261  1  0.31743900  0.62148500  0.08919900  1
  H  4262  1  0.32558700  0.58521500  0.08987200  1
  H  4263  1  0.40141300  0.59773100  0.08748200  1
  H  4264  1  0.39319100  0.63405100  0.08725700  1
  H  4265  1  0.37796900  0.65449000  0.12209900  1
  H  4266  1  0.30230700  0.65703400  0.10919200  1
  H  4267  1  0.29397500  0.65935200  0.14538500  1
  H  4268  1  0.36966900  0.65622400  0.15836000  1
  H  4271  1  0.25454700  0.68377800  0.03486900  1
  H  4272  1  0.43541000  0.71212600  0.05390600  1
  H  4274  1  0.38634300  0.56185200  0.09414900  1
  H  4276  1  0.30927600  0.66604100  0.18102600  1
  H  4302  1  0.27798100  0.32403400  0.40349800  1
  H  4303  1  0.31142300  0.33028700  0.38058900  1
  H  4304  1  0.30447300  0.37044700  0.44432900  1
  H  4305  1  0.33777300  0.37658300  0.42143300  1
  H  4306  1  0.38329200  0.36167100  0.41276900  1
  H  4307  1  0.41585200  0.33822600  0.42015800  1
  H  4308  1  0.39066000  0.29773100  0.37294900  1
  H  4309  1  0.35808300  0.32114800  0.36572600  1
  H  4310  1  0.37847500  0.35924400  0.34754500  1
  H  4311  1  0.37054400  0.36028800  0.31127800  1
  H  4312  1  0.29478500  0.36437000  0.32360900  1
  H  4313  1  0.30285900  0.36371400  0.35992300  1
  H  4314  1  0.31721500  0.39507500  0.38315300  1
  H  4315  1  0.39282100  0.38241000  0.37927100  1
  H  4316  1  0.40107700  0.41872100  0.37877400  1
  H  4317  1  0.32533300  0.43130500  0.38228800  1
  H  4320  1  0.43592000  0.30470200  0.41489200  1
  H  4321  1  0.25364100  0.33365500  0.43393000  1
  H  4323  1  0.31024900  0.36878800  0.28775200  1
  H  4325  1  0.38580800  0.45468300  0.37434700  1
  H  4351  1  0.77803800  0.19254200  0.56576100  1
  H  4352  1  0.81147900  0.18628700  0.58867000  1
  H  4353  1  0.80443200  0.14602900  0.52499600  1
  H  4354  1  0.83773200  0.13989100  0.54789000  1
  H  4355  1  0.88322700  0.15490900  0.55648000  1
  H  4356  1  0.91578500  0.17835500  0.54908000  1
  H  4357  1  0.89072500  0.21877000  0.59640700  1
  H  4358  1  0.85814900  0.19535600  0.60363800  1
  H  4359  1  0.87847500  0.15721100  0.62175500  1
  H  4360  1  0.87053900  0.15617400  0.65802200  1
  H  4361  1  0.79476900  0.15226400  0.64568400  1
  H  4362  1  0.80284600  0.15291100  0.60937100  1
  H  4363  1  0.81723100  0.12146600  0.58623700  1
  H  4364  1  0.89285100  0.13412400  0.58994000  1
  H  4365  1  0.90110400  0.09781100  0.59042100  1
  H  4366  1  0.82534600  0.08523600  0.58709000  1
  H  4369  1  0.93592000  0.21183600  0.55440000  1
  H  4370  1  0.75365400  0.18288100  0.53536100  1
  H  4372  1  0.81022500  0.14777700  0.68154200  1
  H  4374  1  0.88582100  0.06185600  0.59494100  1
  H  4400  1  0.02996610  0.67831200  0.92075200  1
  H  4401  1  0.06333210  0.65539100  0.91405100  1
  H  4402  1  0.05242810  0.71669000  0.87084000  1
  H  4403  1  0.08563010  0.69395000  0.86436400  1
  H  4404  1  0.13029800  0.68822200  0.88335200  1
  H  4405  1  0.16266500  0.69593700  0.90688300  1
  H  4406  1  0.14286200  0.64416100  0.94380400  1
  H  4407  1  0.11045300  0.63669100  0.92044500  1
  H  4408  1  0.12821600  0.62111200  0.88077000  1
  H  4409  1  0.12025800  0.58480400  0.87990000  1
  H  4410  1  0.04434910  0.59704300  0.88168300  1
  H  4411  1  0.05238410  0.63337000  0.88207800  1
  H  4412  1  0.06768910  0.65384100  0.84757500  1
  H  4413  1  0.14325200  0.65702200  0.86080200  1
  H  4414  1  0.15174400  0.65947700  0.82462200  1
  H  4415  1  0.07615310  0.65573700  0.81136500  1
  H  4418  1  0.18472400  0.68902700  0.93909900  1
  H  4419  1  0.00406108  0.70767800  0.91018400  1
  H  4421  1  0.05962910  0.56127400  0.87505100  1
  H  4423  1  0.13653500  0.66602700  0.78890300  1
  H  4449  1  0.52997500  0.83821900  0.04853900  1
  H  4450  1  0.56334400  0.86114000  0.05524100  1
  H  4451  1  0.55241200  0.79985900  0.09847200  1
  H  4452  1  0.58561800  0.82259500  0.10494600  1
  H  4453  1  0.63028000  0.82831300  0.08593900  1
  H  4454  1  0.66264400  0.82059500  0.06240900  1
  H  4455  1  0.64287600  0.87239400  0.02550600  1
  H  4456  1  0.61046900  0.87986900  0.04886500  1
  H  4457  1  0.62821000  0.89542100  0.08854800  1
  H  4458  1  0.62025900  0.93173100  0.08941900  1
  H  4459  1  0.54434800  0.91950500  0.08760600  1
  H  4460  1  0.55237600  0.88317500  0.08720900  1
  H  4461  1  0.56769000  0.86272500  0.12172600  1
  H  4462  1  0.64325000  0.85949500  0.10850000  1
  H  4463  1  0.65173900  0.85702900  0.14467900  1
  H  4464  1  0.57615000  0.86082100  0.15793500  1
  H  4467  1  0.68469800  0.82750100  0.03018700  1
  H  4468  1  0.50405800  0.80885900  0.05911500  1
  H  4470  1  0.55963900  0.95527100  0.09426300  1
  H  4472  1  0.63651400  0.85047000  0.18039800  1
  H  4498  1  0.78207300  0.82112600  0.56335400  1
  H  4499  1  0.81455100  0.82887000  0.58680900  1
  H  4500  1  0.80307300  0.87176500  0.52535000  1
  H  4501  1  0.83555600  0.87924400  0.54860500  1
  H  4502  1  0.88151800  0.86028400  0.55474300  1
  H  4503  1  0.91482800  0.83730900  0.54812300  1
  H  4504  1  0.89353700  0.80011500  0.59928100  1
  H  4505  1  0.86035400  0.82292500  0.60568300  1
  H  4506  1  0.87833100  0.86288100  0.62147400  1
  H  4507  1  0.87018000  0.86355600  0.65774400  1
  H  4508  1  0.79435900  0.86109500  0.64522400  1
  H  4509  1  0.80258200  0.86086600  0.60890300  1
  H  4510  1  0.81781900  0.89574900  0.58848900  1
  H  4511  1  0.89348200  0.88285800  0.58589200  1
  H  4512  1  0.90180000  0.91905400  0.58356800  1
  H  4513  1  0.82610500  0.93201000  0.58675400  1
  H  4516  1  0.94124700  0.80849700  0.55921900  1
  H  4517  1  0.76033600  0.82762700  0.53082600  1
  H  4519  1  0.80942500  0.86778700  0.68110600  1
  H  4521  1  0.88649400  0.95469000  0.57691400  1
  H  4547  1  0.28204500  0.69540100  0.40593000  1
  H  4548  1  0.31451600  0.68765300  0.38247100  1
  H  4549  1  0.30311500  0.64481800  0.44397900  1
  H  4550  1  0.33559000  0.63733400  0.42071700  1
  H  4551  1  0.38155000  0.65622400  0.41453500  1
  H  4552  1  0.41485700  0.67920100  0.42115900  1
  H  4553  1  0.39349100  0.71645500  0.37006600  1
  H  4554  1  0.36031300  0.69363900  0.36366100  1
  H  4555  1  0.37833200  0.65369800  0.34782800  1
  H  4556  1  0.37018500  0.65300800  0.31155900  1
  H  4557  1  0.29436000  0.65537100  0.32407500  1
  H  4558  1  0.30258200  0.65561600  0.36039700  1
  H  4559  1  0.31780500  0.62079500  0.38085000  1
  H  4560  1  0.39347300  0.63367800  0.38334600  1
  H  4561  1  0.40179200  0.59748200  0.38565200  1
  H  4562  1  0.32609100  0.58453200  0.38256900  1
  H  4565  1  0.44124400  0.70804000  0.41008800  1
  H  4566  1  0.26035500  0.68893200  0.43849100  1
  H  4568  1  0.30943900  0.64870700  0.28819200  1
  H  4570  1  0.38649000  0.56184400  0.39234000  1
  H  4596  1  0.53416700  0.18108000  0.04625800  1
  H  4597  1  0.56648800  0.15755500  0.05419600  1
  H  4598  1  0.55175100  0.21672800  0.09948400  1
  H  4599  1  0.58410500  0.19348500  0.10712700  1
  H  4600  1  0.63066300  0.18881400  0.08617400  1
  H  4601  1  0.66391200  0.19572500  0.06319600  1
  H  4602  1  0.64475800  0.14310100  0.02722700  1
  H  4603  1  0.61164500  0.13646200  0.04993100  1
  H  4604  1  0.62785100  0.12118800  0.09073600  1
  H  4605  1  0.61948000  0.08495200  0.08874900  1
  H  4606  1  0.54416700  0.09820400  0.08203600  1
  H  4607  1  0.55252600  0.13437700  0.08460700  1
  H  4608  1  0.56811200  0.15296200  0.12217800  1
  H  4609  1  0.64358900  0.15840500  0.10936200  1
  H  4610  1  0.65175900  0.16081800  0.14555500  1
  H  4611  1  0.57629300  0.15476000  0.15846900  1
  H  4614  1  0.69110900  0.18436100  0.03487700  1
  H  4615  1  0.51125500  0.21279200  0.05362100  1
  H  4617  1  0.55950200  0.06247200  0.07651300  1
  H  4619  1  0.63631300  0.16642000  0.18120700  1
  H  4645  1  0.03417910  0.33544600  0.92304000  1
  H  4646  1  0.06649510  0.35897400  0.91510000  1
  H  4647  1  0.05174610  0.29981700  0.86979700  1
  H  4648  1  0.08409510  0.32306300  0.86215400  1
  H  4649  1  0.13066200  0.32772600  0.88312100  1
  H  4650  1  0.16391200  0.32082000  0.90609900  1
  H  4651  1  0.14476600  0.37345300  0.94205700  1
  H  4652  1  0.11165100  0.38008900  0.91935300  1
  H  4653  1  0.12784800  0.39535700  0.87855200  1
  H  4654  1  0.11947000  0.43159400  0.88054200  1
  H  4655  1  0.04416210  0.41833300  0.88727800  1
  H  4656  1  0.05252510  0.38216200  0.88470200  1
  H  4657  1  0.06810910  0.36359100  0.84711200  1
  H  4658  1  0.14358200  0.35811500  0.85993300  1
  H  4659  1  0.15175500  0.35569600  0.82374100  1
  H  4660  1  0.07629410  0.36178700  0.81082000  1
  H  4663  1  0.19112100  0.33219800  0.93440600  1
  H  4664  1  0.01126210  0.30374000  0.91566900  1
  H  4666  1  0.05947910  0.45407100  0.89275800  1
  H  4668  1  0.13631100  0.35011300  0.78808800  1
  H  4694  1  0.16586000  0.69430900  0.56463300  1
  H  4695  1  0.13249600  0.68762700  0.58756300  1
  H  4696  1  0.14334200  0.64441500  0.52625900  1
  H  4697  1  0.11014000  0.63795900  0.54900600  1
  H  4698  1  0.06546910  0.65694700  0.55476600  1
  H  4699  1  0.03310010  0.68048300  0.54707400  1
  H  4700  1  0.05297010  0.71741000  0.59882400  1
  H  4701  1  0.08538110  0.69404400  0.60627200  1
  H  4702  1  0.06758710  0.65435300  0.62185400  1
  H  4703  1  0.07554310  0.65349500  0.65816600  1
  H  4704  1  0.15144700  0.65527000  0.64593200  1
  H  4705  1  0.14341900  0.65565500  0.60960500  1
  H  4706  1  0.12812800  0.62117000  0.58913900  1
  H  4707  1  0.05256310  0.63437200  0.58594400  1
  H  4708  1  0.04408910  0.59819000  0.58348300  1
  H  4709  1  0.11968300  0.58495700  0.58723900  1
  H  4712  1  0.01107810  0.71272300  0.55397800  1
  H  4713  1  0.19173700  0.68374200  0.53525200  1
  H  4715  1  0.13614700  0.64859300  0.68169600  1
  H  4717  1  0.05930410  0.56247400  0.57694700  1
  H  4743  1  0.66585900  0.82223900  0.40466900  1
  H  4744  1  0.63249400  0.82891400  0.38174100  1
  H  4745  1  0.64334100  0.87213500  0.44304000  1
  H  4746  1  0.61013700  0.87858800  0.42029300  1
  H  4747  1  0.56548100  0.85958100  0.41454700  1
  H  4748  1  0.53311400  0.83604400  0.42224300  1
  H  4749  1  0.55294900  0.79913600  0.37046800  1
  H  4750  1  0.58535800  0.82250100  0.36301900  1
  H  4751  1  0.56758400  0.86219600  0.34744600  1
  H  4752  1  0.57554000  0.86305500  0.31113700  1
  H  4753  1  0.65144400  0.86125700  0.32337400  1
  H  4754  1  0.64341500  0.86087000  0.35970000  1
  H  4755  1  0.62811300  0.89536900  0.38015600  1
  H  4756  1  0.55255000  0.88216100  0.38336700  1
  H  4757  1  0.54407300  0.91834300  0.38582600  1
  H  4758  1  0.61966400  0.93158200  0.38205300  1
  H  4761  1  0.51106700  0.80382300  0.41532500  1
  H  4762  1  0.69174200  0.83281500  0.43404600  1
  H  4764  1  0.63614200  0.86795100  0.28760800  1
  H  4766  1  0.55928000  0.95405900  0.39234400  1
  H  4792  1  0.41377400  0.33670600  0.04726500  1
  H  4793  1  0.38050900  0.35966400  0.05417600  1
  H  4794  1  0.39472600  0.30078600  0.09995100  1
  H  4795  1  0.36159300  0.32346900  0.10659000  1
  H  4796  1  0.31636300  0.32772300  0.08546000  1
  H  4797  1  0.28404800  0.31979200  0.06192500  1
  H  4798  1  0.30165900  0.37301800  0.02628800  1
  H  4799  1  0.33400300  0.38065300  0.04953800  1
  H  4800  1  0.31804000  0.39571300  0.09006400  1
  H  4801  1  0.32625600  0.43200000  0.08822400  1
  H  4802  1  0.40170400  0.41902600  0.08210200  1
  H  4803  1  0.39350000  0.38284100  0.08455700  1
  H  4804  1  0.37777000  0.36427200  0.12181300  1
  H  4805  1  0.30243700  0.35810300  0.10866600  1
  H  4806  1  0.29410700  0.35555700  0.14484500  1
  H  4807  1  0.36942500  0.36231000  0.15805400  1
  H  4810  1  0.26112500  0.32717300  0.03022200  1
  H  4811  1  0.44103900  0.30844800  0.05866400  1
  H  4813  1  0.38626400  0.45467800  0.07644900  1
  H  4815  1  0.30944600  0.35012800  0.18058100  1
  H  4841  1  0.91377400  0.17983400  0.92203200  1
  H  4842  1  0.88050600  0.15687400  0.91512100  1
  H  4843  1  0.89473000  0.21574800  0.86934200  1
  H  4844  1  0.86159500  0.19306700  0.86270600  1
  H  4845  1  0.81636600  0.18880900  0.88383300  1
  H  4846  1  0.78405200  0.19674000  0.90736700  1
  H  4847  1  0.80165500  0.14351200  0.94300500  1
  H  4848  1  0.83399900  0.13587200  0.91975500  1
  H  4849  1  0.81804700  0.12082100  0.87923300  1
  H  4850  1  0.82626600  0.08453500  0.88106200  1
  H  4851  1  0.90171400  0.09751100  0.88717200  1
  H  4852  1  0.89350900  0.13369500  0.88472800  1
  H  4853  1  0.87776500  0.15225300  0.84747900  1
  H  4854  1  0.80243700  0.15843600  0.86063600  1
  H  4855  1  0.79410000  0.16098300  0.82445800  1
  H  4856  1  0.86941400  0.15421400  0.81123800  1
  H  4859  1  0.76114000  0.18936800  0.93907800  1
  H  4860  1  0.94104000  0.20809300  0.91063200  1
  H  4862  1  0.88629100  0.06185500  0.89279800  1
  H  4864  1  0.80942900  0.16639900  0.78871900  1
  H  4870  1  0.44787000  0.26297300  0.36020100  1
  H  4872  1  0.46532700  0.27909200  0.42170300  1
  H  4874  1  0.46941200  0.23761200  0.34100700  1
  H  4875  1  0.48047000  0.21715400  0.35688400  1
  H  4876  1  0.50075200  0.23683400  0.34773500  1
  H  4878  1  0.51901000  0.24444900  0.42688900  1
  H  4879  1  0.49209800  0.24965600  0.44124200  1
  H  4880  1  0.51042000  0.27043900  0.43164600  1
  H  4888  1  0.94786700  0.25357300  0.60908300  1
  H  4890  1  0.96533900  0.23743700  0.54758900  1
  H  4892  1  0.96940500  0.27893900  0.62827400  1
  H  4893  1  0.98047400  0.29939200  0.61239600  1
  H  4894  1  0.00074808  0.27970900  0.62155200  1
  H  4896  1  0.01901610  0.27208800  0.54240100  1
  H  4897  1  0.99210600  0.26687300  0.52804800  1
  H  4898  1  0.01043710  0.24609500  0.53764500  1
  H  4906  1  0.69792900  0.88278300  0.98939900  1
  H  4908  1  0.71536400  0.82128800  0.00555100  1
  H  4910  1  0.71946200  0.90197200  0.96405300  1
  H  4911  1  0.73051700  0.88610800  0.94358500  1
  H  4912  1  0.75079900  0.89523600  0.96327400  1
  H  4914  1  0.76927400  0.81616500  0.97120000  1
  H  4915  1  0.74231400  0.80174500  0.97606800  1
  H  4916  1  0.76030900  0.81132500  0.99706300  1
  H  4924  1  0.19793000  0.63375000  0.97989700  1
  H  4926  1  0.21535600  0.69525100  0.96376200  1
  H  4928  1  0.21946400  0.61455900  0.00524200  1
  H  4929  1  0.23052100  0.63042200  0.02571100  1
  H  4930  1  0.25080100  0.62129300  0.00602000  1
  H  4932  1  0.26927000  0.70036900  0.99810900  1
  H  4933  1  0.24230500  0.71478600  0.99325300  1
  H  4934  1  0.26029800  0.70522000  0.97225100  1
  H  4942  1  0.99786200  0.75351300  0.60926100  1
  H  4944  1  0.98044100  0.73738800  0.54775900  1
  H  4946  1  0.97633000  0.77885900  0.62845400  1
  H  4947  1  0.96528400  0.79933300  0.61259100  1
  H  4948  1  0.94499400  0.77964500  0.62171300  1
  H  4950  1  0.92653300  0.77173800  0.54264100  1
  H  4951  1  0.95350200  0.76688500  0.52822500  1
  H  4952  1  0.93551000  0.74587900  0.53778900  1
  H  4960  1  0.49786800  0.76301300  0.36005400  1
  H  4962  1  0.48043000  0.77915800  0.42154600  1
  H  4964  1  0.47634000  0.73766300  0.34086500  1
  H  4965  1  0.46528300  0.71719600  0.35672900  1
  H  4966  1  0.44500300  0.73688300  0.34759700  1
  H  4968  1  0.42652100  0.74480500  0.42666600  1
  H  4969  1  0.45348800  0.74966200  0.44108200  1
  H  4970  1  0.43549300  0.77066500  0.43151700  1
  H  4978  1  0.74782800  0.13401900  0.97979000  1
  H  4980  1  0.73032100  0.19551200  0.96370200  1
  H  4982  1  0.72646000  0.11483500  0.00523100  1
  H  4983  1  0.71554600  0.13069500  0.02575700  1
  H  4984  1  0.69513300  0.12158100  0.00615800  1
  H  4986  1  0.67656800  0.20063000  0.99822800  1
  H  4987  1  0.70351100  0.21506700  0.99333200  1
  H  4988  1  0.68547700  0.20549100  0.97235900  1
  H  4996  1  0.24782400  0.38252600  0.98951100  1
  H  4998  1  0.23033000  0.32102300  0.00557500  1
  H  5000  1  0.22645500  0.40171200  0.96407100  1
  H  5001  1  0.21553900  0.38585400  0.94354400  1
  H  5002  1  0.19512900  0.39496500  0.96314400  1
  H  5004  1  0.17657600  0.31590800  0.97105100  1
  H  5005  1  0.20352600  0.30147700  0.97593600  1
  H  5006  1  0.18549000  0.31103500  0.99691500  1
  H  5014  1  0.94791000  0.76309300  0.86041300  1
  H  5016  1  0.96543200  0.77915800  0.92191200  1
  H  5018  1  0.96929100  0.73765200  0.84121900  1
  H  5019  1  0.98022300  0.71713300  0.85708200  1
  H  5020  1  0.00062308  0.73673700  0.84795900  1
  H  5022  1  0.01904710  0.74444900  0.92706500  1
  H  5023  1  0.99213500  0.74956700  0.94146100  1
  H  5024  1  0.01038210  0.77040100  0.93187000  1
  H  5032  1  0.44790500  0.75344900  0.10888900  1
  H  5034  1  0.46543300  0.73737800  0.04739300  1
  H  5036  1  0.46928500  0.77889400  0.12808000  1
  H  5037  1  0.48022100  0.79940900  0.11221600  1
  H  5038  1  0.50061700  0.77980400  0.12134400  1
  H  5040  1  0.51904700  0.77208700  0.04223800  1
  H  5041  1  0.49213300  0.76697400  0.02784400  1
  H  5042  1  0.51038000  0.74613800  0.03742900  1
  H  5050  1  0.19785900  0.38281000  0.48931800  1
  H  5052  1  0.21531000  0.32131500  0.50547600  1
  H  5054  1  0.21943700  0.40200400  0.46397800  1
  H  5055  1  0.23053500  0.38612600  0.44353600  1
  H  5056  1  0.25077900  0.39528100  0.46324100  1
  H  5058  1  0.26905000  0.31613300  0.47089500  1
  H  5059  1  0.24213600  0.30177300  0.47607900  1
  H  5060  1  0.26042300  0.31138400  0.49687700  1
  H  5068  1  0.69787300  0.13370800  0.47996800  1
  H  5070  1  0.71530600  0.19520900  0.46382600  1
  H  5072  1  0.71944900  0.11451600  0.50530900  1
  H  5073  1  0.73054100  0.13039500  0.52575300  1
  H  5074  1  0.75079100  0.12124300  0.50605000  1
  H  5076  1  0.76904400  0.20039600  0.49840400  1
  H  5077  1  0.74212200  0.21475000  0.49323300  1
  H  5078  1  0.76040900  0.20515500  0.47242700  1
  H  5086  1  0.49784800  0.25344000  0.10900400  1
  H  5088  1  0.48035800  0.23734000  0.04751000  1
  H  5090  1  0.47643500  0.27885400  0.12819200  1
  H  5091  1  0.46547900  0.29936400  0.11233300  1
  H  5092  1  0.44510500  0.27973900  0.12145000  1
  H  5094  1  0.42653100  0.27178000  0.04240700  1
  H  5095  1  0.45348600  0.26694200  0.02796500  1
  H  5096  1  0.43550700  0.24593100  0.03753300  1
  H  5104  1  0.99785100  0.26309400  0.86028700  1
  H  5106  1  0.98035700  0.27920200  0.92177800  1
  H  5108  1  0.97644300  0.23767700  0.84110100  1
  H  5109  1  0.96548200  0.21716800  0.85696000  1
  H  5110  1  0.94511200  0.23679500  0.84784000  1
  H  5112  1  0.92653100  0.24476200  0.92688200  1
  H  5113  1  0.95348900  0.24959400  0.94132200  1
  H  5114  1  0.93551000  0.27060700  0.93176100  1
  H  5122  1  0.24787900  0.63395600  0.47982900  1
  H  5124  1  0.23035400  0.69545300  0.46376000  1
  H  5126  1  0.22650200  0.61476500  0.50527600  1
  H  5127  1  0.21558000  0.63062900  0.52579600  1
  H  5128  1  0.19517300  0.62150700  0.50619700  1
  H  5130  1  0.17675400  0.70061400  0.49848400  1
  H  5131  1  0.20366200  0.71500900  0.49335000  1
  H  5132  1  0.18540400  0.70540900  0.47252900  1
  H  5140  1  0.74786400  0.88259900  0.48948300  1
  H  5142  1  0.73035900  0.82109400  0.50553400  1
  H  5144  1  0.72648700  0.90178800  0.46403500  1
  H  5145  1  0.71556800  0.88592400  0.44351400  1
  H  5146  1  0.69515700  0.89504300  0.46311200  1
  H  5148  1  0.67676200  0.81592600  0.47080800  1
  H  5149  1  0.70367800  0.80154100  0.47593600  1
  H  5150  1  0.68541400  0.81112400  0.49676200  1
  H  5158  1  0.58088500  0.13138300  0.21638700  1
  H  5160  1  0.63152300  0.18045900  0.21575600  1
  H  5162  1  0.56438700  0.11725200  0.24728900  1
  H  5163  1  0.56127500  0.13629100  0.26704100  1
  H  5164  1  0.58540900  0.11770800  0.26822300  1
  H  5166  1  0.63313300  0.18886400  0.27281300  1
  H  5167  1  0.63013600  0.20307300  0.24949500  1
  H  5168  1  0.65485800  0.18536600  0.25270700  1
  H  5176  1  0.08088410  0.38515900  0.75291400  1
  H  5178  1  0.13152900  0.33608600  0.75353100  1
  H  5180  1  0.06438010  0.39929100  0.72201300  1
  H  5181  1  0.06126710  0.38025500  0.70226100  1
  H  5182  1  0.08539710  0.39884000  0.70107600  1
  H  5184  1  0.13314700  0.32770400  0.69646700  1
  H  5185  1  0.13014700  0.31348100  0.71977800  1
  H  5186  1  0.15486400  0.33119800  0.71658100  1
  H  5194  1  0.83104800  0.02661500  0.85763900  1
  H  5196  1  0.88144000  0.02732300  0.90689100  1
  H  5198  1  0.81467200  0.99569900  0.84345400  1
  H  5199  1  0.81150400  0.97594100  0.86247700  1
  H  5200  1  0.83572600  0.97479000  0.84397700  1
  H  5202  1  0.88294300  0.97030000  0.91546200  1
  H  5203  1  0.87999600  0.99369700  0.92953200  1
  H  5204  1  0.90478100  0.99031700  0.91191800  1
  H  5212  1  0.33103300  0.48991800  0.11163500  1
  H  5214  1  0.38144200  0.48921400  0.06239200  1
  H  5216  1  0.31466800  0.52083500  0.12582900  1
  H  5217  1  0.31149800  0.54059500  0.10680900  1
  H  5218  1  0.33572600  0.54174100  0.12530400  1
  H  5220  1  0.38294600  0.54623600  0.05382300  1
  H  5221  1  0.38001800  0.52283600  0.03975600  1
  H  5222  1  0.40478600  0.52622300  0.05738500  1
  H  5230  1  0.36485300  0.38517900  0.21586700  1
  H  5232  1  0.31415900  0.33614300  0.21517700  1
  H  5234  1  0.38144900  0.39919800  0.24679000  1
  H  5235  1  0.38459300  0.38009300  0.26647500  1
  H  5236  1  0.36047700  0.39868500  0.26776100  1
  H  5238  1  0.31264000  0.32761200  0.27222800  1
  H  5239  1  0.31561600  0.31342500  0.24888700  1
  H  5240  1  0.29091200  0.33114600  0.25213300  1
  H  5248  1  0.86483400  0.13135200  0.75343000  1
  H  5250  1  0.81415100  0.18039600  0.75412300  1
  H  5252  1  0.88143000  0.11733500  0.72250700  1
  H  5253  1  0.88458000  0.13644300  0.70282700  1
  H  5254  1  0.86046200  0.11785200  0.70153400  1
  H  5256  1  0.81264100  0.18893600  0.69707200  1
  H  5257  1  0.81560600  0.20311800  0.72041500  1
  H  5258  1  0.79090600  0.18539400  0.71716100  1
  H  5266  1  0.11469700  0.48942000  0.85759500  1
  H  5268  1  0.06428110  0.48864100  0.90683100  1
  H  5270  1  0.13116100  0.52035600  0.84351700  1
  H  5271  1  0.13437500  0.54004300  0.86260800  1
  H  5272  1  0.11015800  0.54130100  0.84410800  1
  H  5274  1  0.06290510  0.54564900  0.91556400  1
  H  5275  1  0.06581110  0.52221600  0.92958400  1
  H  5276  1  0.04103910  0.52566400  0.91197000  1
  H  5284  1  0.61471400  0.02712200  0.11169900  1
  H  5286  1  0.56427900  0.02789800  0.06247500  1
  H  5288  1  0.63116700  0.99618500  0.12578400  1
  H  5289  1  0.63438100  0.97649400  0.10669600  1
  H  5290  1  0.61016100  0.97524300  0.12519200  1
  H  5292  1  0.56289300  0.97088900  0.05374800  1
  H  5293  1  0.56578500  0.99432200  0.03972600  1
  H  5294  1  0.54103000  0.99087300  0.05735600  1
  H  5302  1  0.86491900  0.88510500  0.75305800  1
  H  5304  1  0.81423700  0.83607300  0.75375300  1
  H  5306  1  0.88132900  0.89927100  0.72214800  1
  H  5307  1  0.88438500  0.88025300  0.70237100  1
  H  5308  1  0.86025900  0.89884600  0.70124800  1
  H  5310  1  0.81269600  0.82751800  0.69672800  1
  H  5311  1  0.81554000  0.81344800  0.72013300  1
  H  5312  1  0.79085700  0.83116000  0.71672600  1
  H  5320  1  0.36490800  0.63143500  0.21623700  1
  H  5322  1  0.31422900  0.68047000  0.21555500  1
  H  5324  1  0.38132400  0.61726700  0.24714500  1
  H  5325  1  0.38438300  0.63628200  0.26692300  1
  H  5326  1  0.36025600  0.61768700  0.26804700  1
  H  5328  1  0.31268600  0.68900700  0.27258400  1
  H  5329  1  0.31552800  0.70308800  0.24918600  1
  H  5330  1  0.29085100  0.68536800  0.25258100  1
  H  5338  1  0.08091510  0.63142400  0.75357600  1
  H  5340  1  0.13165500  0.68041400  0.75433300  1
  H  5342  1  0.06439810  0.61737800  0.72264700  1
  H  5343  1  0.06131610  0.63646300  0.70293900  1
  H  5344  1  0.08541810  0.61785300  0.70171000  1
  H  5346  1  0.13310800  0.68909600  0.69731500  1
  H  5347  1  0.13027600  0.70314600  0.72073700  1
  H  5348  1  0.15494700  0.68542400  0.71730700  1
  H  5356  1  0.58090700  0.88510200  0.21572500  1
  H  5358  1  0.63166600  0.83612500  0.21497200  1
  H  5360  1  0.56440000  0.89915800  0.24665400  1
  H  5361  1  0.56131600  0.88007600  0.26636600  1
  H  5362  1  0.58542200  0.89868300  0.26758700  1
  H  5364  1  0.63313000  0.82745200  0.27199200  1
  H  5365  1  0.63031200  0.81339900  0.24857200  1
  H  5366  1  0.65496400  0.83113800  0.25200000  1
  H  5374  1  0.33069600  0.52661700  0.35791700  1
  H  5376  1  0.38162500  0.52732300  0.40676700  1
  H  5378  1  0.31417900  0.49569000  0.34385000  1
  H  5379  1  0.31120300  0.47594000  0.36290600  1
  H  5380  1  0.33523500  0.47477800  0.34422600  1
  H  5382  1  0.38335100  0.47026600  0.41520100  1
  H  5383  1  0.38040300  0.49359300  0.42940300  1
  H  5384  1  0.40503700  0.49038500  0.41160400  1
  H  5392  1  0.83072400  0.98992200  0.61136600  1
  H  5394  1  0.88163700  0.98921600  0.56250300  1
  H  5396  1  0.81420800  0.02085000  0.62543200  1
  H  5397  1  0.81122500  0.04059600  0.60637400  1
  H  5398  1  0.83526100  0.04176300  0.62505000  1
  H  5400  1  0.88336200  0.04627500  0.55407100  1
  H  5401  1  0.88041500  0.02294900  0.53986700  1
  H  5402  1  0.90504700  0.02615400  0.55766800  1
  H  5410  1  0.61502800  0.98940200  0.35788800  1
  H  5412  1  0.56407900  0.98862600  0.40672300  1
  H  5414  1  0.63163300  0.02034900  0.34393100  1
  H  5415  1  0.63464300  0.04003200  0.36305200  1
  H  5416  1  0.61062300  0.04129300  0.34436700  1
  H  5418  1  0.56244800  0.04567500  0.41529500  1
  H  5419  1  0.56538200  0.02232400  0.42946500  1
  H  5420  1  0.54075300  0.02557000  0.41166900  1
  H  5428  1  0.11507600  0.52714000  0.61139500  1
  H  5430  1  0.06406310  0.52790200  0.56260400  1
  H  5432  1  0.13168300  0.49619300  0.62535600  1
  H  5433  1  0.13467500  0.47650300  0.60624100  1
  H  5434  1  0.11066800  0.47525300  0.62493700  1
  H  5436  1  0.06239610  0.47084700  0.55407100  1
  H  5437  1  0.06532210  0.49418700  0.53987700  1
  H  5438  1  0.04072110  0.49096800  0.55770600  1
  C  1  1  0.86700500  0.08700200  0.38124600  1
  C  2  1  0.84785400  0.10190300  0.38042400  1
  C  3  1  0.85264700  0.12355700  0.38118800  1
  C  4  1  0.87676100  0.13166100  0.38328600  1
  C  5  1  0.89581900  0.11643100  0.38334500  1
  C  6  1  0.89118700  0.09480000  0.38265500  1
  C  7  1  0.88303500  0.15510300  0.38210000  1
  C  8  1  0.88944300  0.15636000  0.35868800  1
  C  9  1  0.91363400  0.15454200  0.35068600  1
  C  10  1  0.91855500  0.15389700  0.32904400  1
  C  11  1  0.89947700  0.15462800  0.31406700  1
  C  12  1  0.87523800  0.15583600  0.32176900  1
  C  13  1  0.87047400  0.15637000  0.34337900  1
  C  14  1  0.86263200  0.17086100  0.38755100  1
  C  15  1  0.90331200  0.16069300  0.39791300  1
  C  16  1  0.91991700  0.17743000  0.39457600  1
  C  17  1  0.93925000  0.18188100  0.40857700  1
  C  18  1  0.94272600  0.17033200  0.42725400  1
  C  19  1  0.92507700  0.15474600  0.43161700  1
  C  20  1  0.90572500  0.15044700  0.41758000  1
  C  21  1  0.84549000  0.16737100  0.40386300  1
  C  22  1  0.82566000  0.18108200  0.40764700  1
  C  23  1  0.82232000  0.19969300  0.39596000  1
  C  24  1  0.84072000  0.20438200  0.38110500  1
  C  25  1  0.86045700  0.19058500  0.37738500  1
  C  42  1  0.96236700  0.17508100  0.44073000  1
  C  43  1  0.86191700  0.06562700  0.37951200  1
  C  46  1  0.90467900  0.15303500  0.29270100  1
  C  48  1  0.80155700  0.21240300  0.39923400  1
  C  50  1  0.36703200  0.42953700  0.58809700  1
  C  51  1  0.34788400  0.41463700  0.58898700  1
  C  52  1  0.35267200  0.39298300  0.58818600  1
  C  53  1  0.37677100  0.38487000  0.58599000  1
  C  54  1  0.39582700  0.40010200  0.58589000  1
  C  55  1  0.39120300  0.42173400  0.58659400  1
  C  56  1  0.38303600  0.36142900  0.58718900  1
  C  57  1  0.38944000  0.36016100  0.61060000  1
  C  58  1  0.41361600  0.36208400  0.61861000  1
  C  59  1  0.41853600  0.36274400  0.64025200  1
  C  60  1  0.39946300  0.36194600  0.65522700  1
  C  61  1  0.37523200  0.36066100  0.64752300  1
  C  62  1  0.37047300  0.36011000  0.62591100  1
  C  63  1  0.36262700  0.34568000  0.58173100  1
  C  64  1  0.40332000  0.35583300  0.57138800  1
  C  65  1  0.41997300  0.33913700  0.57475500  1
  C  66  1  0.43930000  0.33468200  0.56075200  1
  C  67  1  0.44272900  0.34618900  0.54204200  1
  C  68  1  0.42502800  0.36172400  0.53764400  1
  C  69  1  0.40567800  0.36602200  0.55168600  1
  C  70  1  0.34543700  0.34920500  0.56546400  1
  C  71  1  0.32560600  0.33549400  0.56168400  1
  C  72  1  0.32231500  0.31684800  0.57332700  1
  C  73  1  0.34076500  0.31212900  0.58812800  1
  C  74  1  0.36050500  0.32592400  0.59184000  1
  C  91  1  0.46236800  0.34144200  0.52856500  1
  C  92  1  0.36195600  0.45091100  0.58985400  1
  C  95  1  0.40465800  0.36354900  0.67659500  1
  C  97  1  0.30155000  0.30414000  0.57006300  1
  C  99  1  0.11630300  0.85825500  0.81354900  1
  C  100  1  0.09728300  0.85797400  0.82859000  1
  C  101  1  0.10229800  0.85893500  0.85019100  1
  C  102  1  0.12659900  0.85955300  0.85810000  1
  C  103  1  0.14541900  0.86081000  0.84269300  1
  C  104  1  0.14056000  0.85994000  0.82110200  1
  C  105  1  0.13316600  0.86098800  0.88147300  1
  C  106  1  0.13966700  0.88439000  0.88251500  1
  C  107  1  0.16394300  0.89239600  0.88246300  1
  C  108  1  0.16887600  0.91404000  0.88194300  1
  C  109  1  0.14977000  0.92899000  0.88115900  1
  C  110  1  0.12550600  0.92127800  0.88065300  1
  C  111  1  0.12073700  0.89966900  0.88104700  1
  C  112  1  0.11285200  0.85574500  0.89743300  1
  C  113  1  0.15352400  0.84515500  0.88688800  1
  C  114  1  0.16892900  0.84774900  0.90457000  1
  C  115  1  0.18820200  0.83374300  0.90922700  1
  C  116  1  0.19277900  0.81573100  0.89691900  1
  C  117  1  0.17630800  0.81203900  0.88026900  1
  C  118  1  0.15705500  0.82608900  0.87575100  1
  C  119  1  0.09730900  0.83810000  0.89510400  1
  C  120  1  0.07754700  0.83409900  0.90882900  1
  C  121  1  0.07276200  0.84694200  0.92641900  1
  C  122  1  0.08967100  0.86327800  0.93012300  1
  C  123  1  0.10929900  0.86721700  0.91628600  1
  C  140  1  0.21231800  0.80220600  0.90184700  1
  C  141  1  0.11087300  0.85637600  0.79226600  1
  C  144  1  0.15505000  0.95034100  0.87972100  1
  C  146  1  0.05204800  0.84339300  0.93909400  1
  C  148  1  0.61630300  0.65829900  0.15575200  1
  C  149  1  0.59728500  0.65859900  0.14070900  1
  C  150  1  0.60230000  0.65763300  0.11910900  1
  C  151  1  0.62660300  0.65697400  0.11120500  1
  C  152  1  0.64542100  0.65571800  0.12661200  1
  C  153  1  0.64056000  0.65659700  0.14820300  1
  C  154  1  0.63316800  0.65554600  0.08783100  1
  C  155  1  0.63966000  0.63214100  0.08679900  1
  C  156  1  0.66393700  0.62413900  0.08679000  1
  C  157  1  0.66886800  0.60249300  0.08731700  1
  C  158  1  0.64976400  0.58754500  0.08812100  1
  C  159  1  0.62550200  0.59525700  0.08865300  1
  C  160  1  0.62073000  0.61686400  0.08826100  1
  C  161  1  0.61285600  0.66079200  0.07186600  1
  C  162  1  0.65352800  0.67138100  0.08242100  1
  C  163  1  0.66892100  0.66879600  0.06472800  1
  C  164  1  0.68819200  0.68280200  0.06007100  1
  C  165  1  0.69277900  0.70080800  0.07238700  1
  C  166  1  0.67631900  0.70448900  0.08904700  1
  C  167  1  0.65706400  0.69044100  0.09356400  1
  C  168  1  0.59732500  0.67844500  0.07418500  1
  C  169  1  0.57755000  0.68243400  0.06047000  1
  C  170  1  0.57276200  0.66958800  0.04288400  1
  C  171  1  0.58966400  0.65324400  0.03918600  1
  C  172  1  0.60929200  0.64930700  0.05302400  1
  C  189  1  0.71231200  0.71433800  0.06745500  1
  C  190  1  0.61087200  0.66018300  0.17703600  1
  C  193  1  0.65504500  0.56619400  0.08955500  1
  C  195  1  0.55204800  0.67313300  0.03020800  1
  C  197  1  0.64953500  0.42896000  0.38108100  1
  C  198  1  0.66861500  0.41398600  0.38031100  1
  C  199  1  0.66370100  0.39234300  0.38096800  1
  C  200  1  0.63951900  0.38433100  0.38284600  1
  C  201  1  0.62055100  0.39963800  0.38290200  1
  C  202  1  0.62530400  0.42125000  0.38233600  1
  C  203  1  0.63313700  0.36091400  0.38159000  1
  C  204  1  0.62687600  0.35972700  0.35814800  1
  C  205  1  0.60276200  0.36186700  0.35005000  1
  C  206  1  0.59796100  0.36264900  0.32839900  1
  C  207  1  0.61710200  0.36175900  0.31349300  1
  C  208  1  0.64128200  0.36029100  0.32128300  1
  C  209  1  0.64592300  0.35961300  0.34291300  1
  C  210  1  0.65341900  0.34510700  0.38718000  1
  C  211  1  0.61273000  0.35545100  0.39733700  1
  C  212  1  0.59555500  0.33917200  0.39381000  1
  C  213  1  0.57572200  0.33538000  0.40751500  1
  C  214  1  0.57239400  0.34704500  0.42614300  1
  C  215  1  0.59082000  0.36186800  0.43086200  1
  C  216  1  0.61058200  0.36557300  0.41708500  1
  C  217  1  0.67007200  0.34846500  0.40387600  1
  C  218  1  0.68940200  0.33445600  0.40831800  1
  C  219  1  0.69281500  0.31574300  0.39681100  1
  C  220  1  0.67510600  0.31135400  0.38128200  1
  C  221  1  0.65576500  0.32540700  0.37698600  1
  C  238  1  0.55162200  0.34377500  0.43883700  1
  C  239  1  0.65472400  0.45032900  0.37946300  1
  C  242  1  0.61200600  0.36349600  0.29212100  1
  C  244  1  0.71243400  0.30224400  0.40156500  1
  C  246  1  0.14955300  0.08757600  0.58819300  1
  C  247  1  0.16863600  0.10255000  0.58893300  1
  C  248  1  0.16372600  0.12419300  0.58827500  1
  C  249  1  0.13954000  0.13220400  0.58645300  1
  C  250  1  0.12056600  0.11690100  0.58644000  1
  C  251  1  0.12531900  0.09528900  0.58699500  1
  C  252  1  0.13314200  0.15562000  0.58770800  1
  C  253  1  0.12687500  0.15680700  0.61114900  1
  C  254  1  0.10275400  0.15472400  0.61924500  1
  C  255  1  0.09795100  0.15394200  0.64089500  1
  C  256  1  0.11709200  0.15478800  0.65580400  1
  C  257  1  0.14127700  0.15621000  0.64801600  1
  C  258  1  0.14592100  0.15687700  0.62638700  1
  C  259  1  0.15342200  0.17143100  0.58212500  1
  C  260  1  0.11273600  0.16107700  0.57195600  1
  C  261  1  0.09560600  0.17739700  0.57545000  1
  C  262  1  0.07576300  0.18117800  0.56175300  1
  C  263  1  0.07240300  0.16948500  0.54314800  1
  C  264  1  0.09079900  0.15462900  0.53845000  1
  C  265  1  0.11055100  0.15091400  0.55223300  1
  C  266  1  0.17004300  0.16809600  0.56539900  1
  C  267  1  0.18936200  0.18210900  0.56094300  1
  C  268  1  0.19280700  0.20080200  0.57247700  1
  C  269  1  0.17514200  0.20516400  0.58804900  1
  C  270  1  0.15580500  0.19111100  0.59235200  1
  C  287  1  0.05162800  0.17275600  0.53045700  1
  C  288  1  0.15474000  0.06620900  0.58981700  1
  C  291  1  0.11199100  0.15305500  0.67717300  1
  C  293  1  0.21243300  0.21429600  0.56772400  1
  C  295  1  0.40024200  0.65809600  0.81411400  1
  C  296  1  0.41917900  0.65852300  0.82923200  1
  C  297  1  0.41406900  0.65744500  0.85081600  1
  C  298  1  0.38973500  0.65652200  0.85861800  1
  C  299  1  0.37100800  0.65518200  0.84313800  1
  C  300  1  0.37596800  0.65617400  0.82157200  1
  C  301  1  0.38303200  0.65505300  0.88196300  1
  C  302  1  0.37667600  0.63162100  0.88295800  1
  C  303  1  0.35244300  0.62352200  0.88267700  1
  C  304  1  0.34762300  0.60186500  0.88204700  1
  C  305  1  0.36681000  0.58699200  0.88134000  1
  C  306  1  0.39103900  0.59479100  0.88104600  1
  C  307  1  0.39569700  0.61641900  0.88157300  1
  C  308  1  0.40319900  0.66046400  0.89799100  1
  C  309  1  0.36253000  0.67082600  0.88721200  1
  C  310  1  0.34660800  0.66809800  0.90454600  1
  C  311  1  0.32680800  0.68178400  0.90857000  1
  C  312  1  0.32235500  0.69970100  0.89609200  1
  C  313  1  0.33957600  0.70372100  0.88007300  1
  C  314  1  0.35923100  0.68993200  0.87610300  1
  C  315  1  0.41818800  0.67846700  0.89581400  1
  C  316  1  0.43742600  0.68308200  0.90985900  1
  C  317  1  0.44234600  0.67042000  0.92755400  1
  C  318  1  0.42623200  0.65344200  0.93089800  1
  C  319  1  0.40702500  0.64894800  0.91678400  1
  C  336  1  0.30166800  0.71240600  0.89966100  1
  C  337  1  0.40572400  0.66008000  0.79284800  1
  C  340  1  0.36161900  0.56563500  0.87979100  1
  C  342  1  0.46187500  0.67533400  0.94109600  1
  C  344  1  0.90023700  0.85843300  0.15518700  1
  C  345  1  0.91917500  0.85799800  0.14007000  1
  C  346  1  0.91406600  0.85908000  0.11848600  1
  C  347  1  0.88973400  0.86001700  0.11068300  1
  C  348  1  0.87100700  0.86136200  0.12616400  1
  C  349  1  0.87596600  0.86037100  0.14773000  1
  C  350  1  0.88302900  0.86149000  0.08733700  1
  C  351  1  0.87666600  0.88492100  0.08634100  1
  C  352  1  0.85243600  0.89302200  0.08661900  1
  C  353  1  0.84762100  0.91468100  0.08725700  1
  C  354  1  0.86681100  0.92955000  0.08796700  1
  C  355  1  0.89104100  0.92174600  0.08826800  1
  C  356  1  0.89569300  0.90011900  0.08774000  1
  C  357  1  0.90319100  0.85607800  0.07130500  1
  C  358  1  0.86252500  0.84571600  0.08209100  1
  C  359  1  0.84660200  0.84844400  0.06476000  1
  C  360  1  0.82680900  0.83475400  0.06072600  1
  C  361  1  0.82235100  0.81684000  0.07321000  1
  C  362  1  0.83957100  0.81282000  0.08923000  1
  C  363  1  0.85922300  0.82661200  0.09320300  1
  C  364  1  0.91817200  0.83807100  0.07348000  1
  C  365  1  0.93741000  0.83345400  0.05943500  1
  C  366  1  0.94234500  0.84612300  0.04174900  1
  C  367  1  0.92623700  0.86310600  0.03840700  1
  C  368  1  0.90702800  0.86760100  0.05251800  1
  C  385  1  0.80166700  0.80413300  0.06963900  1
  C  386  1  0.90571600  0.85643900  0.17645400  1
  C  389  1  0.86162600  0.95090800  0.08951600  1
  C  391  1  0.96186300  0.84120100  0.02819900  1
  C  393  1  0.15022600  0.92941400  0.58464900  1
  C  394  1  0.16924700  0.91437300  0.58433800  1
  C  395  1  0.16424000  0.89277000  0.58531600  1
  C  396  1  0.13994300  0.88486000  0.58598400  1
  C  397  1  0.12112100  0.90026400  0.58725500  1
  C  398  1  0.12597300  0.92185700  0.58637000  1
  C  399  1  0.13337500  0.86148500  0.58741200  1
  C  400  1  0.12686800  0.86045100  0.61081400  1
  C  401  1  0.10259200  0.86044000  0.61881700  1
  C  402  1  0.09765800  0.86094900  0.64046300  1
  C  403  1  0.11676100  0.86177500  0.65541200  1
  C  404  1  0.14102500  0.86231100  0.64770200  1
  C  405  1  0.14579700  0.86193200  0.62609300  1
  C  406  1  0.15368600  0.84551300  0.58217800  1
  C  407  1  0.11302500  0.85607700  0.57156100  1
  C  408  1  0.09762000  0.83839100  0.57413800  1
  C  409  1  0.07833900  0.83375400  0.56013400  1
  C  410  1  0.07375000  0.84608400  0.54213800  1
  C  411  1  0.09021400  0.86274500  0.53846800  1
  C  412  1  0.10947200  0.86724800  0.55251900  1
  C  413  1  0.16923500  0.84782700  0.56453500  1
  C  414  1  0.18899900  0.83409900  0.56054800  1
  C  415  1  0.19379100  0.81652300  0.57340600  1
  C  416  1  0.17688700  0.81283700  0.58975100  1
  C  417  1  0.15725700  0.82667800  0.59367900  1
  C  434  1  0.05420500  0.84116900  0.52861000  1
  C  435  1  0.15564800  0.95070000  0.58275800  1
  C  438  1  0.11147700  0.86319200  0.67676400  1
  C  440  1  0.21450400  0.80384100  0.56986600  1
  C  442  1  0.65021500  0.58712500  0.38462400  1
  C  443  1  0.66923800  0.60216300  0.38491000  1
  C  444  1  0.66423000  0.62376500  0.38395000  1
  C  445  1  0.63993300  0.63168100  0.38332200  1
  C  446  1  0.62110900  0.61627700  0.38205700  1
  C  447  1  0.62596100  0.59468400  0.38293300  1
  C  448  1  0.63337200  0.65505600  0.38189100  1
  C  449  1  0.62686700  0.65610000  0.35848800  1
  C  450  1  0.60259200  0.65606000  0.35048300  1
  C  451  1  0.59765900  0.65554300  0.32883700  1
  C  452  1  0.61676300  0.65474200  0.31388800  1
  C  453  1  0.64102700  0.65423700  0.32160000  1
  C  454  1  0.64579500  0.65462800  0.34320800  1
  C  455  1  0.65368700  0.67102200  0.38712600  1
  C  456  1  0.61301600  0.66046300  0.39773400  1
  C  457  1  0.59759800  0.67813900  0.39514900  1
  C  458  1  0.57832400  0.68278200  0.40915800  1
  C  459  1  0.57375600  0.67046700  0.42716800  1
  C  460  1  0.59024100  0.65382500  0.43085200  1
  C  461  1  0.60949400  0.64931900  0.41679600  1
  C  462  1  0.66924400  0.66869800  0.40476300  1
  C  463  1  0.68901300  0.68242100  0.40874600  1
  C  464  1  0.69378500  0.70001600  0.39590500  1
  C  465  1  0.67686100  0.70371600  0.37957900  1
  C  466  1  0.65722900  0.68987700  0.37565200  1
  C  483  1  0.55421500  0.67538400  0.44069900  1
  C  484  1  0.65563700  0.56583800  0.38651000  1
  C  487  1  0.61148200  0.65332200  0.29253500  1
  C  489  1  0.71450100  0.71269500  0.39944100  1
  C  491  1  0.90027600  0.15830500  0.15590400  1
  C  492  1  0.91926400  0.15938700  0.14086900  1
  C  493  1  0.91432300  0.15835300  0.11926000  1
  C  494  1  0.89008800  0.15681600  0.11134200  1
  C  495  1  0.87133900  0.15476900  0.12672900  1
  C  496  1  0.87613600  0.15570600  0.14832900  1
  C  497  1  0.88349100  0.15553900  0.08796700  1
  C  498  1  0.87673300  0.13219800  0.08665900  1
  C  499  1  0.85247300  0.12439900  0.08483900  1
  C  500  1  0.84741900  0.10281100  0.08368400  1
  C  501  1  0.86630900  0.08769000  0.08489600  1
  C  502  1  0.89045800  0.09515400  0.08773200  1
  C  503  1  0.89536900  0.11672500  0.08879700  1
  C  504  1  0.90392400  0.16068300  0.07205000  1
  C  505  1  0.86322500  0.17153100  0.08263000  1
  C  506  1  0.84886300  0.16973100  0.06421300  1
  C  507  1  0.82966400  0.18377600  0.05946100  1
  C  508  1  0.82412800  0.20110500  0.07244100  1
  C  509  1  0.83957500  0.20408200  0.08992300  1
  C  510  1  0.85874100  0.18998100  0.09454200  1
  C  511  1  0.91883900  0.17877000  0.07398700  1
  C  512  1  0.93857000  0.18292500  0.06026600  1
  C  513  1  0.94394100  0.16976800  0.04303500  1
  C  514  1  0.92769200  0.15288200  0.03970500  1
  C  515  1  0.90811800  0.14879400  0.05354300  1
  C  532  1  0.80466300  0.21467400  0.06741500  1
  C  533  1  0.90561300  0.16030100  0.17719900  1
  C  536  1  0.86090700  0.06641800  0.08276700  1
  C  538  1  0.96457300  0.17350400  0.03032400  1
  C  540  1  0.40027300  0.35822600  0.81339000  1
  C  541  1  0.41926200  0.35713400  0.82842600  1
  C  542  1  0.41431800  0.35817000  0.85003500  1
  C  543  1  0.39008500  0.35973300  0.85795000  1
  C  544  1  0.37133600  0.36177600  0.84256100  1
  C  545  1  0.37613500  0.36082800  0.82096200  1
  C  546  1  0.38348800  0.36100300  0.88132600  1
  C  547  1  0.37673100  0.38434500  0.88263000  1
  C  548  1  0.35247200  0.39214000  0.88447700  1
  C  549  1  0.34741600  0.41372800  0.88562700  1
  C  550  1  0.36630300  0.42885100  0.88440700  1
  C  551  1  0.39045300  0.42139100  0.88157400  1
  C  552  1  0.39536600  0.39981900  0.88050000  1
  C  553  1  0.40391700  0.35585400  0.89724700  1
  C  554  1  0.36322200  0.34501000  0.88665800  1
  C  555  1  0.34886600  0.34680300  0.90508000  1
  C  556  1  0.32966600  0.33275800  0.90983100  1
  C  557  1  0.32413100  0.31543200  0.89684600  1
  C  558  1  0.33957000  0.31246300  0.87935900  1
  C  559  1  0.35873700  0.32656400  0.87474300  1
  C  560  1  0.41883100  0.33776700  0.89531300  1
  C  561  1  0.43857300  0.33362200  0.90902500  1
  C  562  1  0.44394200  0.34678000  0.92625500  1
  C  563  1  0.42769600  0.36366900  0.92958100  1
  C  564  1  0.40812100  0.36775400  0.91574400  1
  C  581  1  0.30467100  0.30185800  0.90187500  1
  C  582  1  0.40561200  0.35623300  0.79209500  1
  C  585  1  0.36089300  0.45012300  0.88652300  1
  C  587  1  0.46457800  0.34304600  0.93896400  1
  C  589  1  0.36635200  0.58769200  0.58486400  1
  C  590  1  0.34740700  0.60280500  0.58443400  1
  C  591  1  0.35250900  0.62439200  0.58551000  1
  C  592  1  0.37683700  0.63220400  0.58644900  1
  C  593  1  0.39556900  0.61672700  0.58778100  1
  C  594  1  0.39062000  0.59515800  0.58678600  1
  C  595  1  0.38352900  0.65555200  0.58791600  1
  C  596  1  0.38988300  0.65654700  0.61134800  1
  C  597  1  0.41411400  0.65628300  0.61945100  1
  C  598  1  0.41893200  0.65564600  0.64110900  1
  C  599  1  0.39974300  0.65494900  0.65598200  1
  C  600  1  0.37551400  0.65464800  0.64817700  1
  C  601  1  0.37086000  0.65516200  0.62655000  1
  C  602  1  0.36336000  0.67158400  0.58251200  1
  C  603  1  0.40402700  0.66079500  0.57213400  1
  C  604  1  0.41998000  0.67810600  0.57486700  1
  C  605  1  0.43976800  0.68213100  0.56116800  1
  C  606  1  0.44420400  0.66965200  0.54324600  1
  C  607  1  0.42696300  0.65364700  0.53922800  1
  C  608  1  0.40730000  0.64969600  0.55302000  1
  C  609  1  0.34834400  0.66940700  0.56452500  1
  C  610  1  0.32910900  0.68346000  0.55991900  1
  C  611  1  0.32420200  0.70115500  0.57258500  1
  C  612  1  0.34034000  0.70450000  0.58954600  1
  C  613  1  0.35955000  0.69038300  0.59402500  1
  C  630  1  0.46488400  0.67321800  0.53052900  1
  C  631  1  0.36087700  0.56642200  0.58287700  1
  C  634  1  0.40493100  0.65338600  0.67733900  1
  C  636  1  0.30468200  0.71471200  0.56767500  1
  C  638  1  0.86633300  0.92884400  0.38442900  1
  C  639  1  0.84739200  0.91372900  0.38486700  1
  C  640  1  0.85249500  0.89214300  0.38379500  1
  C  641  1  0.87682300  0.88433400  0.38285600  1
  C  642  1  0.89555400  0.89981100  0.38151500  1
  C  643  1  0.89060300  0.92137900  0.38250500  1
  C  644  1  0.88352200  0.86098500  0.38138800  1
  C  645  1  0.88987900  0.85999000  0.35795500  1
  C  646  1  0.91411000  0.86024800  0.34985300  1
  C  647  1  0.91892700  0.86089000  0.32819500  1
  C  648  1  0.89974100  0.86159000  0.31332200  1
  C  649  1  0.87551300  0.86189100  0.32112400  1
  C  650  1  0.87085700  0.86138200  0.34275200  1
  C  651  1  0.86335400  0.84495200  0.38679000  1
  C  652  1  0.90402100  0.85574500  0.39717000  1
  C  653  1  0.91996100  0.83842200  0.39444800  1
  C  654  1  0.93975900  0.83441200  0.40814000  1
  C  655  1  0.94419900  0.84689500  0.42605600  1
  C  656  1  0.92695500  0.86289500  0.43007600  1
  C  657  1  0.90730300  0.86685400  0.41627800  1
  C  658  1  0.84834300  0.84712900  0.40478000  1
  C  659  1  0.82911400  0.83307200  0.40939200  1
  C  660  1  0.82420300  0.81537700  0.39672600  1
  C  661  1  0.84032600  0.81204200  0.37975300  1
  C  662  1  0.85953500  0.82615900  0.37527000  1
  C  679  1  0.96488300  0.84333400  0.43877000  1
  C  680  1  0.86085600  0.95011400  0.38641800  1
  C  683  1  0.90493000  0.86315400  0.29196500  1
  C  685  1  0.80467800  0.80182500  0.40163300  1
  C  687  1  0.61625400  0.35843700  0.15534000  1
  C  688  1  0.59735600  0.35720600  0.14022900  1
  C  689  1  0.60239200  0.35834900  0.11863600  1
  C  690  1  0.62664500  0.36018500  0.11082400  1
  C  691  1  0.64529100  0.36233200  0.12628700  1
  C  692  1  0.64039700  0.36127000  0.14786100  1
  C  693  1  0.63338800  0.36148100  0.08747900  1
  C  694  1  0.64000500  0.38485100  0.08619900  1
  C  695  1  0.66424500  0.39274900  0.08462200  1
  C  696  1  0.66920700  0.41435300  0.08356100  1
  C  697  1  0.65023100  0.42940100  0.08464500  1
  C  698  1  0.62608800  0.42184700  0.08726900  1
  C  699  1  0.62127100  0.40025200  0.08824500  1
  C  700  1  0.61311500  0.35615200  0.07148700  1
  C  701  1  0.65381000  0.34555500  0.08232600  1
  C  702  1  0.66868900  0.34747500  0.06421600  1
  C  703  1  0.68844500  0.33377800  0.06007400  1
  C  704  1  0.69385200  0.31657000  0.07324900  1
  C  705  1  0.67763100  0.31324900  0.09015600  1
  C  706  1  0.65804300  0.32707000  0.09424100  1
  C  707  1  0.59874000  0.33774300  0.07328700  1
  C  708  1  0.57954400  0.33299600  0.05923600  1
  C  709  1  0.57402300  0.34597600  0.04190100  1
  C  710  1  0.58947500  0.36345600  0.03893400  1
  C  711  1  0.60863300  0.36807200  0.05304300  1
  C  728  1  0.71450700  0.30388600  0.06952000  1
  C  729  1  0.61086600  0.35634100  0.17661900  1
  C  732  1  0.65558500  0.45068800  0.08261900  1
  C  734  1  0.55456700  0.34095000  0.02832100  1
  C  736  1  0.11624400  0.15809500  0.81395700  1
  C  737  1  0.09734900  0.15933100  0.82907100  1
  C  738  1  0.10238900  0.15818800  0.85066400  1
  C  739  1  0.12664400  0.15634900  0.85847300  1
  C  740  1  0.14528700  0.15420700  0.84300700  1
  C  741  1  0.14038800  0.15525700  0.82143300  1
  C  742  1  0.13339100  0.15505400  0.88181700  1
  C  743  1  0.14001100  0.13168300  0.88309700  1
  C  744  1  0.16425400  0.12378700  0.88466600  1
  C  745  1  0.16921700  0.10218200  0.88571700  1
  C  746  1  0.15024100  0.08713500  0.88463600  1
  C  747  1  0.12609600  0.09468800  0.88202000  1
  C  748  1  0.12127800  0.11628400  0.88105000  1
  C  749  1  0.11312300  0.16038200  0.89781400  1
  C  750  1  0.15381400  0.17097900  0.88696800  1
  C  751  1  0.16870300  0.16905400  0.90507100  1
  C  752  1  0.18845000  0.18275900  0.90922100  1
  C  753  1  0.19385900  0.19996400  0.89604100  1
  C  754  1  0.17763600  0.20328400  0.87913500  1
  C  755  1  0.15804700  0.18946200  0.87505300  1
  C  756  1  0.09875800  0.17879700  0.89601600  1
  C  757  1  0.07955200  0.18353800  0.91005900  1
  C  758  1  0.07402400  0.17055700  0.92739000  1
  C  759  1  0.08947700  0.15307700  0.93036200  1
  C  760  1  0.10863600  0.14845900  0.91625300  1
  C  777  1  0.21450900  0.21265300  0.89977400  1
  C  778  1  0.11085200  0.16018800  0.79267900  1
  C  781  1  0.15560100  0.06584700  0.88664700  1
  C  783  1  0.05457400  0.17558700  0.94097400  1
  C  785  1  0.73877300  0.27333900  0.39095000  1
  C  786  1  0.74382700  0.26092900  0.37326000  1
  C  787  1  0.76319600  0.24610800  0.37286500  1
  C  788  1  0.77815600  0.24314700  0.39087700  1
  C  789  1  0.77347600  0.25568000  0.40887600  1
  C  791  1  0.75381500  0.27024000  0.40867000  1
  C  793  1  0.76764000  0.23379800  0.35349900  1
  C  797  1  0.78870500  0.25488700  0.42813900  1
  C  803  1  0.23877400  0.24320100  0.57833700  1
  C  804  1  0.24382200  0.25561900  0.59602400  1
  C  805  1  0.26319700  0.27043400  0.59642000  1
  C  806  1  0.27816200  0.27338900  0.57841000  1
  C  807  1  0.27348800  0.26084900  0.56041600  1
  C  809  1  0.25382500  0.24629200  0.56061900  1
  C  811  1  0.26763700  0.28274900  0.61578300  1
  C  815  1  0.28871500  0.26164700  0.54115100  1
  C  821  1  0.98877200  0.85201100  0.99971900  1
  C  822  1  0.99386600  0.86971400  0.98734400  1
  C  823  1  0.01323700  0.87010000  0.97252800  1
  C  824  1  0.02817700  0.85207500  0.96955900  1
  C  825  1  0.02351300  0.83408800  0.98212000  1
  C  827  1  0.00382400  0.83429400  0.99665300  1
  C  829  1  0.01768500  0.88947800  0.96023200  1
  C  833  1  0.03880800  0.81485800  0.98144700  1
  C  839  1  0.48878000  0.66452000  0.96957500  1
  C  840  1  0.49387000  0.64681700  0.98195200  1
  C  841  1  0.51324000  0.64643000  0.99676800  1
  C  842  1  0.52818500  0.66445300  0.99973700  1
  C  843  1  0.52351200  0.68244500  0.98718400  1
  C  845  1  0.50382300  0.68224000  0.97265300  1
  C  847  1  0.51768900  0.62705100  0.00906400  1
  C  851  1  0.53880100  0.70167800  0.98786700  1
  C  857  1  0.27778100  0.74319900  0.57849000  1
  C  858  1  0.27268000  0.75557000  0.59619400  1
  C  859  1  0.25331500  0.77039300  0.59658000  1
  C  860  1  0.23837400  0.77337000  0.57855500  1
  C  861  1  0.24304900  0.76081400  0.56056500  1
  C  863  1  0.26273900  0.74628200  0.56076900  1
  C  865  1  0.24886600  0.78268600  0.61595800  1
  C  869  1  0.22775900  0.76149500  0.54133200  1
  C  875  1  0.77778000  0.77333400  0.39082400  1
  C  876  1  0.77268600  0.76095700  0.37312300  1
  C  877  1  0.75331600  0.74613800  0.37273400  1
  C  878  1  0.73836800  0.74316800  0.39075500  1
  C  879  1  0.74303500  0.75573100  0.40874200  1
  C  881  1  0.76272900  0.77026000  0.40854000  1
  C  883  1  0.74887100  0.73384100  0.35335700  1
  C  887  1  0.72774600  0.75504800  0.42797500  1
  C  893  1  0.02769400  0.16479400  0.96950400  1
  C  894  1  0.02267000  0.14709300  0.98189800  1
  C  895  1  0.00340100  0.14671600  0.99680800  1
  C  896  1  0.98849700  0.16475200  0.99985300  1
  C  897  1  0.99307600  0.18273100  0.98725600  1
  C  899  1  0.01267300  0.18251700  0.97263200  1
  C  901  1  0.99902400  0.12733300  0.00911700  1
  C  905  1  0.97776800  0.20195200  0.98796400  1
  C  911  1  0.52768400  0.35174900  0.99979500  1
  C  912  1  0.52266400  0.36945200  0.98740100  1
  C  913  1  0.50339600  0.36983000  0.97249100  1
  C  914  1  0.48849000  0.35179600  0.96944400  1
  C  915  1  0.49308000  0.33381100  0.98203000  1
  C  917  1  0.51267600  0.33402200  0.99665300  1
  C  919  1  0.49901900  0.38921500  0.96018400  1
  C  923  1  0.47778000  0.31458500  0.98131300  1
  C  929  1  0.23884100  0.77340500  0.89117500  1
  C  930  1  0.24384000  0.76099400  0.87347900  1
  C  931  1  0.26311100  0.74608500  0.87309300  1
  C  932  1  0.27803000  0.74304800  0.89111900  1
  C  933  1  0.27343800  0.75562000  0.90910900  1
  C  935  1  0.25385400  0.77025700  0.90890100  1
  C  937  1  0.26749000  0.73377400  0.85371500  1
  C  941  1  0.28870600  0.75483800  0.92835000  1
  C  947  1  0.73883700  0.74313700  0.07812700  1
  C  948  1  0.74383200  0.75555300  0.09582100  1
  C  949  1  0.76310700  0.77045700  0.09620800  1
  C  950  1  0.77802800  0.77349300  0.07818300  1
  C  951  1  0.77343900  0.76091400  0.06019600  1
  C  953  1  0.75385300  0.74628100  0.06040300  1
  C  955  1  0.76748600  0.78277000  0.11558600  1
  C  959  1  0.78870300  0.76170000  0.04095300  1
  C  965  1  0.48874900  0.35206200  0.49969200  1
  C  966  1  0.49381700  0.36974900  0.48728300  1
  C  967  1  0.51321400  0.37014900  0.47249000  1
  C  968  1  0.52817900  0.35213500  0.46954900  1
  C  969  1  0.52349000  0.33414000  0.48208500  1
  C  971  1  0.50380900  0.33434700  0.49662400  1
  C  973  1  0.51767400  0.38951300  0.46018300  1
  C  977  1  0.53873000  0.31488200  0.48131500  1
  C  983  1  0.98876200  0.16445500  0.46959300  1
  C  984  1  0.99382900  0.14676900  0.48200300  1
  C  985  1  0.01322300  0.14637300  0.49679900  1
  C  986  1  0.02818800  0.16438500  0.49974200  1
  C  987  1  0.02349100  0.18238300  0.48721200  1
  C  989  1  0.00381000  0.18217600  0.47267200  1
  C  991  1  0.01768400  0.12700800  0.50910800  1
  C  995  1  0.03872100  0.20164700  0.48798800  1
  C  1001  1  0.77772300  0.24315100  0.07822800  1
  C  1002  1  0.77267700  0.25553300  0.09593300  1
  C  1003  1  0.75338600  0.27041800  0.09631300  1
  C  1004  1  0.73846900  0.27344200  0.07828200  1
  C  1005  1  0.74307300  0.26085900  0.06029800  1
  C  1007  1  0.76270200  0.24626700  0.06050400  1
  C  1009  1  0.74899000  0.28272200  0.11569600  1
  C  1013  1  0.72776000  0.26154600  0.04107900  1
  C  1019  1  0.27773000  0.27338300  0.89106300  1
  C  1020  1  0.27268500  0.26099800  0.87335900  1
  C  1021  1  0.25339000  0.24611400  0.87297900  1
  C  1022  1  0.23847100  0.24309400  0.89100800  1
  C  1023  1  0.24307100  0.25568300  0.90898900  1
  C  1025  1  0.26270200  0.27027200  0.90878400  1
  C  1027  1  0.24899600  0.23381000  0.85359600  1
  C  1031  1  0.22776100  0.25499300  0.92821100  1
  C  1037  1  0.52770600  0.66471800  0.46951500  1
  C  1038  1  0.52271100  0.64702500  0.48193400  1
  C  1039  1  0.50344000  0.64664100  0.49684400  1
  C  1040  1  0.48852900  0.66467000  0.49988900  1
  C  1041  1  0.49311300  0.68265400  0.48730600  1
  C  1043  1  0.51268800  0.68244100  0.47266200  1
  C  1045  1  0.49906300  0.62726200  0.50915700  1
  C  1049  1  0.47784600  0.70189600  0.48808900  1
  C  1055  1  0.02769200  0.85183800  0.49979800  1
  C  1056  1  0.02269700  0.86953000  0.48737700  1
  C  1057  1  0.00342900  0.86991200  0.47246500  1
  C  1058  1  0.98851700  0.85188300  0.46941800  1
  C  1059  1  0.99311100  0.83389500  0.48199400  1
  C  1061  1  0.01268600  0.83410900  0.49664000  1
  C  1063  1  0.99904900  0.88929100  0.46015300  1
  C  1067  1  0.97785400  0.81464700  0.48120300  1
  C  1073  1  0.89224100  0.15532300  0.21276800  1
  C  1074  1  0.87708300  0.14177400  0.22432700  1
  C  1075  1  0.87633600  0.14224700  0.24644600  1
  C  1076  1  0.89117800  0.15683500  0.25748800  1
  C  1077  1  0.90607300  0.17110700  0.24604000  1
  C  1079  1  0.90655900  0.16992000  0.22393500  1
  C  1081  1  0.85993400  0.12751700  0.25778300  1
  C  1085  1  0.92083500  0.18795500  0.25594600  1
  C  1091  1  0.39225300  0.36122600  0.75652400  1
  C  1092  1  0.37708600  0.37477300  0.74497000  1
  C  1093  1  0.37633300  0.37430100  0.72285100  1
  C  1094  1  0.39117500  0.35971400  0.71180700  1
  C  1095  1  0.40606900  0.34544100  0.72325000  1
  C  1097  1  0.40656300  0.34662700  0.74535500  1
  C  1099  1  0.35992600  0.38902900  0.71151800  1
  C  1103  1  0.42084300  0.32860500  0.71333700  1
  C  1109  1  0.14229900  0.03026700  0.88165600  1
  C  1110  1  0.12721300  0.01869000  0.86806700  1
  C  1111  1  0.12650500  0.99656900  0.86854000  1
  C  1112  1  0.14130800  0.98554600  0.88317600  1
  C  1113  1  0.15608800  0.99701700  0.89751600  1
  C  1115  1  0.15654500  0.01912400  0.89631900  1
  C  1117  1  0.11018900  0.98521700  0.85375000  1
  C  1121  1  0.17073200  0.98715300  0.91446200  1
  C  1127  1  0.64226400  0.48626800  0.08760200  1
  C  1128  1  0.62719700  0.49784400  0.10120500  1
  C  1129  1  0.62649300  0.51996500  0.10073600  1
  C  1130  1  0.64129100  0.53099000  0.08609900  1
  C  1131  1  0.65608200  0.51951900  0.07176600  1
  C  1133  1  0.65653600  0.49741200  0.07295900  1
  C  1135  1  0.61018300  0.53131800  0.11553100  1
  C  1139  1  0.67073900  0.52938300  0.05482800  1
  C  1145  1  0.62422300  0.36126500  0.21222400  1
  C  1146  1  0.63942200  0.37477000  0.22379500  1
  C  1147  1  0.64023600  0.37422300  0.24591100  1
  C  1148  1  0.62541500  0.35960400  0.25693000  1
  C  1149  1  0.61046500  0.34538800  0.24546900  1
  C  1151  1  0.60991900  0.34664400  0.22336800  1
  C  1153  1  0.65667600  0.38890600  0.25727000  1
  C  1157  1  0.59568900  0.32854000  0.25535900  1
  C  1163  1  0.12419800  0.15526300  0.75707300  1
  C  1164  1  0.13940200  0.14176200  0.74550200  1
  C  1165  1  0.14021900  0.14231200  0.72338600  1
  C  1166  1  0.12540300  0.15693500  0.71236600  1
  C  1167  1  0.11046200  0.17115700  0.72382900  1
  C  1169  1  0.10990600  0.16989500  0.74593000  1
  C  1171  1  0.15666000  0.12763000  0.71202900  1
  C  1175  1  0.09568500  0.18800300  0.71393900  1
  C  1181  1  0.37418400  0.48573700  0.88159400  1
  C  1182  1  0.38930600  0.49733000  0.86804600  1
  C  1183  1  0.39007900  0.51944700  0.86859800  1
  C  1184  1  0.37530900  0.53044800  0.88327200  1
  C  1185  1  0.36048500  0.51895600  0.89756300  1
  C  1187  1  0.35996400  0.49685600  0.89629400  1
  C  1189  1  0.40642400  0.53082100  0.85384800  1
  C  1193  1  0.34584800  0.52880000  0.91452700  1
  C  1199  1  0.87421900  0.03080400  0.08768400  1
  C  1200  1  0.88932500  0.01921100  0.10124500  1
  C  1201  1  0.89009300  0.99709400  0.10069900  1
  C  1202  1  0.87532400  0.98609300  0.08602300  1
  C  1203  1  0.86049000  0.99758300  0.07174000  1
  C  1205  1  0.85997100  0.01968400  0.07300600  1
  C  1207  1  0.90643200  0.98572000  0.11545300  1
  C  1211  1  0.84583600  0.98773900  0.05478600  1
  C  1217  1  0.12428200  0.86120100  0.75670000  1
  C  1218  1  0.13944000  0.87473400  0.74512700  1
  C  1219  1  0.14012300  0.87428200  0.72300600  1
  C  1220  1  0.12523700  0.85971400  0.71197600  1
  C  1221  1  0.11037800  0.84543000  0.72344500  1
  C  1223  1  0.10992800  0.84661700  0.74555300  1
  C  1225  1  0.15650900  0.88902100  0.71166000  1
  C  1229  1  0.09565000  0.82853600  0.71357800  1
  C  1235  1  0.62426500  0.65533700  0.21260200  1
  C  1236  1  0.63942900  0.64180400  0.22417000  1
  C  1237  1  0.64011700  0.64225400  0.24629000  1
  C  1238  1  0.62523200  0.65682000  0.25732600  1
  C  1239  1  0.61037700  0.67111100  0.24585900  1
  C  1241  1  0.60992100  0.66992400  0.22375200  1
  C  1243  1  0.65650500  0.62751400  0.25763500  1
  C  1247  1  0.59564100  0.68799500  0.25573200  1
  C  1253  1  0.39235000  0.65529600  0.75724400  1
  C  1254  1  0.37714300  0.64181200  0.74565800  1
  C  1255  1  0.37639200  0.64234000  0.72354000  1
  C  1256  1  0.39126300  0.65693300  0.71253100  1
  C  1257  1  0.40617100  0.67116700  0.72401700  1
  C  1259  1  0.40667300  0.66991400  0.74611800  1
  C  1261  1  0.35996100  0.62765300  0.71217400  1
  C  1265  1  0.42091100  0.68806200  0.71416500  1
  C  1271  1  0.89232100  0.86121500  0.21205800  1
  C  1272  1  0.87713100  0.87471300  0.22364300  1
  C  1273  1  0.87638700  0.87419200  0.24576000  1
  C  1274  1  0.89125500  0.85959700  0.25677200  1
  C  1275  1  0.90617400  0.84537100  0.24528900  1
  C  1277  1  0.90667400  0.84661800  0.22318500  1
  C  1279  1  0.85996200  0.88888300  0.25712700  1
  C  1283  1  0.92093000  0.82848800  0.25514200  1
  C  1289  1  0.64220000  0.53026800  0.38173400  1
  C  1290  1  0.62697300  0.51869100  0.36825700  1
  C  1291  1  0.62626700  0.49657000  0.36873700  1
  C  1292  1  0.64121000  0.48554700  0.38326600  1
  C  1293  1  0.65616800  0.49701600  0.39747000  1
  C  1295  1  0.65662100  0.51912300  0.39627200  1
  C  1297  1  0.60979800  0.48520900  0.35407600  1
  C  1301  1  0.67103000  0.48713500  0.41426800  1
  C  1307  1  0.14222800  0.98627200  0.58754700  1
  C  1308  1  0.12700000  0.99784800  0.60102400  1
  C  1309  1  0.12629000  0.01997000  0.60054100  1
  C  1310  1  0.14122800  0.03099300  0.58600900  1
  C  1311  1  0.15617800  0.01952300  0.57179900  1
  C  1313  1  0.15663600  0.99741600  0.57300100  1
  C  1315  1  0.10982400  0.03132900  0.61520300  1
  C  1319  1  0.17104200  0.02940500  0.55500200  1
  C  1325  1  0.87425800  0.98572100  0.38168500  1
  C  1326  1  0.88952000  0.99731400  0.36825100  1
  C  1327  1  0.89028700  0.01943300  0.36880500  1
  C  1328  1  0.87536800  0.03043200  0.38336700  1
  C  1329  1  0.86037600  0.01894400  0.39753000  1
  C  1331  1  0.85987600  0.99684300  0.39626700  1
  C  1333  1  0.90678800  0.03081300  0.35418700  1
  C  1337  1  0.84551500  0.02880700  0.41434100  1
  C  1343  1  0.37430400  0.53081500  0.58759900  1
  C  1344  1  0.38956100  0.51922500  0.60104100  1
  C  1345  1  0.39032100  0.49710700  0.60049600  1
  C  1346  1  0.37539100  0.48610400  0.58594500  1
  C  1347  1  0.36037300  0.49758600  0.57179700  1
  C  1349  1  0.35987800  0.51969000  0.57305100  1
  C  1351  1  0.40682700  0.48572800  0.61510900  1
  C  1355  1  0.34547800  0.48771800  0.55501200  1
  C  1361  1  0.10521200  0.08700200  0.38124600  1
  C  1362  1  0.08606140  0.10190300  0.38042400  1
  C  1363  1  0.09085440  0.12355700  0.38118800  1
  C  1364  1  0.11496800  0.13166100  0.38328600  1
  C  1365  1  0.13402600  0.11643100  0.38334500  1
  C  1366  1  0.12939400  0.09480000  0.38265500  1
  C  1367  1  0.12124200  0.15510300  0.38210000  1
  C  1368  1  0.12765000  0.15636000  0.35868800  1
  C  1369  1  0.15184100  0.15454200  0.35068600  1
  C  1370  1  0.15676200  0.15389700  0.32904400  1
  C  1371  1  0.13768400  0.15462800  0.31406700  1
  C  1372  1  0.11344500  0.15583600  0.32176900  1
  C  1373  1  0.10868100  0.15637000  0.34337900  1
  C  1374  1  0.10083900  0.17086100  0.38755100  1
  C  1375  1  0.14151900  0.16069300  0.39791300  1
  C  1376  1  0.15812400  0.17743000  0.39457600  1
  C  1377  1  0.17745700  0.18188100  0.40857700  1
  C  1378  1  0.18093300  0.17033200  0.42725400  1
  C  1379  1  0.16328400  0.15474600  0.43161700  1
  C  1380  1  0.14393200  0.15044700  0.41758000  1
  C  1381  1  0.08369740  0.16737100  0.40386300  1
  C  1382  1  0.06386740  0.18108200  0.40764700  1
  C  1383  1  0.06052740  0.19969300  0.39596000  1
  C  1384  1  0.07892740  0.20438200  0.38110500  1
  C  1385  1  0.09866440  0.19058500  0.37738500  1
  C  1402  1  0.20057400  0.17508100  0.44073000  1
  C  1403  1  0.10012400  0.06562700  0.37951200  1
  C  1406  1  0.14288600  0.15303500  0.29270100  1
  C  1408  1  0.03976440  0.21240300  0.39923400  1
  C  1410  1  0.60523900  0.42953700  0.58809700  1
  C  1411  1  0.58609100  0.41463700  0.58898700  1
  C  1412  1  0.59087900  0.39298300  0.58818600  1
  C  1413  1  0.61497800  0.38487000  0.58599000  1
  C  1414  1  0.63403400  0.40010200  0.58589000  1
  C  1415  1  0.62941000  0.42173400  0.58659400  1
  C  1416  1  0.62124300  0.36142900  0.58718900  1
  C  1417  1  0.62764700  0.36016100  0.61060000  1
  C  1418  1  0.65182300  0.36208400  0.61861000  1
  C  1419  1  0.65674300  0.36274400  0.64025200  1
  C  1420  1  0.63767000  0.36194600  0.65522700  1
  C  1421  1  0.61343900  0.36066100  0.64752300  1
  C  1422  1  0.60868000  0.36011000  0.62591100  1
  C  1423  1  0.60083400  0.34568000  0.58173100  1
  C  1424  1  0.64152700  0.35583300  0.57138800  1
  C  1425  1  0.65818000  0.33913700  0.57475500  1
  C  1426  1  0.67750700  0.33468200  0.56075200  1
  C  1427  1  0.68093600  0.34618900  0.54204200  1
  C  1428  1  0.66323500  0.36172400  0.53764400  1
  C  1429  1  0.64388500  0.36602200  0.55168600  1
  C  1430  1  0.58364400  0.34920500  0.56546400  1
  C  1431  1  0.56381300  0.33549400  0.56168400  1
  C  1432  1  0.56052200  0.31684800  0.57332700  1
  C  1433  1  0.57897200  0.31212900  0.58812800  1
  C  1434  1  0.59871200  0.32592400  0.59184000  1
  C  1451  1  0.70057500  0.34144200  0.52856500  1
  C  1452  1  0.60016300  0.45091100  0.58985400  1
  C  1455  1  0.64286500  0.36354900  0.67659500  1
  C  1457  1  0.53975700  0.30414000  0.57006300  1
  C  1459  1  0.35451000  0.85825500  0.81354900  1
  C  1460  1  0.33549000  0.85797400  0.82859000  1
  C  1461  1  0.34050500  0.85893500  0.85019100  1
  C  1462  1  0.36480600  0.85955300  0.85810000  1
  C  1463  1  0.38362600  0.86081000  0.84269300  1
  C  1464  1  0.37876700  0.85994000  0.82110200  1
  C  1465  1  0.37137300  0.86098800  0.88147300  1
  C  1466  1  0.37787400  0.88439000  0.88251500  1
  C  1467  1  0.40215000  0.89239600  0.88246300  1
  C  1468  1  0.40708300  0.91404000  0.88194300  1
  C  1469  1  0.38797700  0.92899000  0.88115900  1
  C  1470  1  0.36371300  0.92127800  0.88065300  1
  C  1471  1  0.35894400  0.89966900  0.88104700  1
  C  1472  1  0.35105900  0.85574500  0.89743300  1
  C  1473  1  0.39173100  0.84515500  0.88688800  1
  C  1474  1  0.40713600  0.84774900  0.90457000  1
  C  1475  1  0.42640900  0.83374300  0.90922700  1
  C  1476  1  0.43098600  0.81573100  0.89691900  1
  C  1477  1  0.41451500  0.81203900  0.88026900  1
  C  1478  1  0.39526200  0.82608900  0.87575100  1
  C  1479  1  0.33551600  0.83810000  0.89510400  1
  C  1480  1  0.31575400  0.83409900  0.90882900  1
  C  1481  1  0.31096900  0.84694200  0.92641900  1
  C  1482  1  0.32787800  0.86327800  0.93012300  1
  C  1483  1  0.34750600  0.86721700  0.91628600  1
  C  1500  1  0.45052500  0.80220600  0.90184700  1
  C  1501  1  0.34908000  0.85637600  0.79226600  1
  C  1504  1  0.39325700  0.95034100  0.87972100  1
  C  1506  1  0.29025500  0.84339300  0.93909400  1
  C  1508  1  0.85451000  0.65829900  0.15575200  1
  C  1509  1  0.83549200  0.65859900  0.14070900  1
  C  1510  1  0.84050700  0.65763300  0.11910900  1
  C  1511  1  0.86481000  0.65697400  0.11120500  1
  C  1512  1  0.88362800  0.65571800  0.12661200  1
  C  1513  1  0.87876700  0.65659700  0.14820300  1
  C  1514  1  0.87137500  0.65554600  0.08783100  1
  C  1515  1  0.87786700  0.63214100  0.08679900  1
  C  1516  1  0.90214400  0.62413900  0.08679000  1
  C  1517  1  0.90707500  0.60249300  0.08731700  1
  C  1518  1  0.88797100  0.58754500  0.08812100  1
  C  1519  1  0.86370900  0.59525700  0.08865300  1
  C  1520  1  0.85893700  0.61686400  0.08826100  1
  C  1521  1  0.85106300  0.66079200  0.07186600  1
  C  1522  1  0.89173500  0.67138100  0.08242100  1
  C  1523  1  0.90712800  0.66879600  0.06472800  1
  C  1524  1  0.92639900  0.68280200  0.06007100  1
  C  1525  1  0.93098600  0.70080800  0.07238700  1
  C  1526  1  0.91452600  0.70448900  0.08904700  1
  C  1527  1  0.89527100  0.69044100  0.09356400  1
  C  1528  1  0.83553200  0.67844500  0.07418500  1
  C  1529  1  0.81575700  0.68243400  0.06047000  1
  C  1530  1  0.81096900  0.66958800  0.04288400  1
  C  1531  1  0.82787100  0.65324400  0.03918600  1
  C  1532  1  0.84749900  0.64930700  0.05302400  1
  C  1549  1  0.95051900  0.71433800  0.06745500  1
  C  1550  1  0.84907900  0.66018300  0.17703600  1
  C  1553  1  0.89325200  0.56619400  0.08955500  1
  C  1555  1  0.79025500  0.67313300  0.03020800  1
  C  1557  1  0.88774200  0.42896000  0.38108100  1
  C  1558  1  0.90682200  0.41398600  0.38031100  1
  C  1559  1  0.90190800  0.39234300  0.38096800  1
  C  1560  1  0.87772600  0.38433100  0.38284600  1
  C  1561  1  0.85875800  0.39963800  0.38290200  1
  C  1562  1  0.86351100  0.42125000  0.38233600  1
  C  1563  1  0.87134400  0.36091400  0.38159000  1
  C  1564  1  0.86508300  0.35972700  0.35814800  1
  C  1565  1  0.84096900  0.36186700  0.35005000  1
  C  1566  1  0.83616800  0.36264900  0.32839900  1
  C  1567  1  0.85530900  0.36175900  0.31349300  1
  C  1568  1  0.87948900  0.36029100  0.32128300  1
  C  1569  1  0.88413000  0.35961300  0.34291300  1
  C  1570  1  0.89162600  0.34510700  0.38718000  1
  C  1571  1  0.85093700  0.35545100  0.39733700  1
  C  1572  1  0.83376200  0.33917200  0.39381000  1
  C  1573  1  0.81392900  0.33538000  0.40751500  1
  C  1574  1  0.81060100  0.34704500  0.42614300  1
  C  1575  1  0.82902700  0.36186800  0.43086200  1
  C  1576  1  0.84878900  0.36557300  0.41708500  1
  C  1577  1  0.90827900  0.34846500  0.40387600  1
  C  1578  1  0.92760900  0.33445600  0.40831800  1
  C  1579  1  0.93102200  0.31574300  0.39681100  1
  C  1580  1  0.91331300  0.31135400  0.38128200  1
  C  1581  1  0.89397200  0.32540700  0.37698600  1
  C  1598  1  0.78982900  0.34377500  0.43883700  1
  C  1599  1  0.89293100  0.45032900  0.37946300  1
  C  1602  1  0.85021300  0.36349600  0.29212100  1
  C  1604  1  0.95064100  0.30224400  0.40156500  1
  C  1606  1  0.38776000  0.08757600  0.58819300  1
  C  1607  1  0.40684300  0.10255000  0.58893300  1
  C  1608  1  0.40193300  0.12419300  0.58827500  1
  C  1609  1  0.37774700  0.13220400  0.58645300  1
  C  1610  1  0.35877300  0.11690100  0.58644000  1
  C  1611  1  0.36352600  0.09528900  0.58699500  1
  C  1612  1  0.37134900  0.15562000  0.58770800  1
  C  1613  1  0.36508200  0.15680700  0.61114900  1
  C  1614  1  0.34096100  0.15472400  0.61924500  1
  C  1615  1  0.33615800  0.15394200  0.64089500  1
  C  1616  1  0.35529900  0.15478800  0.65580400  1
  C  1617  1  0.37948400  0.15621000  0.64801600  1
  C  1618  1  0.38412800  0.15687700  0.62638700  1
  C  1619  1  0.39162900  0.17143100  0.58212500  1
  C  1620  1  0.35094300  0.16107700  0.57195600  1
  C  1621  1  0.33381300  0.17739700  0.57545000  1
  C  1622  1  0.31397000  0.18117800  0.56175300  1
  C  1623  1  0.31061000  0.16948500  0.54314800  1
  C  1624  1  0.32900600  0.15462900  0.53845000  1
  C  1625  1  0.34875800  0.15091400  0.55223300  1
  C  1626  1  0.40825000  0.16809600  0.56539900  1
  C  1627  1  0.42756900  0.18210900  0.56094300  1
  C  1628  1  0.43101400  0.20080200  0.57247700  1
  C  1629  1  0.41334900  0.20516400  0.58804900  1
  C  1630  1  0.39401200  0.19111100  0.59235200  1
  C  1647  1  0.28983500  0.17275600  0.53045700  1
  C  1648  1  0.39294700  0.06620900  0.58981700  1
  C  1651  1  0.35019800  0.15305500  0.67717300  1
  C  1653  1  0.45064000  0.21429600  0.56772400  1
  C  1655  1  0.63844900  0.65809600  0.81411400  1
  C  1656  1  0.65738600  0.65852300  0.82923200  1
  C  1657  1  0.65227600  0.65744500  0.85081600  1
  C  1658  1  0.62794200  0.65652200  0.85861800  1
  C  1659  1  0.60921500  0.65518200  0.84313800  1
  C  1660  1  0.61417500  0.65617400  0.82157200  1
  C  1661  1  0.62123900  0.65505300  0.88196300  1
  C  1662  1  0.61488300  0.63162100  0.88295800  1
  C  1663  1  0.59065000  0.62352200  0.88267700  1
  C  1664  1  0.58583000  0.60186500  0.88204700  1
  C  1665  1  0.60501700  0.58699200  0.88134000  1
  C  1666  1  0.62924600  0.59479100  0.88104600  1
  C  1667  1  0.63390400  0.61641900  0.88157300  1
  C  1668  1  0.64140600  0.66046400  0.89799100  1
  C  1669  1  0.60073700  0.67082600  0.88721200  1
  C  1670  1  0.58481500  0.66809800  0.90454600  1
  C  1671  1  0.56501500  0.68178400  0.90857000  1
  C  1672  1  0.56056200  0.69970100  0.89609200  1
  C  1673  1  0.57778300  0.70372100  0.88007300  1
  C  1674  1  0.59743800  0.68993200  0.87610300  1
  C  1675  1  0.65639500  0.67846700  0.89581400  1
  C  1676  1  0.67563300  0.68308200  0.90985900  1
  C  1677  1  0.68055300  0.67042000  0.92755400  1
  C  1678  1  0.66443900  0.65344200  0.93089800  1
  C  1679  1  0.64523200  0.64894800  0.91678400  1
  C  1696  1  0.53987500  0.71240600  0.89966100  1
  C  1697  1  0.64393100  0.66008000  0.79284800  1
  C  1700  1  0.59982600  0.56563500  0.87979100  1
  C  1702  1  0.70008200  0.67533400  0.94109600  1
  C  1704  1  0.13844400  0.85843300  0.15518700  1
  C  1705  1  0.15738200  0.85799800  0.14007000  1
  C  1706  1  0.15227300  0.85908000  0.11848600  1
  C  1707  1  0.12794100  0.86001700  0.11068300  1
  C  1708  1  0.10921400  0.86136200  0.12616400  1
  C  1709  1  0.11417300  0.86037100  0.14773000  1
  C  1710  1  0.12123600  0.86149000  0.08733700  1
  C  1711  1  0.11487300  0.88492100  0.08634100  1
  C  1712  1  0.09064340  0.89302200  0.08661900  1
  C  1713  1  0.08582840  0.91468100  0.08725700  1
  C  1714  1  0.10501800  0.92955000  0.08796700  1
  C  1715  1  0.12924800  0.92174600  0.08826800  1
  C  1716  1  0.13390000  0.90011900  0.08774000  1
  C  1717  1  0.14139800  0.85607800  0.07130500  1
  C  1718  1  0.10073200  0.84571600  0.08209100  1
  C  1719  1  0.08480940  0.84844400  0.06476000  1
  C  1720  1  0.06501640  0.83475400  0.06072600  1
  C  1721  1  0.06055840  0.81684000  0.07321000  1
  C  1722  1  0.07777840  0.81282000  0.08923000  1
  C  1723  1  0.09743040  0.82661200  0.09320300  1
  C  1724  1  0.15637900  0.83807100  0.07348000  1
  C  1725  1  0.17561700  0.83345400  0.05943500  1
  C  1726  1  0.18055200  0.84612300  0.04174900  1
  C  1727  1  0.16444400  0.86310600  0.03840700  1
  C  1728  1  0.14523500  0.86760100  0.05251800  1
  C  1745  1  0.03987440  0.80413300  0.06963900  1
  C  1746  1  0.14392300  0.85643900  0.17645400  1
  C  1749  1  0.09983340  0.95090800  0.08951600  1
  C  1751  1  0.20007000  0.84120100  0.02819900  1
  C  1753  1  0.38843300  0.92941400  0.58464900  1
  C  1754  1  0.40745400  0.91437300  0.58433800  1
  C  1755  1  0.40244700  0.89277000  0.58531600  1
  C  1756  1  0.37815000  0.88486000  0.58598400  1
  C  1757  1  0.35932800  0.90026400  0.58725500  1
  C  1758  1  0.36418000  0.92185700  0.58637000  1
  C  1759  1  0.37158200  0.86148500  0.58741200  1
  C  1760  1  0.36507500  0.86045100  0.61081400  1
  C  1761  1  0.34079900  0.86044000  0.61881700  1
  C  1762  1  0.33586500  0.86094900  0.64046300  1
  C  1763  1  0.35496800  0.86177500  0.65541200  1
  C  1764  1  0.37923200  0.86231100  0.64770200  1
  C  1765  1  0.38400400  0.86193200  0.62609300  1
  C  1766  1  0.39189300  0.84551300  0.58217800  1
  C  1767  1  0.35123200  0.85607700  0.57156100  1
  C  1768  1  0.33582700  0.83839100  0.57413800  1
  C  1769  1  0.31654600  0.83375400  0.56013400  1
  C  1770  1  0.31195700  0.84608400  0.54213800  1
  C  1771  1  0.32842100  0.86274500  0.53846800  1
  C  1772  1  0.34767900  0.86724800  0.55251900  1
  C  1773  1  0.40744200  0.84782700  0.56453500  1
  C  1774  1  0.42720600  0.83409900  0.56054800  1
  C  1775  1  0.43199800  0.81652300  0.57340600  1
  C  1776  1  0.41509400  0.81283700  0.58975100  1
  C  1777  1  0.39546400  0.82667800  0.59367900  1
  C  1794  1  0.29241200  0.84116900  0.52861000  1
  C  1795  1  0.39385500  0.95070000  0.58275800  1
  C  1798  1  0.34968400  0.86319200  0.67676400  1
  C  1800  1  0.45271100  0.80384100  0.56986600  1
  C  1802  1  0.88842200  0.58712500  0.38462400  1
  C  1803  1  0.90744500  0.60216300  0.38491000  1
  C  1804  1  0.90243700  0.62376500  0.38395000  1
  C  1805  1  0.87814000  0.63168100  0.38332200  1
  C  1806  1  0.85931600  0.61627700  0.38205700  1
  C  1807  1  0.86416800  0.59468400  0.38293300  1
  C  1808  1  0.87157900  0.65505600  0.38189100  1
  C  1809  1  0.86507400  0.65610000  0.35848800  1
  C  1810  1  0.84079900  0.65606000  0.35048300  1
  C  1811  1  0.83586600  0.65554300  0.32883700  1
  C  1812  1  0.85497000  0.65474200  0.31388800  1
  C  1813  1  0.87923400  0.65423700  0.32160000  1
  C  1814  1  0.88400200  0.65462800  0.34320800  1
  C  1815  1  0.89189400  0.67102200  0.38712600  1
  C  1816  1  0.85122300  0.66046300  0.39773400  1
  C  1817  1  0.83580500  0.67813900  0.39514900  1
  C  1818  1  0.81653100  0.68278200  0.40915800  1
  C  1819  1  0.81196300  0.67046700  0.42716800  1
  C  1820  1  0.82844800  0.65382500  0.43085200  1
  C  1821  1  0.84770100  0.64931900  0.41679600  1
  C  1822  1  0.90745100  0.66869800  0.40476300  1
  C  1823  1  0.92722000  0.68242100  0.40874600  1
  C  1824  1  0.93199200  0.70001600  0.39590500  1
  C  1825  1  0.91506800  0.70371600  0.37957900  1
  C  1826  1  0.89543600  0.68987700  0.37565200  1
  C  1843  1  0.79242200  0.67538400  0.44069900  1
  C  1844  1  0.89384400  0.56583800  0.38651000  1
  C  1847  1  0.84968900  0.65332200  0.29253500  1
  C  1849  1  0.95270800  0.71269500  0.39944100  1
  C  1851  1  0.13848300  0.15830500  0.15590400  1
  C  1852  1  0.15747100  0.15938700  0.14086900  1
  C  1853  1  0.15253000  0.15835300  0.11926000  1
  C  1854  1  0.12829500  0.15681600  0.11134200  1
  C  1855  1  0.10954600  0.15476900  0.12672900  1
  C  1856  1  0.11434300  0.15570600  0.14832900  1
  C  1857  1  0.12169800  0.15553900  0.08796700  1
  C  1858  1  0.11494000  0.13219800  0.08665900  1
  C  1859  1  0.09068040  0.12439900  0.08483900  1
  C  1860  1  0.08562640  0.10281100  0.08368400  1
  C  1861  1  0.10451600  0.08769000  0.08489600  1
  C  1862  1  0.12866500  0.09515400  0.08773200  1
  C  1863  1  0.13357600  0.11672500  0.08879700  1
  C  1864  1  0.14213100  0.16068300  0.07205000  1
  C  1865  1  0.10143200  0.17153100  0.08263000  1
  C  1866  1  0.08707040  0.16973100  0.06421300  1
  C  1867  1  0.06787140  0.18377600  0.05946100  1
  C  1868  1  0.06233540  0.20110500  0.07244100  1
  C  1869  1  0.07778240  0.20408200  0.08992300  1
  C  1870  1  0.09694840  0.18998100  0.09454200  1
  C  1871  1  0.15704600  0.17877000  0.07398700  1
  C  1872  1  0.17677700  0.18292500  0.06026600  1
  C  1873  1  0.18214800  0.16976800  0.04303500  1
  C  1874  1  0.16589900  0.15288200  0.03970500  1
  C  1875  1  0.14632500  0.14879400  0.05354300  1
  C  1892  1  0.04287040  0.21467400  0.06741500  1
  C  1893  1  0.14382000  0.16030100  0.17719900  1
  C  1896  1  0.09911440  0.06641800  0.08276700  1
  C  1898  1  0.20278000  0.17350400  0.03032400  1
  C  1900  1  0.63848000  0.35822600  0.81339000  1
  C  1901  1  0.65746900  0.35713400  0.82842600  1
  C  1902  1  0.65252500  0.35817000  0.85003500  1
  C  1903  1  0.62829200  0.35973300  0.85795000  1
  C  1904  1  0.60954300  0.36177600  0.84256100  1
  C  1905  1  0.61434200  0.36082800  0.82096200  1
  C  1906  1  0.62169500  0.36100300  0.88132600  1
  C  1907  1  0.61493800  0.38434500  0.88263000  1
  C  1908  1  0.59067900  0.39214000  0.88447700  1
  C  1909  1  0.58562300  0.41372800  0.88562700  1
  C  1910  1  0.60451000  0.42885100  0.88440700  1
  C  1911  1  0.62866000  0.42139100  0.88157400  1
  C  1912  1  0.63357300  0.39981900  0.88050000  1
  C  1913  1  0.64212400  0.35585400  0.89724700  1
  C  1914  1  0.60142900  0.34501000  0.88665800  1
  C  1915  1  0.58707300  0.34680300  0.90508000  1
  C  1916  1  0.56787300  0.33275800  0.90983100  1
  C  1917  1  0.56233800  0.31543200  0.89684600  1
  C  1918  1  0.57777700  0.31246300  0.87935900  1
  C  1919  1  0.59694400  0.32656400  0.87474300  1
  C  1920  1  0.65703800  0.33776700  0.89531300  1
  C  1921  1  0.67678000  0.33362200  0.90902500  1
  C  1922  1  0.68214900  0.34678000  0.92625500  1
  C  1923  1  0.66590300  0.36366900  0.92958100  1
  C  1924  1  0.64632800  0.36775400  0.91574400  1
  C  1941  1  0.54287800  0.30185800  0.90187500  1
  C  1942  1  0.64381900  0.35623300  0.79209500  1
  C  1945  1  0.59910000  0.45012300  0.88652300  1
  C  1947  1  0.70278500  0.34304600  0.93896400  1
  C  1949  1  0.60455900  0.58769200  0.58486400  1
  C  1950  1  0.58561400  0.60280500  0.58443400  1
  C  1951  1  0.59071600  0.62439200  0.58551000  1
  C  1952  1  0.61504400  0.63220400  0.58644900  1
  C  1953  1  0.63377600  0.61672700  0.58778100  1
  C  1954  1  0.62882700  0.59515800  0.58678600  1
  C  1955  1  0.62173600  0.65555200  0.58791600  1
  C  1956  1  0.62809000  0.65654700  0.61134800  1
  C  1957  1  0.65232100  0.65628300  0.61945100  1
  C  1958  1  0.65713900  0.65564600  0.64110900  1
  C  1959  1  0.63795000  0.65494900  0.65598200  1
  C  1960  1  0.61372100  0.65464800  0.64817700  1
  C  1961  1  0.60906700  0.65516200  0.62655000  1
  C  1962  1  0.60156700  0.67158400  0.58251200  1
  C  1963  1  0.64223400  0.66079500  0.57213400  1
  C  1964  1  0.65818700  0.67810600  0.57486700  1
  C  1965  1  0.67797500  0.68213100  0.56116800  1
  C  1966  1  0.68241100  0.66965200  0.54324600  1
  C  1967  1  0.66517000  0.65364700  0.53922800  1
  C  1968  1  0.64550700  0.64969600  0.55302000  1
  C  1969  1  0.58655100  0.66940700  0.56452500  1
  C  1970  1  0.56731600  0.68346000  0.55991900  1
  C  1971  1  0.56240900  0.70115500  0.57258500  1
  C  1972  1  0.57854700  0.70450000  0.58954600  1
  C  1973  1  0.59775700  0.69038300  0.59402500  1
  C  1990  1  0.70309100  0.67321800  0.53052900  1
  C  1991  1  0.59908400  0.56642200  0.58287700  1
  C  1994  1  0.64313800  0.65338600  0.67733900  1
  C  1996  1  0.54288900  0.71471200  0.56767500  1
  C  1998  1  0.10454000  0.92884400  0.38442900  1
  C  1999  1  0.08559940  0.91372900  0.38486700  1
  C  2000  1  0.09070240  0.89214300  0.38379500  1
  C  2001  1  0.11503000  0.88433400  0.38285600  1
  C  2002  1  0.13376100  0.89981100  0.38151500  1
  C  2003  1  0.12881000  0.92137900  0.38250500  1
  C  2004  1  0.12172900  0.86098500  0.38138800  1
  C  2005  1  0.12808600  0.85999000  0.35795500  1
  C  2006  1  0.15231700  0.86024800  0.34985300  1
  C  2007  1  0.15713400  0.86089000  0.32819500  1
  C  2008  1  0.13794800  0.86159000  0.31332200  1
  C  2009  1  0.11372000  0.86189100  0.32112400  1
  C  2010  1  0.10906400  0.86138200  0.34275200  1
  C  2011  1  0.10156100  0.84495200  0.38679000  1
  C  2012  1  0.14222800  0.85574500  0.39717000  1
  C  2013  1  0.15816800  0.83842200  0.39444800  1
  C  2014  1  0.17796600  0.83441200  0.40814000  1
  C  2015  1  0.18240600  0.84689500  0.42605600  1
  C  2016  1  0.16516200  0.86289500  0.43007600  1
  C  2017  1  0.14551000  0.86685400  0.41627800  1
  C  2018  1  0.08655040  0.84712900  0.40478000  1
  C  2019  1  0.06732140  0.83307200  0.40939200  1
  C  2020  1  0.06241040  0.81537700  0.39672600  1
  C  2021  1  0.07853340  0.81204200  0.37975300  1
  C  2022  1  0.09774240  0.82615900  0.37527000  1
  C  2039  1  0.20309000  0.84333400  0.43877000  1
  C  2040  1  0.09906340  0.95011400  0.38641800  1
  C  2043  1  0.14313700  0.86315400  0.29196500  1
  C  2045  1  0.04288540  0.80182500  0.40163300  1
  C  2047  1  0.85446100  0.35843700  0.15534000  1
  C  2048  1  0.83556300  0.35720600  0.14022900  1
  C  2049  1  0.84059900  0.35834900  0.11863600  1
  C  2050  1  0.86485200  0.36018500  0.11082400  1
  C  2051  1  0.88349800  0.36233200  0.12628700  1
  C  2052  1  0.87860400  0.36127000  0.14786100  1
  C  2053  1  0.87159500  0.36148100  0.08747900  1
  C  2054  1  0.87821200  0.38485100  0.08619900  1
  C  2055  1  0.90245200  0.39274900  0.08462200  1
  C  2056  1  0.90741400  0.41435300  0.08356100  1
  C  2057  1  0.88843800  0.42940100  0.08464500  1
  C  2058  1  0.86429500  0.42184700  0.08726900  1
  C  2059  1  0.85947800  0.40025200  0.08824500  1
  C  2060  1  0.85132200  0.35615200  0.07148700  1
  C  2061  1  0.89201700  0.34555500  0.08232600  1
  C  2062  1  0.90689600  0.34747500  0.06421600  1
  C  2063  1  0.92665200  0.33377800  0.06007400  1
  C  2064  1  0.93205900  0.31657000  0.07324900  1
  C  2065  1  0.91583800  0.31324900  0.09015600  1
  C  2066  1  0.89625000  0.32707000  0.09424100  1
  C  2067  1  0.83694700  0.33774300  0.07328700  1
  C  2068  1  0.81775100  0.33299600  0.05923600  1
  C  2069  1  0.81223000  0.34597600  0.04190100  1
  C  2070  1  0.82768200  0.36345600  0.03893400  1
  C  2071  1  0.84684000  0.36807200  0.05304300  1
  C  2088  1  0.95271400  0.30388600  0.06952000  1
  C  2089  1  0.84907300  0.35634100  0.17661900  1
  C  2092  1  0.89379200  0.45068800  0.08261900  1
  C  2094  1  0.79277400  0.34095000  0.02832100  1
  C  2096  1  0.35445100  0.15809500  0.81395700  1
  C  2097  1  0.33555600  0.15933100  0.82907100  1
  C  2098  1  0.34059600  0.15818800  0.85066400  1
  C  2099  1  0.36485100  0.15634900  0.85847300  1
  C  2100  1  0.38349400  0.15420700  0.84300700  1
  C  2101  1  0.37859500  0.15525700  0.82143300  1
  C  2102  1  0.37159800  0.15505400  0.88181700  1
  C  2103  1  0.37821800  0.13168300  0.88309700  1
  C  2104  1  0.40246100  0.12378700  0.88466600  1
  C  2105  1  0.40742400  0.10218200  0.88571700  1
  C  2106  1  0.38844800  0.08713500  0.88463600  1
  C  2107  1  0.36430300  0.09468800  0.88202000  1
  C  2108  1  0.35948500  0.11628400  0.88105000  1
  C  2109  1  0.35133000  0.16038200  0.89781400  1
  C  2110  1  0.39202100  0.17097900  0.88696800  1
  C  2111  1  0.40691000  0.16905400  0.90507100  1
  C  2112  1  0.42665700  0.18275900  0.90922100  1
  C  2113  1  0.43206600  0.19996400  0.89604100  1
  C  2114  1  0.41584300  0.20328400  0.87913500  1
  C  2115  1  0.39625400  0.18946200  0.87505300  1
  C  2116  1  0.33696500  0.17879700  0.89601600  1
  C  2117  1  0.31775900  0.18353800  0.91005900  1
  C  2118  1  0.31223100  0.17055700  0.92739000  1
  C  2119  1  0.32768400  0.15307700  0.93036200  1
  C  2120  1  0.34684300  0.14845900  0.91625300  1
  C  2137  1  0.45271600  0.21265300  0.89977400  1
  C  2138  1  0.34905900  0.16018800  0.79267900  1
  C  2141  1  0.39380800  0.06584700  0.88664700  1
  C  2143  1  0.29278100  0.17558700  0.94097400  1
  C  2145  1  0.97698000  0.27333900  0.39095000  1
  C  2146  1  0.98203400  0.26092900  0.37326000  1
  C  2147  1  0.00140336  0.24610800  0.37286500  1
  C  2148  1  0.01636340  0.24314700  0.39087700  1
  C  2149  1  0.01168340  0.25568000  0.40887600  1
  C  2151  1  0.99202200  0.27024000  0.40867000  1
  C  2153  1  0.00584736  0.23379800  0.35349900  1
  C  2157  1  0.02691240  0.25488700  0.42813900  1
  C  2163  1  0.47698100  0.24320100  0.57833700  1
  C  2164  1  0.48202900  0.25561900  0.59602400  1
  C  2165  1  0.50140400  0.27043400  0.59642000  1
  C  2166  1  0.51636900  0.27338900  0.57841000  1
  C  2167  1  0.51169500  0.26084900  0.56041600  1
  C  2169  1  0.49203200  0.24629200  0.56061900  1
  C  2171  1  0.50584400  0.28274900  0.61578300  1
  C  2175  1  0.52692200  0.26164700  0.54115100  1
  C  2181  1  0.22697900  0.85201100  0.99971900  1
  C  2182  1  0.23207300  0.86971400  0.98734400  1
  C  2183  1  0.25144400  0.87010000  0.97252800  1
  C  2184  1  0.26638400  0.85207500  0.96955900  1
  C  2185  1  0.26172000  0.83408800  0.98212000  1
  C  2187  1  0.24203100  0.83429400  0.99665300  1
  C  2189  1  0.25589200  0.88947800  0.96023200  1
  C  2193  1  0.27701500  0.81485800  0.98144700  1
  C  2199  1  0.72698700  0.66452000  0.96957500  1
  C  2200  1  0.73207700  0.64681700  0.98195200  1
  C  2201  1  0.75144700  0.64643000  0.99676800  1
  C  2202  1  0.76639200  0.66445300  0.99973700  1
  C  2203  1  0.76171900  0.68244500  0.98718400  1
  C  2205  1  0.74203000  0.68224000  0.97265300  1
  C  2207  1  0.75589600  0.62705100  0.00906400  1
  C  2211  1  0.77700800  0.70167800  0.98786700  1
  C  2217  1  0.51598800  0.74319900  0.57849000  1
  C  2218  1  0.51088700  0.75557000  0.59619400  1
  C  2219  1  0.49152200  0.77039300  0.59658000  1
  C  2220  1  0.47658100  0.77337000  0.57855500  1
  C  2221  1  0.48125600  0.76081400  0.56056500  1
  C  2223  1  0.50094600  0.74628200  0.56076900  1
  C  2225  1  0.48707300  0.78268600  0.61595800  1
  C  2229  1  0.46596600  0.76149500  0.54133200  1
  C  2235  1  0.01598740  0.77333400  0.39082400  1
  C  2236  1  0.01089340  0.76095700  0.37312300  1
  C  2237  1  0.99152300  0.74613800  0.37273400  1
  C  2238  1  0.97657500  0.74316800  0.39075500  1
  C  2239  1  0.98124200  0.75573100  0.40874200  1
  C  2241  1  0.00093636  0.77026000  0.40854000  1
  C  2243  1  0.98707800  0.73384100  0.35335700  1
  C  2247  1  0.96595300  0.75504800  0.42797500  1
  C  2253  1  0.26590100  0.16479400  0.96950400  1
  C  2254  1  0.26087700  0.14709300  0.98189800  1
  C  2255  1  0.24160800  0.14671600  0.99680800  1
  C  2256  1  0.22670400  0.16475200  0.99985300  1
  C  2257  1  0.23128300  0.18273100  0.98725600  1
  C  2259  1  0.25088000  0.18251700  0.97263200  1
  C  2261  1  0.23723100  0.12733300  0.00911700  1
  C  2265  1  0.21597500  0.20195200  0.98796400  1
  C  2271  1  0.76589100  0.35174900  0.99979500  1
  C  2272  1  0.76087100  0.36945200  0.98740100  1
  C  2273  1  0.74160300  0.36983000  0.97249100  1
  C  2274  1  0.72669700  0.35179600  0.96944400  1
  C  2275  1  0.73128700  0.33381100  0.98203000  1
  C  2277  1  0.75088300  0.33402200  0.99665300  1
  C  2279  1  0.73722600  0.38921500  0.96018400  1
  C  2283  1  0.71598700  0.31458500  0.98131300  1
  C  2289  1  0.47704800  0.77340500  0.89117500  1
  C  2290  1  0.48204700  0.76099400  0.87347900  1
  C  2291  1  0.50131800  0.74608500  0.87309300  1
  C  2292  1  0.51623700  0.74304800  0.89111900  1
  C  2293  1  0.51164500  0.75562000  0.90910900  1
  C  2295  1  0.49206100  0.77025700  0.90890100  1
  C  2297  1  0.50569700  0.73377400  0.85371500  1
  C  2301  1  0.52691300  0.75483800  0.92835000  1
  C  2307  1  0.97704400  0.74313700  0.07812700  1
  C  2308  1  0.98203900  0.75555300  0.09582100  1
  C  2309  1  0.00131436  0.77045700  0.09620800  1
  C  2310  1  0.01623540  0.77349300  0.07818300  1
  C  2311  1  0.01164640  0.76091400  0.06019600  1
  C  2313  1  0.99206000  0.74628100  0.06040300  1
  C  2315  1  0.00569336  0.78277000  0.11558600  1
  C  2319  1  0.02691040  0.76170000  0.04095300  1
  C  2325  1  0.72695600  0.35206200  0.49969200  1
  C  2326  1  0.73202400  0.36974900  0.48728300  1
  C  2327  1  0.75142100  0.37014900  0.47249000  1
  C  2328  1  0.76638600  0.35213500  0.46954900  1
  C  2329  1  0.76169700  0.33414000  0.48208500  1
  C  2331  1  0.74201600  0.33434700  0.49662400  1
  C  2333  1  0.75588100  0.38951300  0.46018300  1
  C  2337  1  0.77693700  0.31488200  0.48131500  1
  C  2343  1  0.22696900  0.16445500  0.46959300  1
  C  2344  1  0.23203600  0.14676900  0.48200300  1
  C  2345  1  0.25143000  0.14637300  0.49679900  1
  C  2346  1  0.26639500  0.16438500  0.49974200  1
  C  2347  1  0.26169800  0.18238300  0.48721200  1
  C  2349  1  0.24201700  0.18217600  0.47267200  1
  C  2351  1  0.25589100  0.12700800  0.50910800  1
  C  2355  1  0.27692800  0.20164700  0.48798800  1
  C  2361  1  0.01593040  0.24315100  0.07822800  1
  C  2362  1  0.01088440  0.25553300  0.09593300  1
  C  2363  1  0.99159300  0.27041800  0.09631300  1
  C  2364  1  0.97667600  0.27344200  0.07828200  1
  C  2365  1  0.98128000  0.26085900  0.06029800  1
  C  2367  1  0.00090936  0.24626700  0.06050400  1
  C  2369  1  0.98719700  0.28272200  0.11569600  1
  C  2373  1  0.96596700  0.26154600  0.04107900  1
  C  2379  1  0.51593700  0.27338300  0.89106300  1
  C  2380  1  0.51089200  0.26099800  0.87335900  1
  C  2381  1  0.49159700  0.24611400  0.87297900  1
  C  2382  1  0.47667800  0.24309400  0.89100800  1
  C  2383  1  0.48127800  0.25568300  0.90898900  1
  C  2385  1  0.50090900  0.27027200  0.90878400  1
  C  2387  1  0.48720300  0.23381000  0.85359600  1
  C  2391  1  0.46596800  0.25499300  0.92821100  1
  C  2397  1  0.76591300  0.66471800  0.46951500  1
  C  2398  1  0.76091800  0.64702500  0.48193400  1
  C  2399  1  0.74164700  0.64664100  0.49684400  1
  C  2400  1  0.72673600  0.66467000  0.49988900  1
  C  2401  1  0.73132000  0.68265400  0.48730600  1
  C  2403  1  0.75089500  0.68244100  0.47266200  1
  C  2405  1  0.73727000  0.62726200  0.50915700  1
  C  2409  1  0.71605300  0.70189600  0.48808900  1
  C  2415  1  0.26589900  0.85183800  0.49979800  1
  C  2416  1  0.26090400  0.86953000  0.48737700  1
  C  2417  1  0.24163600  0.86991200  0.47246500  1
  C  2418  1  0.22672400  0.85188300  0.46941800  1
  C  2419  1  0.23131800  0.83389500  0.48199400  1
  C  2421  1  0.25089300  0.83410900  0.49664000  1
  C  2423  1  0.23725600  0.88929100  0.46015300  1
  C  2427  1  0.21606100  0.81464700  0.48120300  1
  C  2433  1  0.13044800  0.15532300  0.21276800  1
  C  2434  1  0.11529000  0.14177400  0.22432700  1
  C  2435  1  0.11454300  0.14224700  0.24644600  1
  C  2436  1  0.12938500  0.15683500  0.25748800  1
  C  2437  1  0.14428000  0.17110700  0.24604000  1
  C  2439  1  0.14476600  0.16992000  0.22393500  1
  C  2441  1  0.09814140  0.12751700  0.25778300  1
  C  2445  1  0.15904200  0.18795500  0.25594600  1
  C  2451  1  0.63046000  0.36122600  0.75652400  1
  C  2452  1  0.61529300  0.37477300  0.74497000  1
  C  2453  1  0.61454000  0.37430100  0.72285100  1
  C  2454  1  0.62938200  0.35971400  0.71180700  1
  C  2455  1  0.64427600  0.34544100  0.72325000  1
  C  2457  1  0.64477000  0.34662700  0.74535500  1
  C  2459  1  0.59813300  0.38902900  0.71151800  1
  C  2463  1  0.65905000  0.32860500  0.71333700  1
  C  2469  1  0.38050600  0.03026700  0.88165600  1
  C  2470  1  0.36542000  0.01869000  0.86806700  1
  C  2471  1  0.36471200  0.99656900  0.86854000  1
  C  2472  1  0.37951500  0.98554600  0.88317600  1
  C  2473  1  0.39429500  0.99701700  0.89751600  1
  C  2475  1  0.39475200  0.01912400  0.89631900  1
  C  2477  1  0.34839600  0.98521700  0.85375000  1
  C  2481  1  0.40893900  0.98715300  0.91446200  1
  C  2487  1  0.88047100  0.48626800  0.08760200  1
  C  2488  1  0.86540400  0.49784400  0.10120500  1
  C  2489  1  0.86470000  0.51996500  0.10073600  1
  C  2490  1  0.87949800  0.53099000  0.08609900  1
  C  2491  1  0.89428900  0.51951900  0.07176600  1
  C  2493  1  0.89474300  0.49741200  0.07295900  1
  C  2495  1  0.84839000  0.53131800  0.11553100  1
  C  2499  1  0.90894600  0.52938300  0.05482800  1
  C  2505  1  0.86243000  0.36126500  0.21222400  1
  C  2506  1  0.87762900  0.37477000  0.22379500  1
  C  2507  1  0.87844300  0.37422300  0.24591100  1
  C  2508  1  0.86362200  0.35960400  0.25693000  1
  C  2509  1  0.84867200  0.34538800  0.24546900  1
  C  2511  1  0.84812600  0.34664400  0.22336800  1
  C  2513  1  0.89488300  0.38890600  0.25727000  1
  C  2517  1  0.83389600  0.32854000  0.25535900  1
  C  2523  1  0.36240500  0.15526300  0.75707300  1
  C  2524  1  0.37760900  0.14176200  0.74550200  1
  C  2525  1  0.37842600  0.14231200  0.72338600  1
  C  2526  1  0.36361000  0.15693500  0.71236600  1
  C  2527  1  0.34866900  0.17115700  0.72382900  1
  C  2529  1  0.34811300  0.16989500  0.74593000  1
  C  2531  1  0.39486700  0.12763000  0.71202900  1
  C  2535  1  0.33389200  0.18800300  0.71393900  1
  C  2541  1  0.61239100  0.48573700  0.88159400  1
  C  2542  1  0.62751300  0.49733000  0.86804600  1
  C  2543  1  0.62828600  0.51944700  0.86859800  1
  C  2544  1  0.61351600  0.53044800  0.88327200  1
  C  2545  1  0.59869200  0.51895600  0.89756300  1
  C  2547  1  0.59817100  0.49685600  0.89629400  1
  C  2549  1  0.64463100  0.53082100  0.85384800  1
  C  2553  1  0.58405500  0.52880000  0.91452700  1
  C  2559  1  0.11242600  0.03080400  0.08768400  1
  C  2560  1  0.12753200  0.01921100  0.10124500  1
  C  2561  1  0.12830000  0.99709400  0.10069900  1
  C  2562  1  0.11353100  0.98609300  0.08602300  1
  C  2563  1  0.09869740  0.99758300  0.07174000  1
  C  2565  1  0.09817840  0.01968400  0.07300600  1
  C  2567  1  0.14463900  0.98572000  0.11545300  1
  C  2571  1  0.08404340  0.98773900  0.05478600  1
  C  2577  1  0.36248900  0.86120100  0.75670000  1
  C  2578  1  0.37764700  0.87473400  0.74512700  1
  C  2579  1  0.37833000  0.87428200  0.72300600  1
  C  2580  1  0.36344400  0.85971400  0.71197600  1
  C  2581  1  0.34858500  0.84543000  0.72344500  1
  C  2583  1  0.34813500  0.84661700  0.74555300  1
  C  2585  1  0.39471600  0.88902100  0.71166000  1
  C  2589  1  0.33385700  0.82853600  0.71357800  1
  C  2595  1  0.86247200  0.65533700  0.21260200  1
  C  2596  1  0.87763600  0.64180400  0.22417000  1
  C  2597  1  0.87832400  0.64225400  0.24629000  1
  C  2598  1  0.86343900  0.65682000  0.25732600  1
  C  2599  1  0.84858400  0.67111100  0.24585900  1
  C  2601  1  0.84812800  0.66992400  0.22375200  1
  C  2603  1  0.89471200  0.62751400  0.25763500  1
  C  2607  1  0.83384800  0.68799500  0.25573200  1
  C  2613  1  0.63055700  0.65529600  0.75724400  1
  C  2614  1  0.61535000  0.64181200  0.74565800  1
  C  2615  1  0.61459900  0.64234000  0.72354000  1
  C  2616  1  0.62947000  0.65693300  0.71253100  1
  C  2617  1  0.64437800  0.67116700  0.72401700  1
  C  2619  1  0.64488000  0.66991400  0.74611800  1
  C  2621  1  0.59816800  0.62765300  0.71217400  1
  C  2625  1  0.65911800  0.68806200  0.71416500  1
  C  2631  1  0.13052800  0.86121500  0.21205800  1
  C  2632  1  0.11533800  0.87471300  0.22364300  1
  C  2633  1  0.11459400  0.87419200  0.24576000  1
  C  2634  1  0.12946200  0.85959700  0.25677200  1
  C  2635  1  0.14438100  0.84537100  0.24528900  1
  C  2637  1  0.14488100  0.84661800  0.22318500  1
  C  2639  1  0.09816940  0.88888300  0.25712700  1
  C  2643  1  0.15913700  0.82848800  0.25514200  1
  C  2649  1  0.88040700  0.53026800  0.38173400  1
  C  2650  1  0.86518000  0.51869100  0.36825700  1
  C  2651  1  0.86447400  0.49657000  0.36873700  1
  C  2652  1  0.87941700  0.48554700  0.38326600  1
  C  2653  1  0.89437500  0.49701600  0.39747000  1
  C  2655  1  0.89482800  0.51912300  0.39627200  1
  C  2657  1  0.84800500  0.48520900  0.35407600  1
  C  2661  1  0.90923700  0.48713500  0.41426800  1
  C  2667  1  0.38043500  0.98627200  0.58754700  1
  C  2668  1  0.36520700  0.99784800  0.60102400  1
  C  2669  1  0.36449700  0.01997000  0.60054100  1
  C  2670  1  0.37943500  0.03099300  0.58600900  1
  C  2671  1  0.39438500  0.01952300  0.57179900  1
  C  2673  1  0.39484300  0.99741600  0.57300100  1
  C  2675  1  0.34803100  0.03132900  0.61520300  1
  C  2679  1  0.40924900  0.02940500  0.55500200  1
  C  2685  1  0.11246500  0.98572100  0.38168500  1
  C  2686  1  0.12772700  0.99731400  0.36825100  1
  C  2687  1  0.12849400  0.01943300  0.36880500  1
  C  2688  1  0.11357500  0.03043200  0.38336700  1
  C  2689  1  0.09858340  0.01894400  0.39753000  1
  C  2691  1  0.09808340  0.99684300  0.39626700  1
  C  2693  1  0.14499500  0.03081300  0.35418700  1
  C  2697  1  0.08372240  0.02880700  0.41434100  1
  C  2703  1  0.61251100  0.53081500  0.58759900  1
  C  2704  1  0.62776800  0.51922500  0.60104100  1
  C  2705  1  0.62852800  0.49710700  0.60049600  1
  C  2706  1  0.61359800  0.48610400  0.58594500  1
  C  2707  1  0.59858000  0.49758600  0.57179700  1
  C  2709  1  0.59808500  0.51969000  0.57305100  1
  C  2711  1  0.64503400  0.48572800  0.61510900  1
  C  2715  1  0.58368500  0.48771800  0.55501200  1
  C  2721  1  0.34342000  0.08700200  0.38124600  1
  C  2722  1  0.32426900  0.10190300  0.38042400  1
  C  2723  1  0.32906200  0.12355700  0.38118800  1
  C  2724  1  0.35317600  0.13166100  0.38328600  1
  C  2725  1  0.37223400  0.11643100  0.38334500  1
  C  2726  1  0.36760200  0.09480000  0.38265500  1
  C  2727  1  0.35945000  0.15510300  0.38210000  1
  C  2728  1  0.36585800  0.15636000  0.35868800  1
  C  2729  1  0.39004900  0.15454200  0.35068600  1
  C  2730  1  0.39497000  0.15389700  0.32904400  1
  C  2731  1  0.37589200  0.15462800  0.31406700  1
  C  2732  1  0.35165300  0.15583600  0.32176900  1
  C  2733  1  0.34688900  0.15637000  0.34337900  1
  C  2734  1  0.33904700  0.17086100  0.38755100  1
  C  2735  1  0.37972700  0.16069300  0.39791300  1
  C  2736  1  0.39633200  0.17743000  0.39457600  1
  C  2737  1  0.41566500  0.18188100  0.40857700  1
  C  2738  1  0.41914100  0.17033200  0.42725400  1
  C  2739  1  0.40149200  0.15474600  0.43161700  1
  C  2740  1  0.38214000  0.15044700  0.41758000  1
  C  2741  1  0.32190500  0.16737100  0.40386300  1
  C  2742  1  0.30207500  0.18108200  0.40764700  1
  C  2743  1  0.29873500  0.19969300  0.39596000  1
  C  2744  1  0.31713500  0.20438200  0.38110500  1
  C  2745  1  0.33687200  0.19058500  0.37738500  1
  C  2762  1  0.43878200  0.17508100  0.44073000  1
  C  2763  1  0.33833200  0.06562700  0.37951200  1
  C  2766  1  0.38109400  0.15303500  0.29270100  1
  C  2768  1  0.27797200  0.21240300  0.39923400  1
  C  2770  1  0.84344700  0.42953700  0.58809700  1
  C  2771  1  0.82429900  0.41463700  0.58898700  1
  C  2772  1  0.82908700  0.39298300  0.58818600  1
  C  2773  1  0.85318600  0.38487000  0.58599000  1
  C  2774  1  0.87224200  0.40010200  0.58589000  1
  C  2775  1  0.86761800  0.42173400  0.58659400  1
  C  2776  1  0.85945100  0.36142900  0.58718900  1
  C  2777  1  0.86585500  0.36016100  0.61060000  1
  C  2778  1  0.89003100  0.36208400  0.61861000  1
  C  2779  1  0.89495100  0.36274400  0.64025200  1
  C  2780  1  0.87587800  0.36194600  0.65522700  1
  C  2781  1  0.85164700  0.36066100  0.64752300  1
  C  2782  1  0.84688800  0.36011000  0.62591100  1
  C  2783  1  0.83904200  0.34568000  0.58173100  1
  C  2784  1  0.87973500  0.35583300  0.57138800  1
  C  2785  1  0.89638800  0.33913700  0.57475500  1
  C  2786  1  0.91571500  0.33468200  0.56075200  1
  C  2787  1  0.91914400  0.34618900  0.54204200  1
  C  2788  1  0.90144300  0.36172400  0.53764400  1
  C  2789  1  0.88209300  0.36602200  0.55168600  1
  C  2790  1  0.82185200  0.34920500  0.56546400  1
  C  2791  1  0.80202100  0.33549400  0.56168400  1
  C  2792  1  0.79873000  0.31684800  0.57332700  1
  C  2793  1  0.81718000  0.31212900  0.58812800  1
  C  2794  1  0.83692000  0.32592400  0.59184000  1
  C  2811  1  0.93878300  0.34144200  0.52856500  1
  C  2812  1  0.83837100  0.45091100  0.58985400  1
  C  2815  1  0.88107300  0.36354900  0.67659500  1
  C  2817  1  0.77796500  0.30414000  0.57006300  1
  C  2819  1  0.59271800  0.85825500  0.81354900  1
  C  2820  1  0.57369800  0.85797400  0.82859000  1
  C  2821  1  0.57871300  0.85893500  0.85019100  1
  C  2822  1  0.60301400  0.85955300  0.85810000  1
  C  2823  1  0.62183400  0.86081000  0.84269300  1
  C  2824  1  0.61697500  0.85994000  0.82110200  1
  C  2825  1  0.60958100  0.86098800  0.88147300  1
  C  2826  1  0.61608200  0.88439000  0.88251500  1
  C  2827  1  0.64035800  0.89239600  0.88246300  1
  C  2828  1  0.64529100  0.91404000  0.88194300  1
  C  2829  1  0.62618500  0.92899000  0.88115900  1
  C  2830  1  0.60192100  0.92127800  0.88065300  1
  C  2831  1  0.59715200  0.89966900  0.88104700  1
  C  2832  1  0.58926700  0.85574500  0.89743300  1
  C  2833  1  0.62993900  0.84515500  0.88688800  1
  C  2834  1  0.64534400  0.84774900  0.90457000  1
  C  2835  1  0.66461700  0.83374300  0.90922700  1
  C  2836  1  0.66919400  0.81573100  0.89691900  1
  C  2837  1  0.65272300  0.81203900  0.88026900  1
  C  2838  1  0.63347000  0.82608900  0.87575100  1
  C  2839  1  0.57372400  0.83810000  0.89510400  1
  C  2840  1  0.55396200  0.83409900  0.90882900  1
  C  2841  1  0.54917700  0.84694200  0.92641900  1
  C  2842  1  0.56608600  0.86327800  0.93012300  1
  C  2843  1  0.58571400  0.86721700  0.91628600  1
  C  2860  1  0.68873300  0.80220600  0.90184700  1
  C  2861  1  0.58728800  0.85637600  0.79226600  1
  C  2864  1  0.63146500  0.95034100  0.87972100  1
  C  2866  1  0.52846300  0.84339300  0.93909400  1
  C  2868  1  0.09271770  0.65829900  0.15575200  1
  C  2869  1  0.07369970  0.65859900  0.14070900  1
  C  2870  1  0.07871470  0.65763300  0.11910900  1
  C  2871  1  0.10301800  0.65697400  0.11120500  1
  C  2872  1  0.12183600  0.65571800  0.12661200  1
  C  2873  1  0.11697500  0.65659700  0.14820300  1
  C  2874  1  0.10958300  0.65554600  0.08783100  1
  C  2875  1  0.11607500  0.63214100  0.08679900  1
  C  2876  1  0.14035200  0.62413900  0.08679000  1
  C  2877  1  0.14528300  0.60249300  0.08731700  1
  C  2878  1  0.12617900  0.58754500  0.08812100  1
  C  2879  1  0.10191700  0.59525700  0.08865300  1
  C  2880  1  0.09714470  0.61686400  0.08826100  1
  C  2881  1  0.08927070  0.66079200  0.07186600  1
  C  2882  1  0.12994300  0.67138100  0.08242100  1
  C  2883  1  0.14533600  0.66879600  0.06472800  1
  C  2884  1  0.16460700  0.68280200  0.06007100  1
  C  2885  1  0.16919400  0.70080800  0.07238700  1
  C  2886  1  0.15273400  0.70448900  0.08904700  1
  C  2887  1  0.13347900  0.69044100  0.09356400  1
  C  2888  1  0.07373970  0.67844500  0.07418500  1
  C  2889  1  0.05396470  0.68243400  0.06047000  1
  C  2890  1  0.04917670  0.66958800  0.04288400  1
  C  2891  1  0.06607870  0.65324400  0.03918600  1
  C  2892  1  0.08570670  0.64930700  0.05302400  1
  C  2909  1  0.18872700  0.71433800  0.06745500  1
  C  2910  1  0.08728670  0.66018300  0.17703600  1
  C  2913  1  0.13146000  0.56619400  0.08955500  1
  C  2915  1  0.02846270  0.67313300  0.03020800  1
  C  2917  1  0.12595000  0.42896000  0.38108100  1
  C  2918  1  0.14503000  0.41398600  0.38031100  1
  C  2919  1  0.14011600  0.39234300  0.38096800  1
  C  2920  1  0.11593400  0.38433100  0.38284600  1
  C  2921  1  0.09696570  0.39963800  0.38290200  1
  C  2922  1  0.10171900  0.42125000  0.38233600  1
  C  2923  1  0.10955200  0.36091400  0.38159000  1
  C  2924  1  0.10329100  0.35972700  0.35814800  1
  C  2925  1  0.07917670  0.36186700  0.35005000  1
  C  2926  1  0.07437570  0.36264900  0.32839900  1
  C  2927  1  0.09351670  0.36175900  0.31349300  1
  C  2928  1  0.11769700  0.36029100  0.32128300  1
  C  2929  1  0.12233800  0.35961300  0.34291300  1
  C  2930  1  0.12983400  0.34510700  0.38718000  1
  C  2931  1  0.08914470  0.35545100  0.39733700  1
  C  2932  1  0.07196970  0.33917200  0.39381000  1
  C  2933  1  0.05213670  0.33538000  0.40751500  1
  C  2934  1  0.04880870  0.34704500  0.42614300  1
  C  2935  1  0.06723470  0.36186800  0.43086200  1
  C  2936  1  0.08699670  0.36557300  0.41708500  1
  C  2937  1  0.14648700  0.34846500  0.40387600  1
  C  2938  1  0.16581700  0.33445600  0.40831800  1
  C  2939  1  0.16923000  0.31574300  0.39681100  1
  C  2940  1  0.15152100  0.31135400  0.38128200  1
  C  2941  1  0.13218000  0.32540700  0.37698600  1
  C  2958  1  0.02803670  0.34377500  0.43883700  1
  C  2959  1  0.13113900  0.45032900  0.37946300  1
  C  2962  1  0.08842070  0.36349600  0.29212100  1
  C  2964  1  0.18884900  0.30224400  0.40156500  1
  C  2966  1  0.62596800  0.08757600  0.58819300  1
  C  2967  1  0.64505100  0.10255000  0.58893300  1
  C  2968  1  0.64014100  0.12419300  0.58827500  1
  C  2969  1  0.61595500  0.13220400  0.58645300  1
  C  2970  1  0.59698100  0.11690100  0.58644000  1
  C  2971  1  0.60173400  0.09528900  0.58699500  1
  C  2972  1  0.60955700  0.15562000  0.58770800  1
  C  2973  1  0.60329000  0.15680700  0.61114900  1
  C  2974  1  0.57916900  0.15472400  0.61924500  1
  C  2975  1  0.57436600  0.15394200  0.64089500  1
  C  2976  1  0.59350700  0.15478800  0.65580400  1
  C  2977  1  0.61769200  0.15621000  0.64801600  1
  C  2978  1  0.62233600  0.15687700  0.62638700  1
  C  2979  1  0.62983700  0.17143100  0.58212500  1
  C  2980  1  0.58915100  0.16107700  0.57195600  1
  C  2981  1  0.57202100  0.17739700  0.57545000  1
  C  2982  1  0.55217800  0.18117800  0.56175300  1
  C  2983  1  0.54881800  0.16948500  0.54314800  1
  C  2984  1  0.56721400  0.15462900  0.53845000  1
  C  2985  1  0.58696600  0.15091400  0.55223300  1
  C  2986  1  0.64645800  0.16809600  0.56539900  1
  C  2987  1  0.66577700  0.18210900  0.56094300  1
  C  2988  1  0.66922200  0.20080200  0.57247700  1
  C  2989  1  0.65155700  0.20516400  0.58804900  1
  C  2990  1  0.63222000  0.19111100  0.59235200  1
  C  3007  1  0.52804300  0.17275600  0.53045700  1
  C  3008  1  0.63115500  0.06620900  0.58981700  1
  C  3011  1  0.58840600  0.15305500  0.67717300  1
  C  3013  1  0.68884800  0.21429600  0.56772400  1
  C  3015  1  0.87665700  0.65809600  0.81411400  1
  C  3016  1  0.89559400  0.65852300  0.82923200  1
  C  3017  1  0.89048400  0.65744500  0.85081600  1
  C  3018  1  0.86615000  0.65652200  0.85861800  1
  C  3019  1  0.84742300  0.65518200  0.84313800  1
  C  3020  1  0.85238300  0.65617400  0.82157200  1
  C  3021  1  0.85944700  0.65505300  0.88196300  1
  C  3022  1  0.85309100  0.63162100  0.88295800  1
  C  3023  1  0.82885800  0.62352200  0.88267700  1
  C  3024  1  0.82403800  0.60186500  0.88204700  1
  C  3025  1  0.84322500  0.58699200  0.88134000  1
  C  3026  1  0.86745400  0.59479100  0.88104600  1
  C  3027  1  0.87211200  0.61641900  0.88157300  1
  C  3028  1  0.87961400  0.66046400  0.89799100  1
  C  3029  1  0.83894500  0.67082600  0.88721200  1
  C  3030  1  0.82302300  0.66809800  0.90454600  1
  C  3031  1  0.80322300  0.68178400  0.90857000  1
  C  3032  1  0.79877000  0.69970100  0.89609200  1
  C  3033  1  0.81599100  0.70372100  0.88007300  1
  C  3034  1  0.83564600  0.68993200  0.87610300  1
  C  3035  1  0.89460300  0.67846700  0.89581400  1
  C  3036  1  0.91384100  0.68308200  0.90985900  1
  C  3037  1  0.91876100  0.67042000  0.92755400  1
  C  3038  1  0.90264700  0.65344200  0.93089800  1
  C  3039  1  0.88344000  0.64894800  0.91678400  1
  C  3056  1  0.77808300  0.71240600  0.89966100  1
  C  3057  1  0.88213900  0.66008000  0.79284800  1
  C  3060  1  0.83803400  0.56563500  0.87979100  1
  C  3062  1  0.93829000  0.67533400  0.94109600  1
  C  3064  1  0.37665200  0.85843300  0.15518700  1
  C  3065  1  0.39559000  0.85799800  0.14007000  1
  C  3066  1  0.39048100  0.85908000  0.11848600  1
  C  3067  1  0.36614900  0.86001700  0.11068300  1
  C  3068  1  0.34742200  0.86136200  0.12616400  1
  C  3069  1  0.35238100  0.86037100  0.14773000  1
  C  3070  1  0.35944400  0.86149000  0.08733700  1
  C  3071  1  0.35308100  0.88492100  0.08634100  1
  C  3072  1  0.32885100  0.89302200  0.08661900  1
  C  3073  1  0.32403600  0.91468100  0.08725700  1
  C  3074  1  0.34322600  0.92955000  0.08796700  1
  C  3075  1  0.36745600  0.92174600  0.08826800  1
  C  3076  1  0.37210800  0.90011900  0.08774000  1
  C  3077  1  0.37960600  0.85607800  0.07130500  1
  C  3078  1  0.33894000  0.84571600  0.08209100  1
  C  3079  1  0.32301700  0.84844400  0.06476000  1
  C  3080  1  0.30322400  0.83475400  0.06072600  1
  C  3081  1  0.29876600  0.81684000  0.07321000  1
  C  3082  1  0.31598600  0.81282000  0.08923000  1
  C  3083  1  0.33563800  0.82661200  0.09320300  1
  C  3084  1  0.39458700  0.83807100  0.07348000  1
  C  3085  1  0.41382500  0.83345400  0.05943500  1
  C  3086  1  0.41876000  0.84612300  0.04174900  1
  C  3087  1  0.40265200  0.86310600  0.03840700  1
  C  3088  1  0.38344300  0.86760100  0.05251800  1
  C  3105  1  0.27808200  0.80413300  0.06963900  1
  C  3106  1  0.38213100  0.85643900  0.17645400  1
  C  3109  1  0.33804100  0.95090800  0.08951600  1
  C  3111  1  0.43827800  0.84120100  0.02819900  1
  C  3113  1  0.62664100  0.92941400  0.58464900  1
  C  3114  1  0.64566200  0.91437300  0.58433800  1
  C  3115  1  0.64065500  0.89277000  0.58531600  1
  C  3116  1  0.61635800  0.88486000  0.58598400  1
  C  3117  1  0.59753600  0.90026400  0.58725500  1
  C  3118  1  0.60238800  0.92185700  0.58637000  1
  C  3119  1  0.60979000  0.86148500  0.58741200  1
  C  3120  1  0.60328300  0.86045100  0.61081400  1
  C  3121  1  0.57900700  0.86044000  0.61881700  1
  C  3122  1  0.57407300  0.86094900  0.64046300  1
  C  3123  1  0.59317600  0.86177500  0.65541200  1
  C  3124  1  0.61744000  0.86231100  0.64770200  1
  C  3125  1  0.62221200  0.86193200  0.62609300  1
  C  3126  1  0.63010100  0.84551300  0.58217800  1
  C  3127  1  0.58944000  0.85607700  0.57156100  1
  C  3128  1  0.57403500  0.83839100  0.57413800  1
  C  3129  1  0.55475400  0.83375400  0.56013400  1
  C  3130  1  0.55016500  0.84608400  0.54213800  1
  C  3131  1  0.56662900  0.86274500  0.53846800  1
  C  3132  1  0.58588700  0.86724800  0.55251900  1
  C  3133  1  0.64565000  0.84782700  0.56453500  1
  C  3134  1  0.66541400  0.83409900  0.56054800  1
  C  3135  1  0.67020600  0.81652300  0.57340600  1
  C  3136  1  0.65330200  0.81283700  0.58975100  1
  C  3137  1  0.63367200  0.82667800  0.59367900  1
  C  3154  1  0.53062000  0.84116900  0.52861000  1
  C  3155  1  0.63206300  0.95070000  0.58275800  1
  C  3158  1  0.58789200  0.86319200  0.67676400  1
  C  3160  1  0.69091900  0.80384100  0.56986600  1
  C  3162  1  0.12663000  0.58712500  0.38462400  1
  C  3163  1  0.14565300  0.60216300  0.38491000  1
  C  3164  1  0.14064500  0.62376500  0.38395000  1
  C  3165  1  0.11634800  0.63168100  0.38332200  1
  C  3166  1  0.09752370  0.61627700  0.38205700  1
  C  3167  1  0.10237600  0.59468400  0.38293300  1
  C  3168  1  0.10978700  0.65505600  0.38189100  1
  C  3169  1  0.10328200  0.65610000  0.35848800  1
  C  3170  1  0.07900670  0.65606000  0.35048300  1
  C  3171  1  0.07407370  0.65554300  0.32883700  1
  C  3172  1  0.09317770  0.65474200  0.31388800  1
  C  3173  1  0.11744200  0.65423700  0.32160000  1
  C  3174  1  0.12221000  0.65462800  0.34320800  1
  C  3175  1  0.13010200  0.67102200  0.38712600  1
  C  3176  1  0.08943070  0.66046300  0.39773400  1
  C  3177  1  0.07401270  0.67813900  0.39514900  1
  C  3178  1  0.05473870  0.68278200  0.40915800  1
  C  3179  1  0.05017070  0.67046700  0.42716800  1
  C  3180  1  0.06665570  0.65382500  0.43085200  1
  C  3181  1  0.08590870  0.64931900  0.41679600  1
  C  3182  1  0.14565900  0.66869800  0.40476300  1
  C  3183  1  0.16542800  0.68242100  0.40874600  1
  C  3184  1  0.17020000  0.70001600  0.39590500  1
  C  3185  1  0.15327600  0.70371600  0.37957900  1
  C  3186  1  0.13364400  0.68987700  0.37565200  1
  C  3203  1  0.03062970  0.67538400  0.44069900  1
  C  3204  1  0.13205200  0.56583800  0.38651000  1
  C  3207  1  0.08789670  0.65332200  0.29253500  1
  C  3209  1  0.19091600  0.71269500  0.39944100  1
  C  3211  1  0.37669100  0.15830500  0.15590400  1
  C  3212  1  0.39567900  0.15938700  0.14086900  1
  C  3213  1  0.39073800  0.15835300  0.11926000  1
  C  3214  1  0.36650300  0.15681600  0.11134200  1
  C  3215  1  0.34775400  0.15476900  0.12672900  1
  C  3216  1  0.35255100  0.15570600  0.14832900  1
  C  3217  1  0.35990600  0.15553900  0.08796700  1
  C  3218  1  0.35314800  0.13219800  0.08665900  1
  C  3219  1  0.32888800  0.12439900  0.08483900  1
  C  3220  1  0.32383400  0.10281100  0.08368400  1
  C  3221  1  0.34272400  0.08769000  0.08489600  1
  C  3222  1  0.36687300  0.09515400  0.08773200  1
  C  3223  1  0.37178400  0.11672500  0.08879700  1
  C  3224  1  0.38033900  0.16068300  0.07205000  1
  C  3225  1  0.33964000  0.17153100  0.08263000  1
  C  3226  1  0.32527800  0.16973100  0.06421300  1
  C  3227  1  0.30607900  0.18377600  0.05946100  1
  C  3228  1  0.30054300  0.20110500  0.07244100  1
  C  3229  1  0.31599000  0.20408200  0.08992300  1
  C  3230  1  0.33515600  0.18998100  0.09454200  1
  C  3231  1  0.39525400  0.17877000  0.07398700  1
  C  3232  1  0.41498500  0.18292500  0.06026600  1
  C  3233  1  0.42035600  0.16976800  0.04303500  1
  C  3234  1  0.40410700  0.15288200  0.03970500  1
  C  3235  1  0.38453300  0.14879400  0.05354300  1
  C  3252  1  0.28107800  0.21467400  0.06741500  1
  C  3253  1  0.38202800  0.16030100  0.17719900  1
  C  3256  1  0.33732200  0.06641800  0.08276700  1
  C  3258  1  0.44098800  0.17350400  0.03032400  1
  C  3260  1  0.87668800  0.35822600  0.81339000  1
  C  3261  1  0.89567700  0.35713400  0.82842600  1
  C  3262  1  0.89073300  0.35817000  0.85003500  1
  C  3263  1  0.86650000  0.35973300  0.85795000  1
  C  3264  1  0.84775100  0.36177600  0.84256100  1
  C  3265  1  0.85255000  0.36082800  0.82096200  1
  C  3266  1  0.85990300  0.36100300  0.88132600  1
  C  3267  1  0.85314600  0.38434500  0.88263000  1
  C  3268  1  0.82888700  0.39214000  0.88447700  1
  C  3269  1  0.82383100  0.41372800  0.88562700  1
  C  3270  1  0.84271800  0.42885100  0.88440700  1
  C  3271  1  0.86686800  0.42139100  0.88157400  1
  C  3272  1  0.87178100  0.39981900  0.88050000  1
  C  3273  1  0.88033200  0.35585400  0.89724700  1
  C  3274  1  0.83963700  0.34501000  0.88665800  1
  C  3275  1  0.82528100  0.34680300  0.90508000  1
  C  3276  1  0.80608100  0.33275800  0.90983100  1
  C  3277  1  0.80054600  0.31543200  0.89684600  1
  C  3278  1  0.81598500  0.31246300  0.87935900  1
  C  3279  1  0.83515200  0.32656400  0.87474300  1
  C  3280  1  0.89524600  0.33776700  0.89531300  1
  C  3281  1  0.91498800  0.33362200  0.90902500  1
  C  3282  1  0.92035700  0.34678000  0.92625500  1
  C  3283  1  0.90411100  0.36366900  0.92958100  1
  C  3284  1  0.88453600  0.36775400  0.91574400  1
  C  3301  1  0.78108600  0.30185800  0.90187500  1
  C  3302  1  0.88202700  0.35623300  0.79209500  1
  C  3305  1  0.83730800  0.45012300  0.88652300  1
  C  3307  1  0.94099300  0.34304600  0.93896400  1
  C  3309  1  0.84276700  0.58769200  0.58486400  1
  C  3310  1  0.82382200  0.60280500  0.58443400  1
  C  3311  1  0.82892400  0.62439200  0.58551000  1
  C  3312  1  0.85325200  0.63220400  0.58644900  1
  C  3313  1  0.87198400  0.61672700  0.58778100  1
  C  3314  1  0.86703500  0.59515800  0.58678600  1
  C  3315  1  0.85994400  0.65555200  0.58791600  1
  C  3316  1  0.86629800  0.65654700  0.61134800  1
  C  3317  1  0.89052900  0.65628300  0.61945100  1
  C  3318  1  0.89534700  0.65564600  0.64110900  1
  C  3319  1  0.87615800  0.65494900  0.65598200  1
  C  3320  1  0.85192900  0.65464800  0.64817700  1
  C  3321  1  0.84727500  0.65516200  0.62655000  1
  C  3322  1  0.83977500  0.67158400  0.58251200  1
  C  3323  1  0.88044200  0.66079500  0.57213400  1
  C  3324  1  0.89639500  0.67810600  0.57486700  1
  C  3325  1  0.91618300  0.68213100  0.56116800  1
  C  3326  1  0.92061900  0.66965200  0.54324600  1
  C  3327  1  0.90337800  0.65364700  0.53922800  1
  C  3328  1  0.88371500  0.64969600  0.55302000  1
  C  3329  1  0.82475900  0.66940700  0.56452500  1
  C  3330  1  0.80552400  0.68346000  0.55991900  1
  C  3331  1  0.80061700  0.70115500  0.57258500  1
  C  3332  1  0.81675500  0.70450000  0.58954600  1
  C  3333  1  0.83596500  0.69038300  0.59402500  1
  C  3350  1  0.94129900  0.67321800  0.53052900  1
  C  3351  1  0.83729200  0.56642200  0.58287700  1
  C  3354  1  0.88134600  0.65338600  0.67733900  1
  C  3356  1  0.78109700  0.71471200  0.56767500  1
  C  3358  1  0.34274800  0.92884400  0.38442900  1
  C  3359  1  0.32380700  0.91372900  0.38486700  1
  C  3360  1  0.32891000  0.89214300  0.38379500  1
  C  3361  1  0.35323800  0.88433400  0.38285600  1
  C  3362  1  0.37196900  0.89981100  0.38151500  1
  C  3363  1  0.36701800  0.92137900  0.38250500  1
  C  3364  1  0.35993700  0.86098500  0.38138800  1
  C  3365  1  0.36629400  0.85999000  0.35795500  1
  C  3366  1  0.39052500  0.86024800  0.34985300  1
  C  3367  1  0.39534200  0.86089000  0.32819500  1
  C  3368  1  0.37615600  0.86159000  0.31332200  1
  C  3369  1  0.35192800  0.86189100  0.32112400  1
  C  3370  1  0.34727200  0.86138200  0.34275200  1
  C  3371  1  0.33976900  0.84495200  0.38679000  1
  C  3372  1  0.38043600  0.85574500  0.39717000  1
  C  3373  1  0.39637600  0.83842200  0.39444800  1
  C  3374  1  0.41617400  0.83441200  0.40814000  1
  C  3375  1  0.42061400  0.84689500  0.42605600  1
  C  3376  1  0.40337000  0.86289500  0.43007600  1
  C  3377  1  0.38371800  0.86685400  0.41627800  1
  C  3378  1  0.32475800  0.84712900  0.40478000  1
  C  3379  1  0.30552900  0.83307200  0.40939200  1
  C  3380  1  0.30061800  0.81537700  0.39672600  1
  C  3381  1  0.31674100  0.81204200  0.37975300  1
  C  3382  1  0.33595000  0.82615900  0.37527000  1
  C  3399  1  0.44129800  0.84333400  0.43877000  1
  C  3400  1  0.33727100  0.95011400  0.38641800  1
  C  3403  1  0.38134500  0.86315400  0.29196500  1
  C  3405  1  0.28109300  0.80182500  0.40163300  1
  C  3407  1  0.09266870  0.35843700  0.15534000  1
  C  3408  1  0.07377070  0.35720600  0.14022900  1
  C  3409  1  0.07880670  0.35834900  0.11863600  1
  C  3410  1  0.10306000  0.36018500  0.11082400  1
  C  3411  1  0.12170600  0.36233200  0.12628700  1
  C  3412  1  0.11681200  0.36127000  0.14786100  1
  C  3413  1  0.10980300  0.36148100  0.08747900  1
  C  3414  1  0.11642000  0.38485100  0.08619900  1
  C  3415  1  0.14066000  0.39274900  0.08462200  1
  C  3416  1  0.14562200  0.41435300  0.08356100  1
  C  3417  1  0.12664600  0.42940100  0.08464500  1
  C  3418  1  0.10250300  0.42184700  0.08726900  1
  C  3419  1  0.09768570  0.40025200  0.08824500  1
  C  3420  1  0.08952970  0.35615200  0.07148700  1
  C  3421  1  0.13022500  0.34555500  0.08232600  1
  C  3422  1  0.14510400  0.34747500  0.06421600  1
  C  3423  1  0.16486000  0.33377800  0.06007400  1
  C  3424  1  0.17026700  0.31657000  0.07324900  1
  C  3425  1  0.15404600  0.31324900  0.09015600  1
  C  3426  1  0.13445800  0.32707000  0.09424100  1
  C  3427  1  0.07515470  0.33774300  0.07328700  1
  C  3428  1  0.05595870  0.33299600  0.05923600  1
  C  3429  1  0.05043770  0.34597600  0.04190100  1
  C  3430  1  0.06588970  0.36345600  0.03893400  1
  C  3431  1  0.08504770  0.36807200  0.05304300  1
  C  3448  1  0.19092200  0.30388600  0.06952000  1
  C  3449  1  0.08728070  0.35634100  0.17661900  1
  C  3452  1  0.13200000  0.45068800  0.08261900  1
  C  3454  1  0.03098170  0.34095000  0.02832100  1
  C  3456  1  0.59265900  0.15809500  0.81395700  1
  C  3457  1  0.57376400  0.15933100  0.82907100  1
  C  3458  1  0.57880400  0.15818800  0.85066400  1
  C  3459  1  0.60305900  0.15634900  0.85847300  1
  C  3460  1  0.62170200  0.15420700  0.84300700  1
  C  3461  1  0.61680300  0.15525700  0.82143300  1
  C  3462  1  0.60980600  0.15505400  0.88181700  1
  C  3463  1  0.61642600  0.13168300  0.88309700  1
  C  3464  1  0.64066900  0.12378700  0.88466600  1
  C  3465  1  0.64563200  0.10218200  0.88571700  1
  C  3466  1  0.62665600  0.08713500  0.88463600  1
  C  3467  1  0.60251100  0.09468800  0.88202000  1
  C  3468  1  0.59769300  0.11628400  0.88105000  1
  C  3469  1  0.58953800  0.16038200  0.89781400  1
  C  3470  1  0.63022900  0.17097900  0.88696800  1
  C  3471  1  0.64511800  0.16905400  0.90507100  1
  C  3472  1  0.66486500  0.18275900  0.90922100  1
  C  3473  1  0.67027400  0.19996400  0.89604100  1
  C  3474  1  0.65405100  0.20328400  0.87913500  1
  C  3475  1  0.63446200  0.18946200  0.87505300  1
  C  3476  1  0.57517300  0.17879700  0.89601600  1
  C  3477  1  0.55596700  0.18353800  0.91005900  1
  C  3478  1  0.55043900  0.17055700  0.92739000  1
  C  3479  1  0.56589200  0.15307700  0.93036200  1
  C  3480  1  0.58505100  0.14845900  0.91625300  1
  C  3497  1  0.69092400  0.21265300  0.89977400  1
  C  3498  1  0.58726700  0.16018800  0.79267900  1
  C  3501  1  0.63201600  0.06584700  0.88664700  1
  C  3503  1  0.53098900  0.17558700  0.94097400  1
  C  3505  1  0.21518800  0.27333900  0.39095000  1
  C  3506  1  0.22024200  0.26092900  0.37326000  1
  C  3507  1  0.23961100  0.24610800  0.37286500  1
  C  3508  1  0.25457100  0.24314700  0.39087700  1
  C  3509  1  0.24989100  0.25568000  0.40887600  1
  C  3511  1  0.23023000  0.27024000  0.40867000  1
  C  3513  1  0.24405500  0.23379800  0.35349900  1
  C  3517  1  0.26512000  0.25488700  0.42813900  1
  C  3523  1  0.71518900  0.24320100  0.57833700  1
  C  3524  1  0.72023700  0.25561900  0.59602400  1
  C  3525  1  0.73961200  0.27043400  0.59642000  1
  C  3526  1  0.75457700  0.27338900  0.57841000  1
  C  3527  1  0.74990300  0.26084900  0.56041600  1
  C  3529  1  0.73024000  0.24629200  0.56061900  1
  C  3531  1  0.74405200  0.28274900  0.61578300  1
  C  3535  1  0.76513000  0.26164700  0.54115100  1
  C  3541  1  0.46518700  0.85201100  0.99971900  1
  C  3542  1  0.47028100  0.86971400  0.98734400  1
  C  3543  1  0.48965200  0.87010000  0.97252800  1
  C  3544  1  0.50459200  0.85207500  0.96955900  1
  C  3545  1  0.49992800  0.83408800  0.98212000  1
  C  3547  1  0.48023900  0.83429400  0.99665300  1
  C  3549  1  0.49410000  0.88947800  0.96023200  1
  C  3553  1  0.51522300  0.81485800  0.98144700  1
  C  3559  1  0.96519500  0.66452000  0.96957500  1
  C  3560  1  0.97028500  0.64681700  0.98195200  1
  C  3561  1  0.98965500  0.64643000  0.99676800  1
  C  3562  1  0.00459972  0.66445300  0.99973700  1
  C  3563  1  0.99992700  0.68244500  0.98718400  1
  C  3565  1  0.98023800  0.68224000  0.97265300  1
  C  3567  1  0.99410400  0.62705100  0.00906400  1
  C  3571  1  0.01521570  0.70167800  0.98786700  1
  C  3577  1  0.75419600  0.74319900  0.57849000  1
  C  3578  1  0.74909500  0.75557000  0.59619400  1
  C  3579  1  0.72973000  0.77039300  0.59658000  1
  C  3580  1  0.71478900  0.77337000  0.57855500  1
  C  3581  1  0.71946400  0.76081400  0.56056500  1
  C  3583  1  0.73915400  0.74628200  0.56076900  1
  C  3585  1  0.72528100  0.78268600  0.61595800  1
  C  3589  1  0.70417400  0.76149500  0.54133200  1
  C  3595  1  0.25419500  0.77333400  0.39082400  1
  C  3596  1  0.24910100  0.76095700  0.37312300  1
  C  3597  1  0.22973100  0.74613800  0.37273400  1
  C  3598  1  0.21478300  0.74316800  0.39075500  1
  C  3599  1  0.21945000  0.75573100  0.40874200  1
  C  3601  1  0.23914400  0.77026000  0.40854000  1
  C  3603  1  0.22528600  0.73384100  0.35335700  1
  C  3607  1  0.20416100  0.75504800  0.42797500  1
  C  3613  1  0.50410900  0.16479400  0.96950400  1
  C  3614  1  0.49908500  0.14709300  0.98189800  1
  C  3615  1  0.47981600  0.14671600  0.99680800  1
  C  3616  1  0.46491200  0.16475200  0.99985300  1
  C  3617  1  0.46949100  0.18273100  0.98725600  1
  C  3619  1  0.48908800  0.18251700  0.97263200  1
  C  3621  1  0.47543900  0.12733300  0.00911700  1
  C  3625  1  0.45418300  0.20195200  0.98796400  1
  C  3631  1  0.00409872  0.35174900  0.99979500  1
  C  3632  1  0.99907900  0.36945200  0.98740100  1
  C  3633  1  0.97981100  0.36983000  0.97249100  1
  C  3634  1  0.96490500  0.35179600  0.96944400  1
  C  3635  1  0.96949500  0.33381100  0.98203000  1
  C  3637  1  0.98909100  0.33402200  0.99665300  1
  C  3639  1  0.97543400  0.38921500  0.96018400  1
  C  3643  1  0.95419500  0.31458500  0.98131300  1
  C  3649  1  0.71525600  0.77340500  0.89117500  1
  C  3650  1  0.72025500  0.76099400  0.87347900  1
  C  3651  1  0.73952600  0.74608500  0.87309300  1
  C  3652  1  0.75444500  0.74304800  0.89111900  1
  C  3653  1  0.74985300  0.75562000  0.90910900  1
  C  3655  1  0.73026900  0.77025700  0.90890100  1
  C  3657  1  0.74390500  0.73377400  0.85371500  1
  C  3661  1  0.76512100  0.75483800  0.92835000  1
  C  3667  1  0.21525200  0.74313700  0.07812700  1
  C  3668  1  0.22024700  0.75555300  0.09582100  1
  C  3669  1  0.23952200  0.77045700  0.09620800  1
  C  3670  1  0.25444300  0.77349300  0.07818300  1
  C  3671  1  0.24985400  0.76091400  0.06019600  1
  C  3673  1  0.23026800  0.74628100  0.06040300  1
  C  3675  1  0.24390100  0.78277000  0.11558600  1
  C  3679  1  0.26511800  0.76170000  0.04095300  1
  C  3685  1  0.96516400  0.35206200  0.49969200  1
  C  3686  1  0.97023200  0.36974900  0.48728300  1
  C  3687  1  0.98962900  0.37014900  0.47249000  1
  C  3688  1  0.00459372  0.35213500  0.46954900  1
  C  3689  1  0.99990500  0.33414000  0.48208500  1
  C  3691  1  0.98022400  0.33434700  0.49662400  1
  C  3693  1  0.99408900  0.38951300  0.46018300  1
  C  3697  1  0.01514470  0.31488200  0.48131500  1
  C  3703  1  0.46517700  0.16445500  0.46959300  1
  C  3704  1  0.47024400  0.14676900  0.48200300  1
  C  3705  1  0.48963800  0.14637300  0.49679900  1
  C  3706  1  0.50460300  0.16438500  0.49974200  1
  C  3707  1  0.49990600  0.18238300  0.48721200  1
  C  3709  1  0.48022500  0.18217600  0.47267200  1
  C  3711  1  0.49409900  0.12700800  0.50910800  1
  C  3715  1  0.51513600  0.20164700  0.48798800  1
  C  3721  1  0.25413800  0.24315100  0.07822800  1
  C  3722  1  0.24909200  0.25553300  0.09593300  1
  C  3723  1  0.22980100  0.27041800  0.09631300  1
  C  3724  1  0.21488400  0.27344200  0.07828200  1
  C  3725  1  0.21948800  0.26085900  0.06029800  1
  C  3727  1  0.23911700  0.24626700  0.06050400  1
  C  3729  1  0.22540500  0.28272200  0.11569600  1
  C  3733  1  0.20417500  0.26154600  0.04107900  1
  C  3739  1  0.75414500  0.27338300  0.89106300  1
  C  3740  1  0.74910000  0.26099800  0.87335900  1
  C  3741  1  0.72980500  0.24611400  0.87297900  1
  C  3742  1  0.71488600  0.24309400  0.89100800  1
  C  3743  1  0.71948600  0.25568300  0.90898900  1
  C  3745  1  0.73911700  0.27027200  0.90878400  1
  C  3747  1  0.72541100  0.23381000  0.85359600  1
  C  3751  1  0.70417600  0.25499300  0.92821100  1
  C  3757  1  0.00412072  0.66471800  0.46951500  1
  C  3758  1  0.99912600  0.64702500  0.48193400  1
  C  3759  1  0.97985500  0.64664100  0.49684400  1
  C  3760  1  0.96494400  0.66467000  0.49988900  1
  C  3761  1  0.96952800  0.68265400  0.48730600  1
  C  3763  1  0.98910300  0.68244100  0.47266200  1
  C  3765  1  0.97547800  0.62726200  0.50915700  1
  C  3769  1  0.95426100  0.70189600  0.48808900  1
  C  3775  1  0.50410700  0.85183800  0.49979800  1
  C  3776  1  0.49911200  0.86953000  0.48737700  1
  C  3777  1  0.47984400  0.86991200  0.47246500  1
  C  3778  1  0.46493200  0.85188300  0.46941800  1
  C  3779  1  0.46952600  0.83389500  0.48199400  1
  C  3781  1  0.48910100  0.83410900  0.49664000  1
  C  3783  1  0.47546400  0.88929100  0.46015300  1
  C  3787  1  0.45426900  0.81464700  0.48120300  1
  C  3793  1  0.36865600  0.15532300  0.21276800  1
  C  3794  1  0.35349800  0.14177400  0.22432700  1
  C  3795  1  0.35275100  0.14224700  0.24644600  1
  C  3796  1  0.36759300  0.15683500  0.25748800  1
  C  3797  1  0.38248800  0.17110700  0.24604000  1
  C  3799  1  0.38297400  0.16992000  0.22393500  1
  C  3801  1  0.33634900  0.12751700  0.25778300  1
  C  3805  1  0.39725000  0.18795500  0.25594600  1
  C  3811  1  0.86866800  0.36122600  0.75652400  1
  C  3812  1  0.85350100  0.37477300  0.74497000  1
  C  3813  1  0.85274800  0.37430100  0.72285100  1
  C  3814  1  0.86759000  0.35971400  0.71180700  1
  C  3815  1  0.88248400  0.34544100  0.72325000  1
  C  3817  1  0.88297800  0.34662700  0.74535500  1
  C  3819  1  0.83634100  0.38902900  0.71151800  1
  C  3823  1  0.89725800  0.32860500  0.71333700  1
  C  3829  1  0.61871400  0.03026700  0.88165600  1
  C  3830  1  0.60362800  0.01869000  0.86806700  1
  C  3831  1  0.60292000  0.99656900  0.86854000  1
  C  3832  1  0.61772300  0.98554600  0.88317600  1
  C  3833  1  0.63250300  0.99701700  0.89751600  1
  C  3835  1  0.63296000  0.01912400  0.89631900  1
  C  3837  1  0.58660400  0.98521700  0.85375000  1
  C  3841  1  0.64714700  0.98715300  0.91446200  1
  C  3847  1  0.11867900  0.48626800  0.08760200  1
  C  3848  1  0.10361200  0.49784400  0.10120500  1
  C  3849  1  0.10290800  0.51996500  0.10073600  1
  C  3850  1  0.11770600  0.53099000  0.08609900  1
  C  3851  1  0.13249700  0.51951900  0.07176600  1
  C  3853  1  0.13295100  0.49741200  0.07295900  1
  C  3855  1  0.08659770  0.53131800  0.11553100  1
  C  3859  1  0.14715400  0.52938300  0.05482800  1
  C  3865  1  0.10063800  0.36126500  0.21222400  1
  C  3866  1  0.11583700  0.37477000  0.22379500  1
  C  3867  1  0.11665100  0.37422300  0.24591100  1
  C  3868  1  0.10183000  0.35960400  0.25693000  1
  C  3869  1  0.08687970  0.34538800  0.24546900  1
  C  3871  1  0.08633370  0.34664400  0.22336800  1
  C  3873  1  0.13309100  0.38890600  0.25727000  1
  C  3877  1  0.07210370  0.32854000  0.25535900  1
  C  3883  1  0.60061300  0.15526300  0.75707300  1
  C  3884  1  0.61581700  0.14176200  0.74550200  1
  C  3885  1  0.61663400  0.14231200  0.72338600  1
  C  3886  1  0.60181800  0.15693500  0.71236600  1
  C  3887  1  0.58687700  0.17115700  0.72382900  1
  C  3889  1  0.58632100  0.16989500  0.74593000  1
  C  3891  1  0.63307500  0.12763000  0.71202900  1
  C  3895  1  0.57210000  0.18800300  0.71393900  1
  C  3901  1  0.85059900  0.48573700  0.88159400  1
  C  3902  1  0.86572100  0.49733000  0.86804600  1
  C  3903  1  0.86649400  0.51944700  0.86859800  1
  C  3904  1  0.85172400  0.53044800  0.88327200  1
  C  3905  1  0.83690000  0.51895600  0.89756300  1
  C  3907  1  0.83637900  0.49685600  0.89629400  1
  C  3909  1  0.88283900  0.53082100  0.85384800  1
  C  3913  1  0.82226300  0.52880000  0.91452700  1
  C  3919  1  0.35063400  0.03080400  0.08768400  1
  C  3920  1  0.36574000  0.01921100  0.10124500  1
  C  3921  1  0.36650800  0.99709400  0.10069900  1
  C  3922  1  0.35173900  0.98609300  0.08602300  1
  C  3923  1  0.33690500  0.99758300  0.07174000  1
  C  3925  1  0.33638600  0.01968400  0.07300600  1
  C  3927  1  0.38284700  0.98572000  0.11545300  1
  C  3931  1  0.32225100  0.98773900  0.05478600  1
  C  3937  1  0.60069700  0.86120100  0.75670000  1
  C  3938  1  0.61585500  0.87473400  0.74512700  1
  C  3939  1  0.61653800  0.87428200  0.72300600  1
  C  3940  1  0.60165200  0.85971400  0.71197600  1
  C  3941  1  0.58679300  0.84543000  0.72344500  1
  C  3943  1  0.58634300  0.84661700  0.74555300  1
  C  3945  1  0.63292400  0.88902100  0.71166000  1
  C  3949  1  0.57206500  0.82853600  0.71357800  1
  C  3955  1  0.10068000  0.65533700  0.21260200  1
  C  3956  1  0.11584400  0.64180400  0.22417000  1
  C  3957  1  0.11653200  0.64225400  0.24629000  1
  C  3958  1  0.10164700  0.65682000  0.25732600  1
  C  3959  1  0.08679170  0.67111100  0.24585900  1
  C  3961  1  0.08633570  0.66992400  0.22375200  1
  C  3963  1  0.13292000  0.62751400  0.25763500  1
  C  3967  1  0.07205570  0.68799500  0.25573200  1
  C  3973  1  0.86876500  0.65529600  0.75724400  1
  C  3974  1  0.85355800  0.64181200  0.74565800  1
  C  3975  1  0.85280700  0.64234000  0.72354000  1
  C  3976  1  0.86767800  0.65693300  0.71253100  1
  C  3977  1  0.88258600  0.67116700  0.72401700  1
  C  3979  1  0.88308800  0.66991400  0.74611800  1
  C  3981  1  0.83637600  0.62765300  0.71217400  1
  C  3985  1  0.89732600  0.68806200  0.71416500  1
  C  3991  1  0.36873600  0.86121500  0.21205800  1
  C  3992  1  0.35354600  0.87471300  0.22364300  1
  C  3993  1  0.35280200  0.87419200  0.24576000  1
  C  3994  1  0.36767000  0.85959700  0.25677200  1
  C  3995  1  0.38258900  0.84537100  0.24528900  1
  C  3997  1  0.38308900  0.84661800  0.22318500  1
  C  3999  1  0.33637700  0.88888300  0.25712700  1
  C  4003  1  0.39734500  0.82848800  0.25514200  1
  C  4009  1  0.11861500  0.53026800  0.38173400  1
  C  4010  1  0.10338800  0.51869100  0.36825700  1
  C  4011  1  0.10268200  0.49657000  0.36873700  1
  C  4012  1  0.11762500  0.48554700  0.38326600  1
  C  4013  1  0.13258300  0.49701600  0.39747000  1
  C  4015  1  0.13303600  0.51912300  0.39627200  1
  C  4017  1  0.08621270  0.48520900  0.35407600  1
  C  4021  1  0.14744500  0.48713500  0.41426800  1
  C  4027  1  0.61864300  0.98627200  0.58754700  1
  C  4028  1  0.60341500  0.99784800  0.60102400  1
  C  4029  1  0.60270500  0.01997000  0.60054100  1
  C  4030  1  0.61764300  0.03099300  0.58600900  1
  C  4031  1  0.63259300  0.01952300  0.57179900  1
  C  4033  1  0.63305100  0.99741600  0.57300100  1
  C  4035  1  0.58623900  0.03132900  0.61520300  1
  C  4039  1  0.64745700  0.02940500  0.55500200  1
  C  4045  1  0.35067300  0.98572100  0.38168500  1
  C  4046  1  0.36593500  0.99731400  0.36825100  1
  C  4047  1  0.36670200  0.01943300  0.36880500  1
  C  4048  1  0.35178300  0.03043200  0.38336700  1
  C  4049  1  0.33679100  0.01894400  0.39753000  1
  C  4051  1  0.33629100  0.99684300  0.39626700  1
  C  4053  1  0.38320300  0.03081300  0.35418700  1
  C  4057  1  0.32193000  0.02880700  0.41434100  1
  C  4063  1  0.85071900  0.53081500  0.58759900  1
  C  4064  1  0.86597600  0.51922500  0.60104100  1
  C  4065  1  0.86673600  0.49710700  0.60049600  1
  C  4066  1  0.85180600  0.48610400  0.58594500  1
  C  4067  1  0.83678800  0.49758600  0.57179700  1
  C  4069  1  0.83629300  0.51969000  0.57305100  1
  C  4071  1  0.88324200  0.48572800  0.61510900  1
  C  4075  1  0.82189300  0.48771800  0.55501200  1
  C  4081  1  0.58162700  0.08700200  0.38124600  1
  C  4082  1  0.56247600  0.10190300  0.38042400  1
  C  4083  1  0.56726900  0.12355700  0.38118800  1
  C  4084  1  0.59138300  0.13166100  0.38328600  1
  C  4085  1  0.61044100  0.11643100  0.38334500  1
  C  4086  1  0.60580900  0.09480000  0.38265500  1
  C  4087  1  0.59765700  0.15510300  0.38210000  1
  C  4088  1  0.60406500  0.15636000  0.35868800  1
  C  4089  1  0.62825600  0.15454200  0.35068600  1
  C  4090  1  0.63317700  0.15389700  0.32904400  1
  C  4091  1  0.61409900  0.15462800  0.31406700  1
  C  4092  1  0.58986000  0.15583600  0.32176900  1
  C  4093  1  0.58509600  0.15637000  0.34337900  1
  C  4094  1  0.57725400  0.17086100  0.38755100  1
  C  4095  1  0.61793400  0.16069300  0.39791300  1
  C  4096  1  0.63453900  0.17743000  0.39457600  1
  C  4097  1  0.65387200  0.18188100  0.40857700  1
  C  4098  1  0.65734800  0.17033200  0.42725400  1
  C  4099  1  0.63969900  0.15474600  0.43161700  1
  C  4100  1  0.62034700  0.15044700  0.41758000  1
  C  4101  1  0.56011200  0.16737100  0.40386300  1
  C  4102  1  0.54028200  0.18108200  0.40764700  1
  C  4103  1  0.53694200  0.19969300  0.39596000  1
  C  4104  1  0.55534200  0.20438200  0.38110500  1
  C  4105  1  0.57507900  0.19058500  0.37738500  1
  C  4122  1  0.67698900  0.17508100  0.44073000  1
  C  4123  1  0.57653900  0.06562700  0.37951200  1
  C  4126  1  0.61930100  0.15303500  0.29270100  1
  C  4128  1  0.51617900  0.21240300  0.39923400  1
  C  4130  1  0.08165410  0.42953700  0.58809700  1
  C  4131  1  0.06250610  0.41463700  0.58898700  1
  C  4132  1  0.06729410  0.39298300  0.58818600  1
  C  4133  1  0.09139310  0.38487000  0.58599000  1
  C  4134  1  0.11044900  0.40010200  0.58589000  1
  C  4135  1  0.10582500  0.42173400  0.58659400  1
  C  4136  1  0.09765810  0.36142900  0.58718900  1
  C  4137  1  0.10406200  0.36016100  0.61060000  1
  C  4138  1  0.12823800  0.36208400  0.61861000  1
  C  4139  1  0.13315800  0.36274400  0.64025200  1
  C  4140  1  0.11408500  0.36194600  0.65522700  1
  C  4141  1  0.08985410  0.36066100  0.64752300  1
  C  4142  1  0.08509510  0.36011000  0.62591100  1
  C  4143  1  0.07724910  0.34568000  0.58173100  1
  C  4144  1  0.11794200  0.35583300  0.57138800  1
  C  4145  1  0.13459500  0.33913700  0.57475500  1
  C  4146  1  0.15392200  0.33468200  0.56075200  1
  C  4147  1  0.15735100  0.34618900  0.54204200  1
  C  4148  1  0.13965000  0.36172400  0.53764400  1
  C  4149  1  0.12030000  0.36602200  0.55168600  1
  C  4150  1  0.06005910  0.34920500  0.56546400  1
  C  4151  1  0.04022810  0.33549400  0.56168400  1
  C  4152  1  0.03693710  0.31684800  0.57332700  1
  C  4153  1  0.05538710  0.31212900  0.58812800  1
  C  4154  1  0.07512710  0.32592400  0.59184000  1
  C  4171  1  0.17699000  0.34144200  0.52856500  1
  C  4172  1  0.07657810  0.45091100  0.58985400  1
  C  4175  1  0.11928000  0.36354900  0.67659500  1
  C  4177  1  0.01617210  0.30414000  0.57006300  1
  C  4179  1  0.83092500  0.85825500  0.81354900  1
  C  4180  1  0.81190500  0.85797400  0.82859000  1
  C  4181  1  0.81692000  0.85893500  0.85019100  1
  C  4182  1  0.84122100  0.85955300  0.85810000  1
  C  4183  1  0.86004100  0.86081000  0.84269300  1
  C  4184  1  0.85518200  0.85994000  0.82110200  1
  C  4185  1  0.84778800  0.86098800  0.88147300  1
  C  4186  1  0.85428900  0.88439000  0.88251500  1
  C  4187  1  0.87856500  0.89239600  0.88246300  1
  C  4188  1  0.88349800  0.91404000  0.88194300  1
  C  4189  1  0.86439200  0.92899000  0.88115900  1
  C  4190  1  0.84012800  0.92127800  0.88065300  1
  C  4191  1  0.83535900  0.89966900  0.88104700  1
  C  4192  1  0.82747400  0.85574500  0.89743300  1
  C  4193  1  0.86814600  0.84515500  0.88688800  1
  C  4194  1  0.88355100  0.84774900  0.90457000  1
  C  4195  1  0.90282400  0.83374300  0.90922700  1
  C  4196  1  0.90740100  0.81573100  0.89691900  1
  C  4197  1  0.89093000  0.81203900  0.88026900  1
  C  4198  1  0.87167700  0.82608900  0.87575100  1
  C  4199  1  0.81193100  0.83810000  0.89510400  1
  C  4200  1  0.79216900  0.83409900  0.90882900  1
  C  4201  1  0.78738400  0.84694200  0.92641900  1
  C  4202  1  0.80429300  0.86327800  0.93012300  1
  C  4203  1  0.82392100  0.86721700  0.91628600  1
  C  4220  1  0.92694000  0.80220600  0.90184700  1
  C  4221  1  0.82549500  0.85637600  0.79226600  1
  C  4224  1  0.86967200  0.95034100  0.87972100  1
  C  4226  1  0.76667000  0.84339300  0.93909400  1
  C  4228  1  0.33092500  0.65829900  0.15575200  1
  C  4229  1  0.31190700  0.65859900  0.14070900  1
  C  4230  1  0.31692200  0.65763300  0.11910900  1
  C  4231  1  0.34122500  0.65697400  0.11120500  1
  C  4232  1  0.36004300  0.65571800  0.12661200  1
  C  4233  1  0.35518200  0.65659700  0.14820300  1
  C  4234  1  0.34779000  0.65554600  0.08783100  1
  C  4235  1  0.35428200  0.63214100  0.08679900  1
  C  4236  1  0.37855900  0.62413900  0.08679000  1
  C  4237  1  0.38349000  0.60249300  0.08731700  1
  C  4238  1  0.36438600  0.58754500  0.08812100  1
  C  4239  1  0.34012400  0.59525700  0.08865300  1
  C  4240  1  0.33535200  0.61686400  0.08826100  1
  C  4241  1  0.32747800  0.66079200  0.07186600  1
  C  4242  1  0.36815000  0.67138100  0.08242100  1
  C  4243  1  0.38354300  0.66879600  0.06472800  1
  C  4244  1  0.40281400  0.68280200  0.06007100  1
  C  4245  1  0.40740100  0.70080800  0.07238700  1
  C  4246  1  0.39094100  0.70448900  0.08904700  1
  C  4247  1  0.37168600  0.69044100  0.09356400  1
  C  4248  1  0.31194700  0.67844500  0.07418500  1
  C  4249  1  0.29217200  0.68243400  0.06047000  1
  C  4250  1  0.28738400  0.66958800  0.04288400  1
  C  4251  1  0.30428600  0.65324400  0.03918600  1
  C  4252  1  0.32391400  0.64930700  0.05302400  1
  C  4269  1  0.42693400  0.71433800  0.06745500  1
  C  4270  1  0.32549400  0.66018300  0.17703600  1
  C  4273  1  0.36966700  0.56619400  0.08955500  1
  C  4275  1  0.26667000  0.67313300  0.03020800  1
  C  4277  1  0.36415700  0.42896000  0.38108100  1
  C  4278  1  0.38323700  0.41398600  0.38031100  1
  C  4279  1  0.37832300  0.39234300  0.38096800  1
  C  4280  1  0.35414100  0.38433100  0.38284600  1
  C  4281  1  0.33517300  0.39963800  0.38290200  1
  C  4282  1  0.33992600  0.42125000  0.38233600  1
  C  4283  1  0.34775900  0.36091400  0.38159000  1
  C  4284  1  0.34149800  0.35972700  0.35814800  1
  C  4285  1  0.31738400  0.36186700  0.35005000  1
  C  4286  1  0.31258300  0.36264900  0.32839900  1
  C  4287  1  0.33172400  0.36175900  0.31349300  1
  C  4288  1  0.35590400  0.36029100  0.32128300  1
  C  4289  1  0.36054500  0.35961300  0.34291300  1
  C  4290  1  0.36804100  0.34510700  0.38718000  1
  C  4291  1  0.32735200  0.35545100  0.39733700  1
  C  4292  1  0.31017700  0.33917200  0.39381000  1
  C  4293  1  0.29034400  0.33538000  0.40751500  1
  C  4294  1  0.28701600  0.34704500  0.42614300  1
  C  4295  1  0.30544200  0.36186800  0.43086200  1
  C  4296  1  0.32520400  0.36557300  0.41708500  1
  C  4297  1  0.38469400  0.34846500  0.40387600  1
  C  4298  1  0.40402400  0.33445600  0.40831800  1
  C  4299  1  0.40743700  0.31574300  0.39681100  1
  C  4300  1  0.38972800  0.31135400  0.38128200  1
  C  4301  1  0.37038700  0.32540700  0.37698600  1
  C  4318  1  0.26624400  0.34377500  0.43883700  1
  C  4319  1  0.36934600  0.45032900  0.37946300  1
  C  4322  1  0.32662800  0.36349600  0.29212100  1
  C  4324  1  0.42705600  0.30224400  0.40156500  1
  C  4326  1  0.86417500  0.08757600  0.58819300  1
  C  4327  1  0.88325800  0.10255000  0.58893300  1
  C  4328  1  0.87834800  0.12419300  0.58827500  1
  C  4329  1  0.85416200  0.13220400  0.58645300  1
  C  4330  1  0.83518800  0.11690100  0.58644000  1
  C  4331  1  0.83994100  0.09528900  0.58699500  1
  C  4332  1  0.84776400  0.15562000  0.58770800  1
  C  4333  1  0.84149700  0.15680700  0.61114900  1
  C  4334  1  0.81737600  0.15472400  0.61924500  1
  C  4335  1  0.81257300  0.15394200  0.64089500  1
  C  4336  1  0.83171400  0.15478800  0.65580400  1
  C  4337  1  0.85589900  0.15621000  0.64801600  1
  C  4338  1  0.86054300  0.15687700  0.62638700  1
  C  4339  1  0.86804400  0.17143100  0.58212500  1
  C  4340  1  0.82735800  0.16107700  0.57195600  1
  C  4341  1  0.81022800  0.17739700  0.57545000  1
  C  4342  1  0.79038500  0.18117800  0.56175300  1
  C  4343  1  0.78702500  0.16948500  0.54314800  1
  C  4344  1  0.80542100  0.15462900  0.53845000  1
  C  4345  1  0.82517300  0.15091400  0.55223300  1
  C  4346  1  0.88466500  0.16809600  0.56539900  1
  C  4347  1  0.90398400  0.18210900  0.56094300  1
  C  4348  1  0.90742900  0.20080200  0.57247700  1
  C  4349  1  0.88976400  0.20516400  0.58804900  1
  C  4350  1  0.87042700  0.19111100  0.59235200  1
  C  4367  1  0.76625000  0.17275600  0.53045700  1
  C  4368  1  0.86936200  0.06620900  0.58981700  1
  C  4371  1  0.82661300  0.15305500  0.67717300  1
  C  4373  1  0.92705500  0.21429600  0.56772400  1
  C  4375  1  0.11486400  0.65809600  0.81411400  1
  C  4376  1  0.13380100  0.65852300  0.82923200  1
  C  4377  1  0.12869100  0.65744500  0.85081600  1
  C  4378  1  0.10435700  0.65652200  0.85861800  1
  C  4379  1  0.08563010  0.65518200  0.84313800  1
  C  4380  1  0.09059010  0.65617400  0.82157200  1
  C  4381  1  0.09765410  0.65505300  0.88196300  1
  C  4382  1  0.09129810  0.63162100  0.88295800  1
  C  4383  1  0.06706510  0.62352200  0.88267700  1
  C  4384  1  0.06224510  0.60186500  0.88204700  1
  C  4385  1  0.08143210  0.58699200  0.88134000  1
  C  4386  1  0.10566100  0.59479100  0.88104600  1
  C  4387  1  0.11031900  0.61641900  0.88157300  1
  C  4388  1  0.11782100  0.66046400  0.89799100  1
  C  4389  1  0.07715210  0.67082600  0.88721200  1
  C  4390  1  0.06123010  0.66809800  0.90454600  1
  C  4391  1  0.04143010  0.68178400  0.90857000  1
  C  4392  1  0.03697710  0.69970100  0.89609200  1
  C  4393  1  0.05419810  0.70372100  0.88007300  1
  C  4394  1  0.07385310  0.68993200  0.87610300  1
  C  4395  1  0.13281000  0.67846700  0.89581400  1
  C  4396  1  0.15204800  0.68308200  0.90985900  1
  C  4397  1  0.15696800  0.67042000  0.92755400  1
  C  4398  1  0.14085400  0.65344200  0.93089800  1
  C  4399  1  0.12164700  0.64894800  0.91678400  1
  C  4416  1  0.01629010  0.71240600  0.89966100  1
  C  4417  1  0.12034600  0.66008000  0.79284800  1
  C  4420  1  0.07624110  0.56563500  0.87979100  1
  C  4422  1  0.17649700  0.67533400  0.94109600  1
  C  4424  1  0.61485900  0.85843300  0.15518700  1
  C  4425  1  0.63379700  0.85799800  0.14007000  1
  C  4426  1  0.62868800  0.85908000  0.11848600  1
  C  4427  1  0.60435600  0.86001700  0.11068300  1
  C  4428  1  0.58562900  0.86136200  0.12616400  1
  C  4429  1  0.59058800  0.86037100  0.14773000  1
  C  4430  1  0.59765100  0.86149000  0.08733700  1
  C  4431  1  0.59128800  0.88492100  0.08634100  1
  C  4432  1  0.56705800  0.89302200  0.08661900  1
  C  4433  1  0.56224300  0.91468100  0.08725700  1
  C  4434  1  0.58143300  0.92955000  0.08796700  1
  C  4435  1  0.60566300  0.92174600  0.08826800  1
  C  4436  1  0.61031500  0.90011900  0.08774000  1
  C  4437  1  0.61781300  0.85607800  0.07130500  1
  C  4438  1  0.57714700  0.84571600  0.08209100  1
  C  4439  1  0.56122400  0.84844400  0.06476000  1
  C  4440  1  0.54143100  0.83475400  0.06072600  1
  C  4441  1  0.53697300  0.81684000  0.07321000  1
  C  4442  1  0.55419300  0.81282000  0.08923000  1
  C  4443  1  0.57384500  0.82661200  0.09320300  1
  C  4444  1  0.63279400  0.83807100  0.07348000  1
  C  4445  1  0.65203200  0.83345400  0.05943500  1
  C  4446  1  0.65696700  0.84612300  0.04174900  1
  C  4447  1  0.64085900  0.86310600  0.03840700  1
  C  4448  1  0.62165000  0.86760100  0.05251800  1
  C  4465  1  0.51628900  0.80413300  0.06963900  1
  C  4466  1  0.62033800  0.85643900  0.17645400  1
  C  4469  1  0.57624800  0.95090800  0.08951600  1
  C  4471  1  0.67648500  0.84120100  0.02819900  1
  C  4473  1  0.86484800  0.92941400  0.58464900  1
  C  4474  1  0.88386900  0.91437300  0.58433800  1
  C  4475  1  0.87886200  0.89277000  0.58531600  1
  C  4476  1  0.85456500  0.88486000  0.58598400  1
  C  4477  1  0.83574300  0.90026400  0.58725500  1
  C  4478  1  0.84059500  0.92185700  0.58637000  1
  C  4479  1  0.84799700  0.86148500  0.58741200  1
  C  4480  1  0.84149000  0.86045100  0.61081400  1
  C  4481  1  0.81721400  0.86044000  0.61881700  1
  C  4482  1  0.81228000  0.86094900  0.64046300  1
  C  4483  1  0.83138300  0.86177500  0.65541200  1
  C  4484  1  0.85564700  0.86231100  0.64770200  1
  C  4485  1  0.86041900  0.86193200  0.62609300  1
  C  4486  1  0.86830800  0.84551300  0.58217800  1
  C  4487  1  0.82764700  0.85607700  0.57156100  1
  C  4488  1  0.81224200  0.83839100  0.57413800  1
  C  4489  1  0.79296100  0.83375400  0.56013400  1
  C  4490  1  0.78837200  0.84608400  0.54213800  1
  C  4491  1  0.80483600  0.86274500  0.53846800  1
  C  4492  1  0.82409400  0.86724800  0.55251900  1
  C  4493  1  0.88385700  0.84782700  0.56453500  1
  C  4494  1  0.90362100  0.83409900  0.56054800  1
  C  4495  1  0.90841300  0.81652300  0.57340600  1
  C  4496  1  0.89150900  0.81283700  0.58975100  1
  C  4497  1  0.87187900  0.82667800  0.59367900  1
  C  4514  1  0.76882700  0.84116900  0.52861000  1
  C  4515  1  0.87027000  0.95070000  0.58275800  1
  C  4518  1  0.82609900  0.86319200  0.67676400  1
  C  4520  1  0.92912600  0.80384100  0.56986600  1
  C  4522  1  0.36483700  0.58712500  0.38462400  1
  C  4523  1  0.38386000  0.60216300  0.38491000  1
  C  4524  1  0.37885200  0.62376500  0.38395000  1
  C  4525  1  0.35455500  0.63168100  0.38332200  1
  C  4526  1  0.33573100  0.61627700  0.38205700  1
  C  4527  1  0.34058300  0.59468400  0.38293300  1
  C  4528  1  0.34799400  0.65505600  0.38189100  1
  C  4529  1  0.34148900  0.65610000  0.35848800  1
  C  4530  1  0.31721400  0.65606000  0.35048300  1
  C  4531  1  0.31228100  0.65554300  0.32883700  1
  C  4532  1  0.33138500  0.65474200  0.31388800  1
  C  4533  1  0.35564900  0.65423700  0.32160000  1
  C  4534  1  0.36041700  0.65462800  0.34320800  1
  C  4535  1  0.36830900  0.67102200  0.38712600  1
  C  4536  1  0.32763800  0.66046300  0.39773400  1
  C  4537  1  0.31222000  0.67813900  0.39514900  1
  C  4538  1  0.29294600  0.68278200  0.40915800  1
  C  4539  1  0.28837800  0.67046700  0.42716800  1
  C  4540  1  0.30486300  0.65382500  0.43085200  1
  C  4541  1  0.32411600  0.64931900  0.41679600  1
  C  4542  1  0.38386600  0.66869800  0.40476300  1
  C  4543  1  0.40363500  0.68242100  0.40874600  1
  C  4544  1  0.40840700  0.70001600  0.39590500  1
  C  4545  1  0.39148300  0.70371600  0.37957900  1
  C  4546  1  0.37185100  0.68987700  0.37565200  1
  C  4563  1  0.26883700  0.67538400  0.44069900  1
  C  4564  1  0.37025900  0.56583800  0.38651000  1
  C  4567  1  0.32610400  0.65332200  0.29253500  1
  C  4569  1  0.42912300  0.71269500  0.39944100  1
  C  4571  1  0.61489800  0.15830500  0.15590400  1
  C  4572  1  0.63388600  0.15938700  0.14086900  1
  C  4573  1  0.62894500  0.15835300  0.11926000  1
  C  4574  1  0.60471000  0.15681600  0.11134200  1
  C  4575  1  0.58596100  0.15476900  0.12672900  1
  C  4576  1  0.59075800  0.15570600  0.14832900  1
  C  4577  1  0.59811300  0.15553900  0.08796700  1
  C  4578  1  0.59135500  0.13219800  0.08665900  1
  C  4579  1  0.56709500  0.12439900  0.08483900  1
  C  4580  1  0.56204100  0.10281100  0.08368400  1
  C  4581  1  0.58093100  0.08769000  0.08489600  1
  C  4582  1  0.60508000  0.09515400  0.08773200  1
  C  4583  1  0.60999100  0.11672500  0.08879700  1
  C  4584  1  0.61854600  0.16068300  0.07205000  1
  C  4585  1  0.57784700  0.17153100  0.08263000  1
  C  4586  1  0.56348500  0.16973100  0.06421300  1
  C  4587  1  0.54428600  0.18377600  0.05946100  1
  C  4588  1  0.53875000  0.20110500  0.07244100  1
  C  4589  1  0.55419700  0.20408200  0.08992300  1
  C  4590  1  0.57336300  0.18998100  0.09454200  1
  C  4591  1  0.63346100  0.17877000  0.07398700  1
  C  4592  1  0.65319200  0.18292500  0.06026600  1
  C  4593  1  0.65856300  0.16976800  0.04303500  1
  C  4594  1  0.64231400  0.15288200  0.03970500  1
  C  4595  1  0.62274000  0.14879400  0.05354300  1
  C  4612  1  0.51928500  0.21467400  0.06741500  1
  C  4613  1  0.62023500  0.16030100  0.17719900  1
  C  4616  1  0.57552900  0.06641800  0.08276700  1
  C  4618  1  0.67919500  0.17350400  0.03032400  1
  C  4620  1  0.11489500  0.35822600  0.81339000  1
  C  4621  1  0.13388400  0.35713400  0.82842600  1
  C  4622  1  0.12894000  0.35817000  0.85003500  1
  C  4623  1  0.10470700  0.35973300  0.85795000  1
  C  4624  1  0.08595810  0.36177600  0.84256100  1
  C  4625  1  0.09075710  0.36082800  0.82096200  1
  C  4626  1  0.09811010  0.36100300  0.88132600  1
  C  4627  1  0.09135310  0.38434500  0.88263000  1
  C  4628  1  0.06709410  0.39214000  0.88447700  1
  C  4629  1  0.06203810  0.41372800  0.88562700  1
  C  4630  1  0.08092510  0.42885100  0.88440700  1
  C  4631  1  0.10507500  0.42139100  0.88157400  1
  C  4632  1  0.10998800  0.39981900  0.88050000  1
  C  4633  1  0.11853900  0.35585400  0.89724700  1
  C  4634  1  0.07784410  0.34501000  0.88665800  1
  C  4635  1  0.06348810  0.34680300  0.90508000  1
  C  4636  1  0.04428810  0.33275800  0.90983100  1
  C  4637  1  0.03875310  0.31543200  0.89684600  1
  C  4638  1  0.05419210  0.31246300  0.87935900  1
  C  4639  1  0.07335910  0.32656400  0.87474300  1
  C  4640  1  0.13345300  0.33776700  0.89531300  1
  C  4641  1  0.15319500  0.33362200  0.90902500  1
  C  4642  1  0.15856400  0.34678000  0.92625500  1
  C  4643  1  0.14231800  0.36366900  0.92958100  1
  C  4644  1  0.12274300  0.36775400  0.91574400  1
  C  4661  1  0.01929310  0.30185800  0.90187500  1
  C  4662  1  0.12023400  0.35623300  0.79209500  1
  C  4665  1  0.07551510  0.45012300  0.88652300  1
  C  4667  1  0.17920000  0.34304600  0.93896400  1
  C  4669  1  0.08097410  0.58769200  0.58486400  1
  C  4670  1  0.06202910  0.60280500  0.58443400  1
  C  4671  1  0.06713110  0.62439200  0.58551000  1
  C  4672  1  0.09145910  0.63220400  0.58644900  1
  C  4673  1  0.11019100  0.61672700  0.58778100  1
  C  4674  1  0.10524200  0.59515800  0.58678600  1
  C  4675  1  0.09815110  0.65555200  0.58791600  1
  C  4676  1  0.10450500  0.65654700  0.61134800  1
  C  4677  1  0.12873600  0.65628300  0.61945100  1
  C  4678  1  0.13355400  0.65564600  0.64110900  1
  C  4679  1  0.11436500  0.65494900  0.65598200  1
  C  4680  1  0.09013610  0.65464800  0.64817700  1
  C  4681  1  0.08548210  0.65516200  0.62655000  1
  C  4682  1  0.07798210  0.67158400  0.58251200  1
  C  4683  1  0.11864900  0.66079500  0.57213400  1
  C  4684  1  0.13460200  0.67810600  0.57486700  1
  C  4685  1  0.15439000  0.68213100  0.56116800  1
  C  4686  1  0.15882600  0.66965200  0.54324600  1
  C  4687  1  0.14158500  0.65364700  0.53922800  1
  C  4688  1  0.12192200  0.64969600  0.55302000  1
  C  4689  1  0.06296610  0.66940700  0.56452500  1
  C  4690  1  0.04373110  0.68346000  0.55991900  1
  C  4691  1  0.03882410  0.70115500  0.57258500  1
  C  4692  1  0.05496210  0.70450000  0.58954600  1
  C  4693  1  0.07417210  0.69038300  0.59402500  1
  C  4710  1  0.17950600  0.67321800  0.53052900  1
  C  4711  1  0.07549910  0.56642200  0.58287700  1
  C  4714  1  0.11955300  0.65338600  0.67733900  1
  C  4716  1  0.01930410  0.71471200  0.56767500  1
  C  4718  1  0.58095500  0.92884400  0.38442900  1
  C  4719  1  0.56201400  0.91372900  0.38486700  1
  C  4720  1  0.56711700  0.89214300  0.38379500  1
  C  4721  1  0.59144500  0.88433400  0.38285600  1
  C  4722  1  0.61017600  0.89981100  0.38151500  1
  C  4723  1  0.60522500  0.92137900  0.38250500  1
  C  4724  1  0.59814400  0.86098500  0.38138800  1
  C  4725  1  0.60450100  0.85999000  0.35795500  1
  C  4726  1  0.62873200  0.86024800  0.34985300  1
  C  4727  1  0.63354900  0.86089000  0.32819500  1
  C  4728  1  0.61436300  0.86159000  0.31332200  1
  C  4729  1  0.59013500  0.86189100  0.32112400  1
  C  4730  1  0.58547900  0.86138200  0.34275200  1
  C  4731  1  0.57797600  0.84495200  0.38679000  1
  C  4732  1  0.61864300  0.85574500  0.39717000  1
  C  4733  1  0.63458300  0.83842200  0.39444800  1
  C  4734  1  0.65438100  0.83441200  0.40814000  1
  C  4735  1  0.65882100  0.84689500  0.42605600  1
  C  4736  1  0.64157700  0.86289500  0.43007600  1
  C  4737  1  0.62192500  0.86685400  0.41627800  1
  C  4738  1  0.56296500  0.84712900  0.40478000  1
  C  4739  1  0.54373600  0.83307200  0.40939200  1
  C  4740  1  0.53882500  0.81537700  0.39672600  1
  C  4741  1  0.55494800  0.81204200  0.37975300  1
  C  4742  1  0.57415700  0.82615900  0.37527000  1
  C  4759  1  0.67950500  0.84333400  0.43877000  1
  C  4760  1  0.57547800  0.95011400  0.38641800  1
  C  4763  1  0.61955200  0.86315400  0.29196500  1
  C  4765  1  0.51930000  0.80182500  0.40163300  1
  C  4767  1  0.33087600  0.35843700  0.15534000  1
  C  4768  1  0.31197800  0.35720600  0.14022900  1
  C  4769  1  0.31701400  0.35834900  0.11863600  1
  C  4770  1  0.34126700  0.36018500  0.11082400  1
  C  4771  1  0.35991300  0.36233200  0.12628700  1
  C  4772  1  0.35501900  0.36127000  0.14786100  1
  C  4773  1  0.34801000  0.36148100  0.08747900  1
  C  4774  1  0.35462700  0.38485100  0.08619900  1
  C  4775  1  0.37886700  0.39274900  0.08462200  1
  C  4776  1  0.38382900  0.41435300  0.08356100  1
  C  4777  1  0.36485300  0.42940100  0.08464500  1
  C  4778  1  0.34071000  0.42184700  0.08726900  1
  C  4779  1  0.33589300  0.40025200  0.08824500  1
  C  4780  1  0.32773700  0.35615200  0.07148700  1
  C  4781  1  0.36843200  0.34555500  0.08232600  1
  C  4782  1  0.38331100  0.34747500  0.06421600  1
  C  4783  1  0.40306700  0.33377800  0.06007400  1
  C  4784  1  0.40847400  0.31657000  0.07324900  1
  C  4785  1  0.39225300  0.31324900  0.09015600  1
  C  4786  1  0.37266500  0.32707000  0.09424100  1
  C  4787  1  0.31336200  0.33774300  0.07328700  1
  C  4788  1  0.29416600  0.33299600  0.05923600  1
  C  4789  1  0.28864500  0.34597600  0.04190100  1
  C  4790  1  0.30409700  0.36345600  0.03893400  1
  C  4791  1  0.32325500  0.36807200  0.05304300  1
  C  4808  1  0.42912900  0.30388600  0.06952000  1
  C  4809  1  0.32548800  0.35634100  0.17661900  1
  C  4812  1  0.37020700  0.45068800  0.08261900  1
  C  4814  1  0.26918900  0.34095000  0.02832100  1
  C  4816  1  0.83086600  0.15809500  0.81395700  1
  C  4817  1  0.81197100  0.15933100  0.82907100  1
  C  4818  1  0.81701100  0.15818800  0.85066400  1
  C  4819  1  0.84126600  0.15634900  0.85847300  1
  C  4820  1  0.85990900  0.15420700  0.84300700  1
  C  4821  1  0.85501000  0.15525700  0.82143300  1
  C  4822  1  0.84801300  0.15505400  0.88181700  1
  C  4823  1  0.85463300  0.13168300  0.88309700  1
  C  4824  1  0.87887600  0.12378700  0.88466600  1
  C  4825  1  0.88383900  0.10218200  0.88571700  1
  C  4826  1  0.86486300  0.08713500  0.88463600  1
  C  4827  1  0.84071800  0.09468800  0.88202000  1
  C  4828  1  0.83590000  0.11628400  0.88105000  1
  C  4829  1  0.82774500  0.16038200  0.89781400  1
  C  4830  1  0.86843600  0.17097900  0.88696800  1
  C  4831  1  0.88332500  0.16905400  0.90507100  1
  C  4832  1  0.90307200  0.18275900  0.90922100  1
  C  4833  1  0.90848100  0.19996400  0.89604100  1
  C  4834  1  0.89225800  0.20328400  0.87913500  1
  C  4835  1  0.87266900  0.18946200  0.87505300  1
  C  4836  1  0.81338000  0.17879700  0.89601600  1
  C  4837  1  0.79417400  0.18353800  0.91005900  1
  C  4838  1  0.78864600  0.17055700  0.92739000  1
  C  4839  1  0.80409900  0.15307700  0.93036200  1
  C  4840  1  0.82325800  0.14845900  0.91625300  1
  C  4857  1  0.92913100  0.21265300  0.89977400  1
  C  4858  1  0.82547400  0.16018800  0.79267900  1
  C  4861  1  0.87022300  0.06584700  0.88664700  1
  C  4863  1  0.76919600  0.17558700  0.94097400  1
  C  4865  1  0.45339500  0.27333900  0.39095000  1
  C  4866  1  0.45844900  0.26092900  0.37326000  1
  C  4867  1  0.47781800  0.24610800  0.37286500  1
  C  4868  1  0.49277800  0.24314700  0.39087700  1
  C  4869  1  0.48809800  0.25568000  0.40887600  1
  C  4871  1  0.46843700  0.27024000  0.40867000  1
  C  4873  1  0.48226200  0.23379800  0.35349900  1
  C  4877  1  0.50332700  0.25488700  0.42813900  1
  C  4883  1  0.95339600  0.24320100  0.57833700  1
  C  4884  1  0.95844400  0.25561900  0.59602400  1
  C  4885  1  0.97781900  0.27043400  0.59642000  1
  C  4886  1  0.99278400  0.27338900  0.57841000  1
  C  4887  1  0.98811000  0.26084900  0.56041600  1
  C  4889  1  0.96844700  0.24629200  0.56061900  1
  C  4891  1  0.98225900  0.28274900  0.61578300  1
  C  4895  1  0.00333708  0.26164700  0.54115100  1
  C  4901  1  0.70339400  0.85201100  0.99971900  1
  C  4902  1  0.70848800  0.86971400  0.98734400  1
  C  4903  1  0.72785900  0.87010000  0.97252800  1
  C  4904  1  0.74279900  0.85207500  0.96955900  1
  C  4905  1  0.73813500  0.83408800  0.98212000  1
  C  4907  1  0.71844600  0.83429400  0.99665300  1
  C  4909  1  0.73230700  0.88947800  0.96023200  1
  C  4913  1  0.75343000  0.81485800  0.98144700  1
  C  4919  1  0.20340200  0.66452000  0.96957500  1
  C  4920  1  0.20849200  0.64681700  0.98195200  1
  C  4921  1  0.22786200  0.64643000  0.99676800  1
  C  4922  1  0.24280700  0.66445300  0.99973700  1
  C  4923  1  0.23813400  0.68244500  0.98718400  1
  C  4925  1  0.21844500  0.68224000  0.97265300  1
  C  4927  1  0.23231100  0.62705100  0.00906400  1
  C  4931  1  0.25342300  0.70167800  0.98786700  1
  C  4937  1  0.99240300  0.74319900  0.57849000  1
  C  4938  1  0.98730200  0.75557000  0.59619400  1
  C  4939  1  0.96793700  0.77039300  0.59658000  1
  C  4940  1  0.95299600  0.77337000  0.57855500  1
  C  4941  1  0.95767100  0.76081400  0.56056500  1
  C  4943  1  0.97736100  0.74628200  0.56076900  1
  C  4945  1  0.96348800  0.78268600  0.61595800  1
  C  4949  1  0.94238100  0.76149500  0.54133200  1
  C  4955  1  0.49240200  0.77333400  0.39082400  1
  C  4956  1  0.48730800  0.76095700  0.37312300  1
  C  4957  1  0.46793800  0.74613800  0.37273400  1
  C  4958  1  0.45299000  0.74316800  0.39075500  1
  C  4959  1  0.45765700  0.75573100  0.40874200  1
  C  4961  1  0.47735100  0.77026000  0.40854000  1
  C  4963  1  0.46349300  0.73384100  0.35335700  1
  C  4967  1  0.44236800  0.75504800  0.42797500  1
  C  4973  1  0.74231600  0.16479400  0.96950400  1
  C  4974  1  0.73729200  0.14709300  0.98189800  1
  C  4975  1  0.71802300  0.14671600  0.99680800  1
  C  4976  1  0.70311900  0.16475200  0.99985300  1
  C  4977  1  0.70769800  0.18273100  0.98725600  1
  C  4979  1  0.72729500  0.18251700  0.97263200  1
  C  4981  1  0.71364600  0.12733300  0.00911700  1
  C  4985  1  0.69239000  0.20195200  0.98796400  1
  C  4991  1  0.24230600  0.35174900  0.99979500  1
  C  4992  1  0.23728600  0.36945200  0.98740100  1
  C  4993  1  0.21801800  0.36983000  0.97249100  1
  C  4994  1  0.20311200  0.35179600  0.96944400  1
  C  4995  1  0.20770200  0.33381100  0.98203000  1
  C  4997  1  0.22729800  0.33402200  0.99665300  1
  C  4999  1  0.21364100  0.38921500  0.96018400  1
  C  5003  1  0.19240200  0.31458500  0.98131300  1
  C  5009  1  0.95346300  0.77340500  0.89117500  1
  C  5010  1  0.95846200  0.76099400  0.87347900  1
  C  5011  1  0.97773300  0.74608500  0.87309300  1
  C  5012  1  0.99265200  0.74304800  0.89111900  1
  C  5013  1  0.98806000  0.75562000  0.90910900  1
  C  5015  1  0.96847600  0.77025700  0.90890100  1
  C  5017  1  0.98211200  0.73377400  0.85371500  1
  C  5021  1  0.00332808  0.75483800  0.92835000  1
  C  5027  1  0.45345900  0.74313700  0.07812700  1
  C  5028  1  0.45845400  0.75555300  0.09582100  1
  C  5029  1  0.47772900  0.77045700  0.09620800  1
  C  5030  1  0.49265000  0.77349300  0.07818300  1
  C  5031  1  0.48806100  0.76091400  0.06019600  1
  C  5033  1  0.46847500  0.74628100  0.06040300  1
  C  5035  1  0.48210800  0.78277000  0.11558600  1
  C  5039  1  0.50332500  0.76170000  0.04095300  1
  C  5045  1  0.20337100  0.35206200  0.49969200  1
  C  5046  1  0.20843900  0.36974900  0.48728300  1
  C  5047  1  0.22783600  0.37014900  0.47249000  1
  C  5048  1  0.24280100  0.35213500  0.46954900  1
  C  5049  1  0.23811200  0.33414000  0.48208500  1
  C  5051  1  0.21843100  0.33434700  0.49662400  1
  C  5053  1  0.23229600  0.38951300  0.46018300  1
  C  5057  1  0.25335200  0.31488200  0.48131500  1
  C  5063  1  0.70338400  0.16445500  0.46959300  1
  C  5064  1  0.70845100  0.14676900  0.48200300  1
  C  5065  1  0.72784500  0.14637300  0.49679900  1
  C  5066  1  0.74281000  0.16438500  0.49974200  1
  C  5067  1  0.73811300  0.18238300  0.48721200  1
  C  5069  1  0.71843200  0.18217600  0.47267200  1
  C  5071  1  0.73230600  0.12700800  0.50910800  1
  C  5075  1  0.75334300  0.20164700  0.48798800  1
  C  5081  1  0.49234500  0.24315100  0.07822800  1
  C  5082  1  0.48729900  0.25553300  0.09593300  1
  C  5083  1  0.46800800  0.27041800  0.09631300  1
  C  5084  1  0.45309100  0.27344200  0.07828200  1
  C  5085  1  0.45769500  0.26085900  0.06029800  1
  C  5087  1  0.47732400  0.24626700  0.06050400  1
  C  5089  1  0.46361200  0.28272200  0.11569600  1
  C  5093  1  0.44238200  0.26154600  0.04107900  1
  C  5099  1  0.99235200  0.27338300  0.89106300  1
  C  5100  1  0.98730700  0.26099800  0.87335900  1
  C  5101  1  0.96801200  0.24611400  0.87297900  1
  C  5102  1  0.95309300  0.24309400  0.89100800  1
  C  5103  1  0.95769300  0.25568300  0.90898900  1
  C  5105  1  0.97732400  0.27027200  0.90878400  1
  C  5107  1  0.96361800  0.23381000  0.85359600  1
  C  5111  1  0.94238300  0.25499300  0.92821100  1
  C  5117  1  0.24232800  0.66471800  0.46951500  1
  C  5118  1  0.23733300  0.64702500  0.48193400  1
  C  5119  1  0.21806200  0.64664100  0.49684400  1
  C  5120  1  0.20315100  0.66467000  0.49988900  1
  C  5121  1  0.20773500  0.68265400  0.48730600  1
  C  5123  1  0.22731000  0.68244100  0.47266200  1
  C  5125  1  0.21368500  0.62726200  0.50915700  1
  C  5129  1  0.19246800  0.70189600  0.48808900  1
  C  5135  1  0.74231400  0.85183800  0.49979800  1
  C  5136  1  0.73731900  0.86953000  0.48737700  1
  C  5137  1  0.71805100  0.86991200  0.47246500  1
  C  5138  1  0.70313900  0.85188300  0.46941800  1
  C  5139  1  0.70773300  0.83389500  0.48199400  1
  C  5141  1  0.72730800  0.83410900  0.49664000  1
  C  5143  1  0.71367100  0.88929100  0.46015300  1
  C  5147  1  0.69247600  0.81464700  0.48120300  1
  C  5153  1  0.60686300  0.15532300  0.21276800  1
  C  5154  1  0.59170500  0.14177400  0.22432700  1
  C  5155  1  0.59095800  0.14224700  0.24644600  1
  C  5156  1  0.60580000  0.15683500  0.25748800  1
  C  5157  1  0.62069500  0.17110700  0.24604000  1
  C  5159  1  0.62118100  0.16992000  0.22393500  1
  C  5161  1  0.57455600  0.12751700  0.25778300  1
  C  5165  1  0.63545700  0.18795500  0.25594600  1
  C  5171  1  0.10687500  0.36122600  0.75652400  1
  C  5172  1  0.09170810  0.37477300  0.74497000  1
  C  5173  1  0.09095510  0.37430100  0.72285100  1
  C  5174  1  0.10579700  0.35971400  0.71180700  1
  C  5175  1  0.12069100  0.34544100  0.72325000  1
  C  5177  1  0.12118500  0.34662700  0.74535500  1
  C  5179  1  0.07454810  0.38902900  0.71151800  1
  C  5183  1  0.13546500  0.32860500  0.71333700  1
  C  5189  1  0.85692100  0.03026700  0.88165600  1
  C  5190  1  0.84183500  0.01869000  0.86806700  1
  C  5191  1  0.84112700  0.99656900  0.86854000  1
  C  5192  1  0.85593000  0.98554600  0.88317600  1
  C  5193  1  0.87071000  0.99701700  0.89751600  1
  C  5195  1  0.87116700  0.01912400  0.89631900  1
  C  5197  1  0.82481100  0.98521700  0.85375000  1
  C  5201  1  0.88535400  0.98715300  0.91446200  1
  C  5207  1  0.35688600  0.48626800  0.08760200  1
  C  5208  1  0.34181900  0.49784400  0.10120500  1
  C  5209  1  0.34111500  0.51996500  0.10073600  1
  C  5210  1  0.35591300  0.53099000  0.08609900  1
  C  5211  1  0.37070400  0.51951900  0.07176600  1
  C  5213  1  0.37115800  0.49741200  0.07295900  1
  C  5215  1  0.32480500  0.53131800  0.11553100  1
  C  5219  1  0.38536100  0.52938300  0.05482800  1
  C  5225  1  0.33884500  0.36126500  0.21222400  1
  C  5226  1  0.35404400  0.37477000  0.22379500  1
  C  5227  1  0.35485800  0.37422300  0.24591100  1
  C  5228  1  0.34003700  0.35960400  0.25693000  1
  C  5229  1  0.32508700  0.34538800  0.24546900  1
  C  5231  1  0.32454100  0.34664400  0.22336800  1
  C  5233  1  0.37129800  0.38890600  0.25727000  1
  C  5237  1  0.31031100  0.32854000  0.25535900  1
  C  5243  1  0.83882000  0.15526300  0.75707300  1
  C  5244  1  0.85402400  0.14176200  0.74550200  1
  C  5245  1  0.85484100  0.14231200  0.72338600  1
  C  5246  1  0.84002500  0.15693500  0.71236600  1
  C  5247  1  0.82508400  0.17115700  0.72382900  1
  C  5249  1  0.82452800  0.16989500  0.74593000  1
  C  5251  1  0.87128200  0.12763000  0.71202900  1
  C  5255  1  0.81030700  0.18800300  0.71393900  1
  C  5261  1  0.08880610  0.48573700  0.88159400  1
  C  5262  1  0.10392800  0.49733000  0.86804600  1
  C  5263  1  0.10470100  0.51944700  0.86859800  1
  C  5264  1  0.08993110  0.53044800  0.88327200  1
  C  5265  1  0.07510710  0.51895600  0.89756300  1
  C  5267  1  0.07458610  0.49685600  0.89629400  1
  C  5269  1  0.12104600  0.53082100  0.85384800  1
  C  5273  1  0.06047010  0.52880000  0.91452700  1
  C  5279  1  0.58884100  0.03080400  0.08768400  1
  C  5280  1  0.60394700  0.01921100  0.10124500  1
  C  5281  1  0.60471500  0.99709400  0.10069900  1
  C  5282  1  0.58994600  0.98609300  0.08602300  1
  C  5283  1  0.57511200  0.99758300  0.07174000  1
  C  5285  1  0.57459300  0.01968400  0.07300600  1
  C  5287  1  0.62105400  0.98572000  0.11545300  1
  C  5291  1  0.56045800  0.98773900  0.05478600  1
  C  5297  1  0.83890400  0.86120100  0.75670000  1
  C  5298  1  0.85406200  0.87473400  0.74512700  1
  C  5299  1  0.85474500  0.87428200  0.72300600  1
  C  5300  1  0.83985900  0.85971400  0.71197600  1
  C  5301  1  0.82500000  0.84543000  0.72344500  1
  C  5303  1  0.82455000  0.84661700  0.74555300  1
  C  5305  1  0.87113100  0.88902100  0.71166000  1
  C  5309  1  0.81027200  0.82853600  0.71357800  1
  C  5315  1  0.33888700  0.65533700  0.21260200  1
  C  5316  1  0.35405100  0.64180400  0.22417000  1
  C  5317  1  0.35473900  0.64225400  0.24629000  1
  C  5318  1  0.33985400  0.65682000  0.25732600  1
  C  5319  1  0.32499900  0.67111100  0.24585900  1
  C  5321  1  0.32454300  0.66992400  0.22375200  1
  C  5323  1  0.37112700  0.62751400  0.25763500  1
  C  5327  1  0.31026300  0.68799500  0.25573200  1
  C  5333  1  0.10697200  0.65529600  0.75724400  1
  C  5334  1  0.09176510  0.64181200  0.74565800  1
  C  5335  1  0.09101410  0.64234000  0.72354000  1
  C  5336  1  0.10588500  0.65693300  0.71253100  1
  C  5337  1  0.12079300  0.67116700  0.72401700  1
  C  5339  1  0.12129500  0.66991400  0.74611800  1
  C  5341  1  0.07458310  0.62765300  0.71217400  1
  C  5345  1  0.13553300  0.68806200  0.71416500  1
  C  5351  1  0.60694300  0.86121500  0.21205800  1
  C  5352  1  0.59175300  0.87471300  0.22364300  1
  C  5353  1  0.59100900  0.87419200  0.24576000  1
  C  5354  1  0.60587700  0.85959700  0.25677200  1
  C  5355  1  0.62079600  0.84537100  0.24528900  1
  C  5357  1  0.62129600  0.84661800  0.22318500  1
  C  5359  1  0.57458400  0.88888300  0.25712700  1
  C  5363  1  0.63555200  0.82848800  0.25514200  1
  C  5369  1  0.35682200  0.53026800  0.38173400  1
  C  5370  1  0.34159500  0.51869100  0.36825700  1
  C  5371  1  0.34088900  0.49657000  0.36873700  1
  C  5372  1  0.35583200  0.48554700  0.38326600  1
  C  5373  1  0.37079000  0.49701600  0.39747000  1
  C  5375  1  0.37124300  0.51912300  0.39627200  1
  C  5377  1  0.32442000  0.48520900  0.35407600  1
  C  5381  1  0.38565200  0.48713500  0.41426800  1
  C  5387  1  0.85685000  0.98627200  0.58754700  1
  C  5388  1  0.84162200  0.99784800  0.60102400  1
  C  5389  1  0.84091200  0.01997000  0.60054100  1
  C  5390  1  0.85585000  0.03099300  0.58600900  1
  C  5391  1  0.87080000  0.01952300  0.57179900  1
  C  5393  1  0.87125800  0.99741600  0.57300100  1
  C  5395  1  0.82444600  0.03132900  0.61520300  1
  C  5399  1  0.88566400  0.02940500  0.55500200  1
  C  5405  1  0.58888000  0.98572100  0.38168500  1
  C  5406  1  0.60414200  0.99731400  0.36825100  1
  C  5407  1  0.60490900  0.01943300  0.36880500  1
  C  5408  1  0.58999000  0.03043200  0.38336700  1
  C  5409  1  0.57499800  0.01894400  0.39753000  1
  C  5411  1  0.57449800  0.99684300  0.39626700  1
  C  5413  1  0.62141000  0.03081300  0.35418700  1
  C  5417  1  0.56013700  0.02880700  0.41434100  1
  C  5423  1  0.08892610  0.53081500  0.58759900  1
  C  5424  1  0.10418300  0.51922500  0.60104100  1
  C  5425  1  0.10494300  0.49710700  0.60049600  1
  C  5426  1  0.09001310  0.48610400  0.58594500  1
  C  5427  1  0.07499510  0.49758600  0.57179700  1
  C  5429  1  0.07450010  0.51969000  0.57305100  1
  C  5431  1  0.12144900  0.48572800  0.61510900  1
  C  5435  1  0.06010010  0.48771800  0.55501200  1
  N  801  1  0.72036300  0.28742900  0.38959900  1
  N  802  1  0.79728200  0.22978100  0.38961700  1
  N  819  1  0.22036400  0.22911300  0.57968800  1
  N  820  1  0.29729000  0.28675300  0.57966900  1
  N  837  1  0.97038700  0.85339300  0.01381700  1
  N  838  1  0.04725400  0.85339200  0.95615400  1
  N  855  1  0.47038800  0.66314400  0.95548500  1
  N  856  1  0.54726000  0.66313900  0.01314500  1
  N  873  1  0.29616500  0.72909800  0.57986700  1
  N  874  1  0.21929900  0.78678200  0.57986700  1
  N  891  1  0.79616600  0.78743200  0.38944500  1
  N  892  1  0.71929300  0.72975700  0.38944400  1
  N  909  1  0.04598100  0.16339800  0.95532800  1
  N  910  1  0.96952300  0.16340500  0.01335600  1
  N  927  1  0.54597900  0.35314100  0.01396600  1
  N  928  1  0.46951800  0.35313900  0.95593900  1
  N  945  1  0.22053400  0.78757100  0.88980200  1
  N  946  1  0.29704500  0.72958400  0.88980400  1
  N  963  1  0.72053000  0.72897100  0.07950000  1
  N  964  1  0.79704200  0.78695700  0.07949700  1
  N  981  1  0.47032200  0.35341400  0.51376500  1
  N  982  1  0.54732700  0.35339900  0.45620700  1
  N  999  1  0.97033100  0.16310600  0.45552300  1
  N  1000  1  0.04733100  0.16312700  0.51308900  1
  N  1017  1  0.79603200  0.22899700  0.07962000  1
  N  1018  1  0.71947400  0.28692300  0.07962300  1
  N  1035  1  0.29603900  0.28753700  0.88967000  1
  N  1036  1  0.21947900  0.22961200  0.88966800  1
  N  1053  1  0.54601000  0.66334400  0.45534300  1
  N  1054  1  0.46951200  0.66335300  0.51335600  1
  N  1071  1  0.04600200  0.85320900  0.51396300  1
  N  1072  1  0.96950200  0.85319300  0.45594800  1
  N  1089  1  0.89090700  0.15451100  0.19187000  1
  N  1090  1  0.88906900  0.15774400  0.27833100  1
  N  1107  1  0.39091100  0.36203200  0.77742200  1
  N  1108  1  0.38906100  0.35880400  0.69096300  1
  N  1125  1  0.14092700  0.05116200  0.88083400  1
  N  1126  1  0.13925100  0.96469200  0.88399700  1
  N  1143  1  0.64091500  0.46537200  0.08843700  1
  N  1144  1  0.63924200  0.55184300  0.08528200  1
  N  1161  1  0.62551600  0.36214000  0.19132900  1
  N  1162  1  0.62755700  0.35860700  0.27776700  1
  N  1179  1  0.12550100  0.15439000  0.77796800  1
  N  1180  1  0.12754600  0.15793000  0.69152900  1
  N  1197  1  0.37551600  0.46484500  0.88070700  1
  N  1198  1  0.37739600  0.55129600  0.88417100  1
  N  1215  1  0.87552800  0.05169700  0.08858500  1
  N  1216  1  0.87740200  0.96524300  0.08512700  1
  N  1233  1  0.12568400  0.86196600  0.77759400  1
  N  1234  1  0.12727500  0.85891100  0.69111800  1
  N  1251  1  0.62567400  0.65457800  0.19170700  1
  N  1252  1  0.62727300  0.65762500  0.27818300  1
  N  1269  1  0.39097500  0.65447200  0.77813600  1
  N  1270  1  0.38918100  0.65782600  0.69168000  1
  N  1287  1  0.89097100  0.86205300  0.19116500  1
  N  1288  1  0.88918100  0.85870700  0.27762300  1
  N  1305  1  0.64080900  0.55116500  0.38095600  1
  N  1306  1  0.63912300  0.46469900  0.38419200  1
  N  1323  1  0.14083000  0.96537600  0.58832700  1
  N  1324  1  0.13914100  0.05184000  0.58508100  1
  N  1341  1  0.87562100  0.96482800  0.38084600  1
  N  1342  1  0.87748500  0.05127400  0.38436800  1
  N  1359  1  0.37564800  0.55171000  0.58844300  1
  N  1360  1  0.37750000  0.46526200  0.58493900  1
  N  2161  1  0.95857000  0.28742900  0.38959900  1
  N  2162  1  0.03548940  0.22978100  0.38961700  1
  N  2179  1  0.45857100  0.22911300  0.57968800  1
  N  2180  1  0.53549700  0.28675300  0.57966900  1
  N  2197  1  0.20859400  0.85339300  0.01381700  1
  N  2198  1  0.28546100  0.85339200  0.95615400  1
  N  2215  1  0.70859500  0.66314400  0.95548500  1
  N  2216  1  0.78546700  0.66313900  0.01314500  1
  N  2233  1  0.53437200  0.72909800  0.57986700  1
  N  2234  1  0.45750600  0.78678200  0.57986700  1
  N  2251  1  0.03437340  0.78743200  0.38944500  1
  N  2252  1  0.95750000  0.72975700  0.38944400  1
  N  2269  1  0.28418800  0.16339800  0.95532800  1
  N  2270  1  0.20773000  0.16340500  0.01335600  1
  N  2287  1  0.78418600  0.35314100  0.01396600  1
  N  2288  1  0.70772500  0.35313900  0.95593900  1
  N  2305  1  0.45874100  0.78757100  0.88980200  1
  N  2306  1  0.53525200  0.72958400  0.88980400  1
  N  2323  1  0.95873700  0.72897100  0.07950000  1
  N  2324  1  0.03524940  0.78695700  0.07949700  1
  N  2341  1  0.70852900  0.35341400  0.51376500  1
  N  2342  1  0.78553400  0.35339900  0.45620700  1
  N  2359  1  0.20853800  0.16310600  0.45552300  1
  N  2360  1  0.28553800  0.16312700  0.51308900  1
  N  2377  1  0.03423940  0.22899700  0.07962000  1
  N  2378  1  0.95768100  0.28692300  0.07962300  1
  N  2395  1  0.53424600  0.28753700  0.88967000  1
  N  2396  1  0.45768600  0.22961200  0.88966800  1
  N  2413  1  0.78421700  0.66334400  0.45534300  1
  N  2414  1  0.70771900  0.66335300  0.51335600  1
  N  2431  1  0.28420900  0.85320900  0.51396300  1
  N  2432  1  0.20770900  0.85319300  0.45594800  1
  N  2449  1  0.12911400  0.15451100  0.19187000  1
  N  2450  1  0.12727600  0.15774400  0.27833100  1
  N  2467  1  0.62911800  0.36203200  0.77742200  1
  N  2468  1  0.62726800  0.35880400  0.69096300  1
  N  2485  1  0.37913400  0.05116200  0.88083400  1
  N  2486  1  0.37745800  0.96469200  0.88399700  1
  N  2503  1  0.87912200  0.46537200  0.08843700  1
  N  2504  1  0.87744900  0.55184300  0.08528200  1
  N  2521  1  0.86372300  0.36214000  0.19132900  1
  N  2522  1  0.86576400  0.35860700  0.27776700  1
  N  2539  1  0.36370800  0.15439000  0.77796800  1
  N  2540  1  0.36575300  0.15793000  0.69152900  1
  N  2557  1  0.61372300  0.46484500  0.88070700  1
  N  2558  1  0.61560300  0.55129600  0.88417100  1
  N  2575  1  0.11373500  0.05169700  0.08858500  1
  N  2576  1  0.11560900  0.96524300  0.08512700  1
  N  2593  1  0.36389100  0.86196600  0.77759400  1
  N  2594  1  0.36548200  0.85891100  0.69111800  1
  N  2611  1  0.86388100  0.65457800  0.19170700  1
  N  2612  1  0.86548000  0.65762500  0.27818300  1
  N  2629  1  0.62918200  0.65447200  0.77813600  1
  N  2630  1  0.62738800  0.65782600  0.69168000  1
  N  2647  1  0.12917800  0.86205300  0.19116500  1
  N  2648  1  0.12738800  0.85870700  0.27762300  1
  N  2665  1  0.87901600  0.55116500  0.38095600  1
  N  2666  1  0.87733000  0.46469900  0.38419200  1
  N  2683  1  0.37903700  0.96537600  0.58832700  1
  N  2684  1  0.37734800  0.05184000  0.58508100  1
  N  2701  1  0.11382800  0.96482800  0.38084600  1
  N  2702  1  0.11569200  0.05127400  0.38436800  1
  N  2719  1  0.61385500  0.55171000  0.58844300  1
  N  2720  1  0.61570700  0.46526200  0.58493900  1
  N  3521  1  0.19677800  0.28742900  0.38959900  1
  N  3522  1  0.27369700  0.22978100  0.38961700  1
  N  3539  1  0.69677900  0.22911300  0.57968800  1
  N  3540  1  0.77370500  0.28675300  0.57966900  1
  N  3557  1  0.44680200  0.85339300  0.01381700  1
  N  3558  1  0.52366900  0.85339200  0.95615400  1
  N  3575  1  0.94680300  0.66314400  0.95548500  1
  N  3576  1  0.02367470  0.66313900  0.01314500  1
  N  3593  1  0.77258000  0.72909800  0.57986700  1
  N  3594  1  0.69571400  0.78678200  0.57986700  1
  N  3611  1  0.27258100  0.78743200  0.38944500  1
  N  3612  1  0.19570800  0.72975700  0.38944400  1
  N  3629  1  0.52239600  0.16339800  0.95532800  1
  N  3630  1  0.44593800  0.16340500  0.01335600  1
  N  3647  1  0.02239370  0.35314100  0.01396600  1
  N  3648  1  0.94593300  0.35313900  0.95593900  1
  N  3665  1  0.69694900  0.78757100  0.88980200  1
  N  3666  1  0.77346000  0.72958400  0.88980400  1
  N  3683  1  0.19694500  0.72897100  0.07950000  1
  N  3684  1  0.27345700  0.78695700  0.07949700  1
  N  3701  1  0.94673700  0.35341400  0.51376500  1
  N  3702  1  0.02374170  0.35339900  0.45620700  1
  N  3719  1  0.44674600  0.16310600  0.45552300  1
  N  3720  1  0.52374600  0.16312700  0.51308900  1
  N  3737  1  0.27244700  0.22899700  0.07962000  1
  N  3738  1  0.19588900  0.28692300  0.07962300  1
  N  3755  1  0.77245400  0.28753700  0.88967000  1
  N  3756  1  0.69589400  0.22961200  0.88966800  1
  N  3773  1  0.02242470  0.66334400  0.45534300  1
  N  3774  1  0.94592700  0.66335300  0.51335600  1
  N  3791  1  0.52241700  0.85320900  0.51396300  1
  N  3792  1  0.44591700  0.85319300  0.45594800  1
  N  3809  1  0.36732200  0.15451100  0.19187000  1
  N  3810  1  0.36548400  0.15774400  0.27833100  1
  N  3827  1  0.86732600  0.36203200  0.77742200  1
  N  3828  1  0.86547600  0.35880400  0.69096300  1
  N  3845  1  0.61734200  0.05116200  0.88083400  1
  N  3846  1  0.61566600  0.96469200  0.88399700  1
  N  3863  1  0.11733000  0.46537200  0.08843700  1
  N  3864  1  0.11565700  0.55184300  0.08528200  1
  N  3881  1  0.10193100  0.36214000  0.19132900  1
  N  3882  1  0.10397200  0.35860700  0.27776700  1
  N  3899  1  0.60191600  0.15439000  0.77796800  1
  N  3900  1  0.60396100  0.15793000  0.69152900  1
  N  3917  1  0.85193100  0.46484500  0.88070700  1
  N  3918  1  0.85381100  0.55129600  0.88417100  1
  N  3935  1  0.35194300  0.05169700  0.08858500  1
  N  3936  1  0.35381700  0.96524300  0.08512700  1
  N  3953  1  0.60209900  0.86196600  0.77759400  1
  N  3954  1  0.60369000  0.85891100  0.69111800  1
  N  3971  1  0.10208900  0.65457800  0.19170700  1
  N  3972  1  0.10368800  0.65762500  0.27818300  1
  N  3989  1  0.86739000  0.65447200  0.77813600  1
  N  3990  1  0.86559600  0.65782600  0.69168000  1
  N  4007  1  0.36738600  0.86205300  0.19116500  1
  N  4008  1  0.36559600  0.85870700  0.27762300  1
  N  4025  1  0.11722400  0.55116500  0.38095600  1
  N  4026  1  0.11553800  0.46469900  0.38419200  1
  N  4043  1  0.61724500  0.96537600  0.58832700  1
  N  4044  1  0.61555600  0.05184000  0.58508100  1
  N  4061  1  0.35203600  0.96482800  0.38084600  1
  N  4062  1  0.35390000  0.05127400  0.38436800  1
  N  4079  1  0.85206300  0.55171000  0.58844300  1
  N  4080  1  0.85391500  0.46526200  0.58493900  1
  N  4881  1  0.43498500  0.28742900  0.38959900  1
  N  4882  1  0.51190400  0.22978100  0.38961700  1
  N  4899  1  0.93498600  0.22911300  0.57968800  1
  N  4900  1  0.01191210  0.28675300  0.57966900  1
  N  4917  1  0.68500900  0.85339300  0.01381700  1
  N  4918  1  0.76187600  0.85339200  0.95615400  1
  N  4935  1  0.18501000  0.66314400  0.95548500  1
  N  4936  1  0.26188200  0.66313900  0.01314500  1
  N  4953  1  0.01078710  0.72909800  0.57986700  1
  N  4954  1  0.93392100  0.78678200  0.57986700  1
  N  4971  1  0.51078800  0.78743200  0.38944500  1
  N  4972  1  0.43391500  0.72975700  0.38944400  1
  N  4989  1  0.76060300  0.16339800  0.95532800  1
  N  4990  1  0.68414500  0.16340500  0.01335600  1
  N  5007  1  0.26060100  0.35314100  0.01396600  1
  N  5008  1  0.18414000  0.35313900  0.95593900  1
  N  5025  1  0.93515600  0.78757100  0.88980200  1
  N  5026  1  0.01166710  0.72958400  0.88980400  1
  N  5043  1  0.43515200  0.72897100  0.07950000  1
  N  5044  1  0.51166400  0.78695700  0.07949700  1
  N  5061  1  0.18494400  0.35341400  0.51376500  1
  N  5062  1  0.26194900  0.35339900  0.45620700  1
  N  5079  1  0.68495300  0.16310600  0.45552300  1
  N  5080  1  0.76195300  0.16312700  0.51308900  1
  N  5097  1  0.51065400  0.22899700  0.07962000  1
  N  5098  1  0.43409600  0.28692300  0.07962300  1
  N  5115  1  0.01066110  0.28753700  0.88967000  1
  N  5116  1  0.93410100  0.22961200  0.88966800  1
  N  5133  1  0.26063200  0.66334400  0.45534300  1
  N  5134  1  0.18413400  0.66335300  0.51335600  1
  N  5151  1  0.76062400  0.85320900  0.51396300  1
  N  5152  1  0.68412400  0.85319300  0.45594800  1
  N  5169  1  0.60552900  0.15451100  0.19187000  1
  N  5170  1  0.60369100  0.15774400  0.27833100  1
  N  5187  1  0.10553300  0.36203200  0.77742200  1
  N  5188  1  0.10368300  0.35880400  0.69096300  1
  N  5205  1  0.85554900  0.05116200  0.88083400  1
  N  5206  1  0.85387300  0.96469200  0.88399700  1
  N  5223  1  0.35553700  0.46537200  0.08843700  1
  N  5224  1  0.35386400  0.55184300  0.08528200  1
  N  5241  1  0.34013800  0.36214000  0.19132900  1
  N  5242  1  0.34217900  0.35860700  0.27776700  1
  N  5259  1  0.84012300  0.15439000  0.77796800  1
  N  5260  1  0.84216800  0.15793000  0.69152900  1
  N  5277  1  0.09013810  0.46484500  0.88070700  1
  N  5278  1  0.09201810  0.55129600  0.88417100  1
  N  5295  1  0.59015000  0.05169700  0.08858500  1
  N  5296  1  0.59202400  0.96524300  0.08512700  1
  N  5313  1  0.84030600  0.86196600  0.77759400  1
  N  5314  1  0.84189700  0.85891100  0.69111800  1
  N  5331  1  0.34029600  0.65457800  0.19170700  1
  N  5332  1  0.34189500  0.65762500  0.27818300  1
  N  5349  1  0.10559700  0.65447200  0.77813600  1
  N  5350  1  0.10380300  0.65782600  0.69168000  1
  N  5367  1  0.60559300  0.86205300  0.19116500  1
  N  5368  1  0.60380300  0.85870700  0.27762300  1
  N  5385  1  0.35543100  0.55116500  0.38095600  1
  N  5386  1  0.35374500  0.46469900  0.38419200  1
  N  5403  1  0.85545200  0.96537600  0.58832700  1
  N  5404  1  0.85376300  0.05184000  0.58508100  1
  N  5421  1  0.59024300  0.96482800  0.38084600  1
  N  5422  1  0.59210700  0.05127400  0.38436800  1
  N  5439  1  0.09027010  0.55171000  0.58844300  1
  N  5440  1  0.09212210  0.46526200  0.58493900  1
