# generated using pymatgen
data_H10C12N3O2
_symmetry_space_group_name_H-M   'P 1'
_cell_length_a   27.54140000
_cell_length_b   48.66750000
_cell_length_c   48.66750000
_cell_angle_alpha   90.00000000
_cell_angle_beta   90.00000000
_cell_angle_gamma   90.00000000
_symmetry_Int_Tables_number   1
_chemical_formula_structural   H10C12N3O2
_chemical_formula_sum   'H640 C768 N192 O128'
_cell_volume   65232.50975490
_cell_formula_units_Z   64
loop_
 _symmetry_equiv_pos_site_id
 _symmetry_equiv_pos_as_xyz
  1  'x, y, z'
loop_
 _atom_site_type_symbol
 _atom_site_label
 _atom_site_symmetry_multiplicity
 _atom_site_fract_x
 _atom_site_fract_y
 _atom_site_fract_z
 _atom_site_occupancy
  H  7  1  0.19863700  0.12360400  0.34259900  1
  H  8  1  0.08110700  0.15253200  0.38937500  1
  H  15  1  0.17999900  0.06461800  0.23489800  1
  H  16  1  0.14714100  0.05894100  0.31895800  1
  H  19  1  0.05778100  0.08975100  0.29907000  1
  H  20  1  0.01216600  0.09993800  0.31819800  1
  H  21  1  0.15427800  0.15584100  0.26516700  1
  H  22  1  0.14143000  0.15346500  0.29794000  1
  H  29  1  0.19874700  0.87925700  0.79898800  1
  H  30  1  0.08122300  0.85034600  0.75218200  1
  H  37  1  0.18004600  0.93825700  0.90666700  1
  H  38  1  0.14723000  0.94392400  0.82259500  1
  H  41  1  0.05787300  0.91313400  0.84248500  1
  H  42  1  0.01226400  0.90296100  0.82334700  1
  H  43  1  0.15433700  0.84702800  0.87640100  1
  H  44  1  0.14149500  0.84940100  0.84362500  1
  H  51  1  0.19851400  0.72966200  0.19292900  1
  H  52  1  0.08098700  0.68287900  0.22185900  1
  H  59  1  0.18002300  0.83734600  0.13397300  1
  H  60  1  0.14709300  0.75329200  0.12824900  1
  H  63  1  0.05766700  0.77318600  0.15907000  1
  H  64  1  0.01204200  0.75406600  0.16925700  1
  H  65  1  0.15421600  0.80704400  0.22517700  1
  H  66  1  0.14129700  0.77428100  0.22278500  1
  H  73  1  0.19870500  0.27325200  0.94865200  1
  H  74  1  0.08117100  0.32003500  0.91973200  1
  H  81  1  0.17971000  0.16548000  0.00756200  1
  H  82  1  0.14746500  0.24961000  0.01333100  1
  H  85  1  0.05785000  0.22968500  0.98243900  1
  H  86  1  0.01222600  0.24881300  0.97226400  1
  H  87  1  0.15395000  0.19584900  0.91638200  1
  H  88  1  0.14132400  0.22865000  0.91878200  1
  H  95  1  0.72270100  0.87928200  0.34258800  1
  H  96  1  0.84022600  0.85035500  0.38936900  1
  H  103  1  0.74146600  0.93828400  0.23488200  1
  H  104  1  0.77412600  0.94394500  0.31896700  1
  H  107  1  0.86356200  0.91314800  0.29907500  1
  H  108  1  0.90917300  0.90295900  0.31820200  1
  H  109  1  0.76726000  0.84706300  0.26513200  1
  H  110  1  0.78001900  0.84943200  0.29791800  1
  H  117  1  0.72259600  0.12361400  0.79897500  1
  H  118  1  0.84011400  0.15256700  0.75219500  1
  H  125  1  0.74135300  0.06463000  0.90666900  1
  H  126  1  0.77410700  0.05896200  0.82259100  1
  H  129  1  0.86348200  0.08977700  0.84249100  1
  H  130  1  0.90909000  0.09997000  0.82336300  1
  H  131  1  0.76703100  0.15586100  0.87639700  1
  H  132  1  0.77984400  0.15348700  0.84361700  1
  H  139  1  0.72281700  0.27322800  0.19292600  1
  H  140  1  0.84034200  0.32001100  0.22186100  1
  H  147  1  0.74134200  0.16554000  0.13397200  1
  H  148  1  0.77423800  0.24959800  0.12824700  1
  H  151  1  0.86367100  0.22970600  0.15907000  1
  H  152  1  0.90929300  0.24882500  0.16925900  1
  H  153  1  0.76714000  0.19584500  0.22517500  1
  H  154  1  0.78004400  0.22861100  0.22278300  1
  H  161  1  0.72264000  0.72963300  0.94865600  1
  H  162  1  0.84017500  0.68285000  0.91973200  1
  H  169  1  0.74168400  0.83741200  0.00756600  1
  H  170  1  0.77386100  0.75327500  0.01333600  1
  H  173  1  0.86349700  0.77319800  0.98244500  1
  H  174  1  0.90911900  0.75407300  0.97226800  1
  H  175  1  0.76743800  0.80704000  0.91638800  1
  H  176  1  0.78003300  0.77423400  0.91878600  1
  H  183  1  0.72422300  0.87589700  0.80151100  1
  H  184  1  0.84062200  0.84795900  0.75321600  1
  H  191  1  0.74037300  0.93605300  0.90765600  1
  H  192  1  0.77525100  0.94119800  0.82379300  1
  H  195  1  0.86568600  0.91167100  0.84274400  1
  H  196  1  0.91084700  0.90173200  0.82317200  1
  H  197  1  0.77245500  0.84503100  0.87902500  1
  H  198  1  0.78550100  0.84709800  0.84623900  1
  H  205  1  0.72412800  0.12702800  0.33997900  1
  H  206  1  0.84052400  0.15497000  0.38828200  1
  H  213  1  0.74013300  0.06684400  0.23388900  1
  H  214  1  0.77527700  0.06173100  0.31771900  1
  H  217  1  0.86561000  0.09128700  0.29873100  1
  H  218  1  0.91077400  0.10122500  0.31830700  1
  H  219  1  0.77214700  0.15789000  0.26247700  1
  H  220  1  0.78532000  0.15583100  0.29524700  1
  H  227  1  0.72420100  0.27064300  0.94522500  1
  H  228  1  0.84055300  0.31896700  0.91726400  1
  H  235  1  0.74018000  0.16454500  0.00536300  1
  H  236  1  0.77529100  0.24837700  0.01053100  1
  H  239  1  0.86570800  0.22943300  0.98096500  1
  H  240  1  0.91086500  0.24900000  0.97100200  1
  H  241  1  0.77229600  0.19317500  0.91434600  1
  H  242  1  0.78547200  0.22594400  0.91642100  1
  H  249  1  0.72399000  0.73222600  0.19627200  1
  H  250  1  0.84040000  0.68393500  0.22420900  1
  H  257  1  0.74048900  0.83844100  0.13614700  1
  H  258  1  0.77480800  0.75450600  0.13096200  1
  H  261  1  0.86545000  0.77345900  0.16049000  1
  H  262  1  0.91062600  0.75390000  0.17044700  1
  H  263  1  0.77251000  0.80972400  0.22715000  1
  H  264  1  0.78536000  0.77691300  0.22507000  1
  H  271  1  0.19711100  0.12699300  0.80150700  1
  H  272  1  0.08070900  0.15494500  0.75322400  1
  H  279  1  0.18103500  0.06684200  0.90764300  1
  H  280  1  0.14605200  0.06169600  0.82379700  1
  H  283  1  0.05564600  0.09123700  0.84275600  1
  H  284  1  0.01048000  0.10118200  0.82318700  1
  H  285  1  0.14894000  0.15786500  0.87902300  1
  H  286  1  0.13585000  0.15579600  0.84624300  1
  H  293  1  0.19720600  0.87586000  0.33997700  1
  H  294  1  0.08081300  0.84791800  0.38828000  1
  H  301  1  0.18123800  0.93604200  0.23389100  1
  H  302  1  0.14603400  0.94115900  0.31771500  1
  H  305  1  0.05572100  0.91159700  0.29872700  1
  H  306  1  0.01055900  0.90166000  0.31830300  1
  H  307  1  0.14921900  0.84499600  0.26247700  1
  H  308  1  0.13602200  0.84705700  0.29524200  1
  H  315  1  0.19714300  0.73224700  0.94522300  1
  H  316  1  0.08079300  0.68392500  0.91726400  1
  H  323  1  0.18119600  0.83834000  0.00536200  1
  H  324  1  0.14604100  0.75451400  0.01053100  1
  H  327  1  0.05563600  0.77345900  0.98096300  1
  H  328  1  0.01047800  0.75389200  0.97100200  1
  H  329  1  0.14907500  0.80971600  0.91434400  1
  H  330  1  0.13588000  0.77694800  0.91642100  1
  H  337  1  0.19733900  0.27065500  0.19627200  1
  H  338  1  0.08093400  0.31894800  0.22421100  1
  H  345  1  0.18094300  0.16446000  0.13614600  1
  H  346  1  0.14648000  0.24837700  0.13096200  1
  H  349  1  0.05587700  0.22941800  0.16050300  1
  H  350  1  0.01070500  0.24897900  0.17045700  1
  H  351  1  0.14892300  0.19316500  0.22715200  1
  H  352  1  0.13600800  0.22596600  0.22507200  1
  H  359  1  0.70033500  0.62493100  0.84259800  1
  H  360  1  0.58082400  0.65480300  0.88711400  1
  H  367  1  0.68488200  0.56471200  0.73497600  1
  H  368  1  0.64948400  0.56003300  0.81876900  1
  H  371  1  0.56124200  0.59063300  0.79728600  1
  H  372  1  0.51474500  0.60174100  0.81517700  1
  H  373  1  0.65950200  0.65633600  0.76413500  1
  H  374  1  0.64553000  0.65432200  0.79677100  1
  H  381  1  0.70044000  0.37794500  0.29894700  1
  H  382  1  0.58092900  0.34806600  0.25442500  1
  H  389  1  0.68498300  0.43815300  0.40654900  1
  H  390  1  0.64951000  0.44284600  0.32276200  1
  H  393  1  0.56133700  0.41222200  0.34426300  1
  H  394  1  0.51484000  0.40111400  0.32637200  1
  H  395  1  0.65972300  0.34652100  0.37735700  1
  H  396  1  0.64570800  0.34854300  0.34472700  1
  H  403  1  0.70022600  0.22966700  0.69426900  1
  H  404  1  0.58074000  0.18513100  0.72414300  1
  H  411  1  0.68498700  0.33724600  0.63407900  1
  H  412  1  0.64934300  0.25348100  0.62933400  1
  H  415  1  0.56111500  0.27495800  0.65997300  1
  H  416  1  0.51461800  0.25707300  0.67109300  1
  H  417  1  0.65962900  0.30802300  0.72568600  1
  H  418  1  0.64551600  0.27540800  0.72364800  1
  H  425  1  0.70037800  0.77325000  0.44732800  1
  H  426  1  0.58088200  0.81776800  0.41743900  1
  H  433  1  0.68480600  0.66559300  0.50746000  1
  H  434  1  0.64963700  0.74940800  0.51226400  1
  H  437  1  0.56127500  0.72791800  0.48157000  1
  H  438  1  0.51477400  0.74579800  0.47045200  1
  H  439  1  0.65941100  0.69487100  0.41588200  1
  H  440  1  0.64550500  0.72751300  0.41793000  1
  H  447  1  0.22100800  0.37796100  0.84260400  1
  H  448  1  0.34052600  0.34808700  0.88711400  1
  H  455  1  0.23642200  0.43818000  0.73498600  1
  H  456  1  0.27188100  0.44285900  0.81877100  1
  H  459  1  0.36009800  0.41225500  0.79728400  1
  H  460  1  0.40659500  0.40114700  0.81517300  1
  H  461  1  0.26177500  0.34655200  0.76414700  1
  H  462  1  0.27577400  0.34856800  0.79677900  1
  H  469  1  0.22089100  0.62494300  0.29894900  1
  H  470  1  0.34039900  0.65481500  0.25441600  1
  H  477  1  0.23635900  0.56473700  0.40655100  1
  H  478  1  0.27182200  0.56003900  0.32276200  1
  H  481  1  0.36000000  0.59065700  0.34425500  1
  H  482  1  0.40649400  0.60176300  0.32636000  1
  H  483  1  0.26162600  0.65636700  0.37735500  1
  H  484  1  0.27563700  0.65434300  0.34472300  1
  H  491  1  0.22111300  0.77322300  0.69426700  1
  H  492  1  0.34059900  0.81775600  0.72414500  1
  H  499  1  0.23636100  0.66564600  0.63407700  1
  H  500  1  0.27199600  0.74941000  0.62933200  1
  H  503  1  0.36022600  0.72793400  0.65997100  1
  H  504  1  0.40672200  0.74581700  0.67109100  1
  H  505  1  0.26171700  0.69486700  0.72568400  1
  H  506  1  0.27582800  0.72748200  0.72364600  1
  H  513  1  0.22096000  0.22964000  0.44732800  1
  H  514  1  0.34045700  0.18511900  0.41744500  1
  H  521  1  0.23652400  0.33729900  0.50745800  1
  H  522  1  0.27170500  0.25348400  0.51226200  1
  H  525  1  0.36006500  0.27497400  0.48156800  1
  H  526  1  0.40656600  0.25709200  0.47045200  1
  H  527  1  0.26192100  0.30801900  0.41587700  1
  H  528  1  0.27583200  0.27537700  0.41793000  1
  H  535  1  0.22386900  0.37589400  0.30129400  1
  H  536  1  0.34180400  0.34649600  0.25516000  1
  H  543  1  0.23554300  0.43664700  0.40718800  1
  H  544  1  0.27464800  0.44134800  0.32389200  1
  H  547  1  0.36416100  0.41169200  0.34408000  1
  H  548  1  0.41012100  0.40065400  0.32571500  1
  H  549  1  0.26865300  0.34546700  0.37951400  1
  H  550  1  0.28349300  0.34736100  0.34697700  1
  H  557  1  0.22376400  0.62702700  0.84020200  1
  H  558  1  0.34170600  0.65643200  0.88633600  1
  H  565  1  0.23536600  0.56625300  0.73435100  1
  H  566  1  0.27462200  0.56157200  0.81762800  1
  H  569  1  0.36405900  0.59125100  0.79740100  1
  H  570  1  0.41002300  0.60229200  0.81576300  1
  H  571  1  0.26839600  0.65745000  0.76200600  1
  H  572  1  0.28330800  0.65556100  0.79453300  1
  H  579  1  0.22383500  0.77082900  0.44520100  1
  H  580  1  0.34170100  0.81700600  0.41577900  1
  H  587  1  0.23538300  0.66500100  0.50594400  1
  H  588  1  0.27469500  0.74826600  0.51068200  1
  H  591  1  0.36418600  0.72809800  0.48098000  1
  H  592  1  0.41013200  0.74646000  0.46991600  1
  H  593  1  0.26851400  0.69269100  0.41477600  1
  H  594  1  0.28346000  0.72521100  0.41668100  1
  H  601  1  0.22368100  0.23203800  0.69628500  1
  H  602  1  0.34157800  0.18588100  0.72569800  1
  H  609  1  0.23556100  0.33794400  0.63554400  1
  H  610  1  0.27439800  0.25461000  0.63079900  1
  H  613  1  0.36400800  0.27478900  0.66049500  1
  H  614  1  0.40996100  0.25643200  0.67155800  1
  H  615  1  0.26863200  0.31020100  0.72670900  1
  H  616  1  0.28337500  0.27765200  0.72480300  1
  H  623  1  0.69747000  0.62699400  0.30130000  1
  H  624  1  0.57953900  0.65638500  0.25516000  1
  H  631  1  0.68579000  0.56624100  0.40719400  1
  H  632  1  0.64668800  0.56153700  0.32389800  1
  H  635  1  0.55717600  0.59119200  0.34408200  1
  H  636  1  0.51121600  0.60223000  0.32571500  1
  H  637  1  0.65267900  0.65741900  0.37951800  1
  H  638  1  0.63784000  0.65552600  0.34698100  1
  H  645  1  0.69758300  0.37586700  0.84020400  1
  H  646  1  0.57964000  0.34645900  0.88633600  1
  H  653  1  0.68597800  0.43663900  0.73435100  1
  H  654  1  0.64672500  0.44132200  0.81762800  1
  H  657  1  0.55729200  0.41164300  0.79740100  1
  H  658  1  0.51132800  0.40060200  0.81576300  1
  H  659  1  0.65295200  0.34544200  0.76200600  1
  H  660  1  0.63804000  0.34733100  0.79453300  1
  H  667  1  0.69750300  0.23206100  0.44520300  1
  H  668  1  0.57963700  0.18588600  0.41578100  1
  H  675  1  0.68596400  0.33788900  0.50594600  1
  H  676  1  0.64664100  0.25462400  0.51068400  1
  H  679  1  0.55715000  0.27479300  0.48098300  1
  H  680  1  0.51120900  0.25643200  0.46991600  1
  H  681  1  0.65282800  0.31019900  0.41477800  1
  H  682  1  0.63788000  0.27767800  0.41668300  1
  H  689  1  0.69765900  0.77085200  0.69628200  1
  H  690  1  0.57976400  0.81700600  0.72570000  1
  H  697  1  0.68575000  0.66493900  0.63554400  1
  H  698  1  0.64695700  0.74828000  0.63079900  1
  H  701  1  0.55733200  0.72810000  0.66049300  1
  H  702  1  0.51137900  0.74645800  0.67155500  1
  H  703  1  0.65267900  0.69268500  0.72670900  1
  H  704  1  0.63795600  0.72523800  0.72480300  1
  H  714  1  0.31703400  0.96389500  0.25637500  1
  H  715  1  0.29225700  0.99602700  0.24689600  1
  H  716  1  0.26436600  0.96488900  0.23565400  1
  H  718  1  0.03757600  0.00094600  0.29953500  1
  H  719  1  0.01369900  0.03410400  0.29349400  1
  H  720  1  0.06461400  0.03031900  0.31528500  1
  H  730  1  0.31703000  0.03908500  0.88495100  1
  H  731  1  0.29231600  0.00696300  0.89451800  1
  H  732  1  0.26441200  0.03811500  0.90571200  1
  H  734  1  0.03751500  0.00184900  0.84215600  1
  H  735  1  0.01369600  0.96868800  0.84825500  1
  H  736  1  0.06454300  0.97246900  0.82641500  1
  H  746  1  0.31722600  0.81510100  0.03311100  1
  H  747  1  0.29255500  0.82484100  0.06519200  1
  H  748  1  0.26478100  0.83600600  0.03399200  1
  H  750  1  0.03736100  0.77322100  0.07038800  1
  H  751  1  0.01355000  0.77946500  0.10352200  1
  H  752  1  0.06423600  0.75749200  0.09981800  1
  H  762  1  0.31791100  0.19063100  0.10886500  1
  H  763  1  0.29367100  0.17992900  0.07698500  1
  H  764  1  0.26630100  0.16906100  0.10840300  1
  H  766  1  0.03681600  0.22783400  0.07062800  1
  H  767  1  0.01327900  0.22073300  0.03760400  1
  H  768  1  0.06317900  0.24333100  0.04092800  1
  H  778  1  0.60424300  0.03903300  0.25663100  1
  H  779  1  0.62899100  0.00691900  0.24706400  1
  H  780  1  0.65684400  0.03808000  0.23585400  1
  H  782  1  0.88381100  0.00189100  0.29939900  1
  H  783  1  0.90768100  0.96874800  0.29326800  1
  H  784  1  0.85682300  0.97248300  0.31510800  1
  H  794  1  0.60424300  0.96375500  0.88459700  1
  H  795  1  0.62891900  0.99585000  0.89428700  1
  H  796  1  0.65676400  0.96466500  0.90543900  1
  H  798  1  0.88393100  0.00110600  0.84237000  1
  H  799  1  0.90772500  0.03425100  0.84858500  1
  H  800  1  0.85697200  0.03052800  0.82666500  1
  H  810  1  0.60410500  0.18787800  0.03309200  1
  H  811  1  0.62876300  0.17810500  0.06516700  1
  H  812  1  0.65652400  0.16695300  0.03396000  1
  H  814  1  0.88400400  0.22961500  0.07040700  1
  H  815  1  0.90780800  0.22334400  0.10353700  1
  H  816  1  0.85714600  0.24533600  0.09984600  1
  H  826  1  0.60341500  0.81204800  0.10890600  1
  H  827  1  0.62763000  0.82283300  0.07704900  1
  H  828  1  0.65497400  0.83365800  0.10849100  1
  H  830  1  0.88458100  0.77518700  0.07059400  1
  H  831  1  0.90809500  0.78235000  0.03757900  1
  H  832  1  0.85825400  0.75970700  0.04087500  1
  H  842  1  0.81809200  0.46536000  0.75000000  1
  H  843  1  0.79317300  0.49815200  0.74331200  1
  H  844  1  0.76386500  0.46795100  0.73074900  1
  H  846  1  0.54247800  0.50055200  0.80372600  1
  H  847  1  0.51868500  0.53404700  0.79981000  1
  H  848  1  0.57116900  0.52905800  0.82011900  1
  H  858  1  0.81807400  0.53760600  0.39138500  1
  H  859  1  0.79319900  0.50481800  0.39813900  1
  H  860  1  0.76388300  0.53502900  0.41067100  1
  H  862  1  0.54238700  0.50225300  0.33792800  1
  H  863  1  0.51863700  0.46875500  0.34188600  1
  H  864  1  0.57106400  0.47375000  0.32153100  1
  H  874  1  0.81804500  0.32229300  0.53469600  1
  H  875  1  0.79312200  0.32896900  0.56749000  1
  H  876  1  0.76381000  0.34153600  0.53729300  1
  H  878  1  0.54241300  0.26855700  0.56984700  1
  H  879  1  0.51864100  0.27241800  0.60335000  1
  H  880  1  0.57110800  0.25210700  0.59831600  1
  H  890  1  0.81912000  0.68334800  0.60733400  1
  H  891  1  0.79440800  0.67564400  0.57471700  1
  H  892  1  0.76562600  0.66340000  0.60520900  1
  H  894  1  0.54172300  0.73266600  0.57113700  1
  H  895  1  0.51796900  0.72783700  0.53775400  1
  H  896  1  0.56972800  0.74883500  0.54228800  1
  H  906  1  0.10325900  0.53753200  0.74998600  1
  H  907  1  0.12817700  0.50473800  0.74330600  1
  H  908  1  0.15748900  0.53493400  0.73073900  1
  H  910  1  0.37886600  0.50234600  0.80373200  1
  H  911  1  0.40265600  0.46884900  0.79982600  1
  H  912  1  0.35017200  0.47384800  0.82013300  1
  H  922  1  0.10325600  0.46528000  0.39136800  1
  H  923  1  0.12813100  0.49806600  0.39812800  1
  H  924  1  0.15744200  0.46785500  0.41065800  1
  H  926  1  0.37895300  0.50063400  0.33793000  1
  H  927  1  0.40269900  0.53413300  0.34189200  1
  H  928  1  0.35027500  0.52914200  0.32153500  1
  H  938  1  0.10328800  0.68062300  0.53469000  1
  H  939  1  0.12820800  0.67393500  0.56748200  1
  H  940  1  0.15751600  0.66137200  0.53728100  1
  H  942  1  0.37893900  0.73431800  0.56984900  1
  H  943  1  0.40271000  0.73044900  0.60335200  1
  H  944  1  0.35024900  0.75076600  0.59832200  1
  H  954  1  0.10224200  0.31963500  0.60731300  1
  H  955  1  0.12696300  0.32730100  0.57468800  1
  H  956  1  0.15575900  0.33956000  0.60516800  1
  H  958  1  0.37958900  0.27016600  0.57115600  1
  H  959  1  0.40334200  0.27496400  0.53776800  1
  H  960  1  0.35155900  0.25398900  0.54231700  1
  H  970  1  0.12215500  0.11212600  0.45344500  1
  H  971  1  0.18377900  0.12213700  0.45516000  1
  H  972  1  0.16069300  0.10550000  0.42517900  1
  H  974  1  0.29922300  0.22985800  0.34733700  1
  H  975  1  0.25961000  0.23671900  0.37506400  1
  H  976  1  0.23824800  0.21877900  0.34543400  1
  H  986  1  0.12226500  0.89072200  0.68813700  1
  H  987  1  0.18389700  0.88072600  0.68643200  1
  H  988  1  0.16078300  0.89735300  0.71641300  1
  H  990  1  0.29938100  0.77301100  0.79424700  1
  H  991  1  0.25977400  0.76614800  0.76651800  1
  H  992  1  0.23839700  0.78407400  0.79615200  1
  H  1002  1  0.12201300  0.61881800  0.18147800  1
  H  1003  1  0.18364700  0.61710600  0.19146900  1
  H  1004  1  0.16054200  0.64708500  0.17483600  1
  H  1006  1  0.29921200  0.72493400  0.29913800  1
  H  1007  1  0.25961100  0.69720700  0.30601300  1
  H  1008  1  0.23822000  0.72683700  0.28808800  1
  H  1018  1  0.12224600  0.38410500  0.96012600  1
  H  1019  1  0.18387000  0.38580800  0.95011500  1
  H  1020  1  0.16076900  0.35583100  0.96675300  1
  H  1022  1  0.29924600  0.27797800  0.84237800  1
  H  1023  1  0.25965500  0.30571600  0.83552300  1
  H  1024  1  0.23826900  0.27608800  0.85345300  1
  H  1034  1  0.79917200  0.89076800  0.45343400  1
  H  1035  1  0.73754800  0.88075700  0.45514800  1
  H  1036  1  0.76063700  0.89739000  0.42516700  1
  H  1038  1  0.62211800  0.77302400  0.34733500  1
  H  1039  1  0.66173100  0.76616500  0.37506200  1
  H  1040  1  0.68309200  0.78410300  0.34543000  1
  H  1050  1  0.79911300  0.11218600  0.68813300  1
  H  1051  1  0.73747900  0.12217300  0.68642400  1
  H  1052  1  0.76059000  0.10554400  0.71640300  1
  H  1054  1  0.62193700  0.22986000  0.79424900  1
  H  1055  1  0.66154600  0.23673100  0.76652400  1
  H  1056  1  0.68292500  0.21880100  0.79615400  1
  H  1066  1  0.79931300  0.38407400  0.18147900  1
  H  1067  1  0.73767900  0.38578300  0.19147000  1
  H  1068  1  0.76078600  0.35580700  0.17483600  1
  H  1070  1  0.62212500  0.27795000  0.29913800  1
  H  1071  1  0.66172400  0.30567900  0.30601600  1
  H  1072  1  0.68311700  0.27604900  0.28808800  1
  H  1082  1  0.79909500  0.61878100  0.96012400  1
  H  1083  1  0.73747200  0.61707800  0.95011300  1
  H  1084  1  0.76057100  0.64705400  0.96675100  1
  H  1086  1  0.62210400  0.72491300  0.84237600  1
  H  1087  1  0.66169500  0.69717400  0.83552100  1
  H  1088  1  0.68308400  0.72680200  0.85345100  1
  H  1098  1  0.79902300  0.88787000  0.68986300  1
  H  1099  1  0.73700300  0.87860600  0.68901700  1
  H  1100  1  0.76212600  0.89467400  0.71878200  1
  H  1102  1  0.61795700  0.77158500  0.79547400  1
  H  1103  1  0.65805300  0.76435700  0.76806600  1
  H  1104  1  0.67947200  0.78160800  0.79808800  1
  H  1114  1  0.79890700  0.11503900  0.45160800  1
  H  1115  1  0.73688400  0.12429500  0.45244600  1
  H  1116  1  0.76203500  0.10824600  0.42267700  1
  H  1118  1  0.61787700  0.23135800  0.34601600  1
  H  1119  1  0.65795900  0.23857400  0.37343400  1
  H  1120  1  0.67939200  0.22133300  0.34340800  1
  H  1130  1  0.79894600  0.38229400  0.95719600  1
  H  1131  1  0.73692000  0.38313100  0.94794800  1
  H  1132  1  0.76207800  0.35337000  0.96400300  1
  H  1134  1  0.61787000  0.27666900  0.84093400  1
  H  1135  1  0.65795900  0.30408200  0.83370500  1
  H  1136  1  0.67938800  0.27406200  0.85095700  1
  H  1146  1  0.79883000  0.62058100  0.18429200  1
  H  1147  1  0.73680700  0.61973000  0.19355200  1
  H  1148  1  0.76193300  0.64949800  0.17748700  1
  H  1150  1  0.61775000  0.72617300  0.30058500  1
  H  1151  1  0.65784600  0.69876500  0.30780500  1
  H  1152  1  0.67925800  0.72878900  0.29055600  1
  H  1162  1  0.12227700  0.11503700  0.68986500  1
  H  1163  1  0.18430000  0.12429500  0.68901300  1
  H  1164  1  0.15917800  0.10822700  0.71878000  1
  H  1166  1  0.30340800  0.23129000  0.79547400  1
  H  1167  1  0.26331100  0.23852500  0.76806800  1
  H  1168  1  0.24189200  0.22127300  0.79809000  1
  H  1178  1  0.12242700  0.88785000  0.45160400  1
  H  1179  1  0.18445100  0.87859500  0.45244400  1
  H  1180  1  0.15929800  0.89464300  0.42267500  1
  H  1182  1  0.30346400  0.77153400  0.34601400  1
  H  1183  1  0.26338100  0.76431800  0.37343000  1
  H  1184  1  0.24195000  0.78155700  0.34340600  1
  H  1194  1  0.12239900  0.62059500  0.95719600  1
  H  1195  1  0.18442700  0.61975900  0.94794800  1
  H  1196  1  0.15926900  0.64952200  0.96400300  1
  H  1198  1  0.30347400  0.72622400  0.84093400  1
  H  1199  1  0.26338900  0.69881000  0.83370500  1
  H  1200  1  0.24195800  0.72883000  0.85095500  1
  H  1210  1  0.12250000  0.38230300  0.18429400  1
  H  1211  1  0.18452200  0.38315300  0.19355100  1
  H  1212  1  0.15939800  0.35338600  0.17748700  1
  H  1214  1  0.30359100  0.27671300  0.30058300  1
  H  1215  1  0.26349400  0.30412300  0.30780300  1
  H  1216  1  0.24208000  0.27409700  0.29055600  1
  H  1226  1  0.32194700  0.17459000  0.18704200  1
  H  1227  1  0.27861100  0.15881100  0.16541700  1
  H  1228  1  0.30509400  0.14008700  0.19319000  1
  H  1230  1  0.01921600  0.11041600  0.23212400  1
  H  1231  1  0.03984700  0.14145000  0.21732200  1
  H  1232  1  0.06142200  0.13087800  0.25022700  1
  H  1242  1  0.32206200  0.82824300  0.95445300  1
  H  1243  1  0.27868400  0.84392900  0.97611800  1
  H  1244  1  0.30517500  0.86276100  0.94841800  1
  H  1246  1  0.01927600  0.89241600  0.90948000  1
  H  1247  1  0.03994900  0.86137000  0.92424200  1
  H  1248  1  0.06149700  0.87199100  0.89134700  1
  H  1258  1  0.32211000  0.88511700  0.24384900  1
  H  1259  1  0.27867200  0.90678700  0.22822200  1
  H  1260  1  0.30513300  0.87911300  0.20934100  1
  H  1262  1  0.01916300  0.84018400  0.17989100  1
  H  1263  1  0.03991200  0.85497400  0.21090700  1
  H  1264  1  0.06139000  0.82205400  0.20031400  1
  H  1274  1  0.32185800  0.11779000  0.89765300  1
  H  1275  1  0.27845800  0.09611500  0.91330600  1
  H  1276  1  0.30489400  0.12381400  0.93216100  1
  H  1278  1  0.01896200  0.16272000  0.96169400  1
  H  1279  1  0.03968400  0.14800600  0.93063600  1
  H  1280  1  0.06123000  0.18088000  0.94132500  1
  H  1290  1  0.59950100  0.82831500  0.18713200  1
  H  1291  1  0.64280700  0.84407700  0.16547700  1
  H  1292  1  0.61637000  0.86282100  0.19325100  1
  H  1294  1  0.90229300  0.89248300  0.23207300  1
  H  1295  1  0.88163300  0.86143600  0.21731400  1
  H  1296  1  0.86006200  0.87206300  0.25020200  1
  H  1306  1  0.59930900  0.17462400  0.95446100  1
  H  1307  1  0.64269400  0.15893800  0.97612200  1
  H  1308  1  0.61620700  0.14010900  0.94842000  1
  H  1310  1  0.90211100  0.11049200  0.90946600  1
  H  1311  1  0.88143000  0.14153500  0.92422700  1
  H  1312  1  0.85987700  0.13090800  0.89133700  1
  H  1322  1  0.59925100  0.11777200  0.24384900  1
  H  1323  1  0.64268300  0.09610500  0.22821400  1
  H  1324  1  0.61622500  0.12378400  0.20933900  1
  H  1326  1  0.90219500  0.16271100  0.17988900  1
  H  1327  1  0.88144800  0.14792500  0.21090700  1
  H  1328  1  0.85996400  0.18084100  0.20030900  1
  H  1338  1  0.59953000  0.88509900  0.89766100  1
  H  1339  1  0.64292300  0.90677200  0.91332300  1
  H  1340  1  0.61649400  0.87906400  0.93216700  1
  H  1342  1  0.90242700  0.84016100  0.96169800  1
  H  1343  1  0.88170600  0.85487100  0.93063800  1
  H  1344  1  0.86014900  0.82200300  0.94133300  1
  H  1354  1  0.82605500  0.67465400  0.68578300  1
  H  1355  1  0.78245900  0.65891300  0.66429800  1
  H  1356  1  0.80932700  0.64013000  0.69191200  1
  H  1358  1  0.52372100  0.61066700  0.73196100  1
  H  1359  1  0.54415200  0.64144700  0.71655500  1
  H  1360  1  0.56589700  0.63152700  0.74962200  1
  H  1370  1  0.82619300  0.32818800  0.45581400  1
  H  1371  1  0.78251700  0.34387000  0.47729000  1
  H  1372  1  0.80945100  0.36272100  0.44974200  1
  H  1374  1  0.52388400  0.39215300  0.40952800  1
  H  1375  1  0.54432200  0.36137900  0.42494900  1
  H  1376  1  0.56606800  0.37128500  0.39187800  1
  H  1386  1  0.82623600  0.38647400  0.74392800  1
  H  1387  1  0.78252400  0.40795400  0.72828500  1
  H  1388  1  0.80942500  0.38041600  0.70940400  1
  H  1390  1  0.52378600  0.34025200  0.68013800  1
  H  1391  1  0.54429000  0.35570000  0.71088400  1
  H  1392  1  0.56596600  0.32260600  0.70100800  1
  H  1402  1  0.82600400  0.61639300  0.39759000  1
  H  1403  1  0.78232100  0.59491900  0.41326600  1
  H  1404  1  0.80921100  0.62248600  0.43211200  1
  H  1406  1  0.52363000  0.66267500  0.46145600  1
  H  1407  1  0.54409000  0.64727200  0.43067800  1
  H  1408  1  0.56583900  0.68033300  0.44061700  1
  H  1418  1  0.09525200  0.32821700  0.68576400  1
  H  1419  1  0.13885000  0.34396100  0.66428400  1
  H  1420  1  0.11197100  0.36274300  0.69189600  1
  H  1422  1  0.39755800  0.39222100  0.73197200  1
  H  1423  1  0.37713000  0.36144100  0.71655900  1
  H  1424  1  0.35538700  0.37135100  0.74963000  1
  H  1434  1  0.09515200  0.67470300  0.45581000  1
  H  1435  1  0.13882700  0.65902100  0.47728600  1
  H  1436  1  0.11189200  0.64017100  0.44973800  1
  H  1438  1  0.39746000  0.61073500  0.40952800  1
  H  1439  1  0.37702200  0.64150900  0.42494700  1
  H  1440  1  0.35527500  0.63160100  0.39187600  1
  H  1450  1  0.09511000  0.61641600  0.74392800  1
  H  1451  1  0.13882300  0.59493500  0.72828500  1
  H  1452  1  0.11192100  0.62247300  0.70940200  1
  H  1454  1  0.39755800  0.66264000  0.68013600  1
  H  1455  1  0.37705800  0.64719200  0.71088400  1
  H  1456  1  0.35537900  0.68028600  0.70100600  1
  H  1466  1  0.09532900  0.38649200  0.39758400  1
  H  1467  1  0.13901300  0.40796700  0.41326000  1
  H  1468  1  0.11212100  0.38040200  0.43210600  1
  H  1470  1  0.39770300  0.34021700  0.46145600  1
  H  1471  1  0.37724300  0.35561700  0.43067800  1
  H  1472  1  0.35549400  0.32255600  0.44061500  1
  H  1482  1  0.89014400  0.08327900  0.43087900  1
  H  1483  1  0.88861900  0.11896800  0.42423600  1
  H  1484  1  0.94504700  0.10208600  0.43062700  1
  H  1486  1  0.03422300  0.20713200  0.32011700  1
  H  1487  1  0.03945600  0.19517400  0.35427600  1
  H  1488  1  0.98181300  0.20551900  0.34102300  1
  H  1498  1  0.89031400  0.91956500  0.71055700  1
  H  1499  1  0.88876800  0.88388400  0.71723700  1
  H  1500  1  0.94521000  0.90075400  0.71084700  1
  H  1502  1  0.03420200  0.79580700  0.82149100  1
  H  1503  1  0.03945600  0.80772000  0.78731900  1
  H  1504  1  0.98179800  0.79742000  0.80058200  1
  H  1514  1  0.89015100  0.64125200  0.15260100  1
  H  1515  1  0.88857500  0.64793800  0.18828100  1
  H  1516  1  0.94503200  0.64155000  0.17142700  1
  H  1518  1  0.03393200  0.75221500  0.27637800  1
  H  1519  1  0.03923100  0.71805100  0.26445200  1
  H  1520  1  0.98155900  0.73128300  0.27476500  1
  H  1530  1  0.89019500  0.36159500  0.98893200  1
  H  1531  1  0.88867300  0.35493100  0.95324700  1
  H  1532  1  0.94510100  0.36133600  0.97012700  1
  H  1534  1  0.03431500  0.25075900  0.86515900  1
  H  1535  1  0.03954300  0.28492500  0.87709300  1
  H  1536  1  0.98190400  0.27166200  0.86675600  1
  H  1546  1  0.03119100  0.91960400  0.43087900  1
  H  1547  1  0.03271600  0.88391500  0.42423600  1
  H  1548  1  0.97628700  0.90079900  0.43062700  1
  H  1550  1  0.88711200  0.79575800  0.32010900  1
  H  1551  1  0.88188000  0.80771200  0.35426700  1
  H  1552  1  0.93952000  0.79737100  0.34101200  1
  H  1562  1  0.03097300  0.08330200  0.71060200  1
  H  1563  1  0.03255500  0.11898500  0.71726800  1
  H  1564  1  0.97609800  0.10213300  0.71087900  1
  H  1566  1  0.88715500  0.20714000  0.82148700  1
  H  1567  1  0.88188300  0.19521000  0.78732300  1
  H  1568  1  0.93954600  0.20551900  0.80057200  1
  H  1578  1  0.03119000  0.36163000  0.15260100  1
  H  1579  1  0.03276100  0.35494800  0.18828100  1
  H  1580  1  0.97630500  0.36133400  0.17142400  1
  H  1582  1  0.88739200  0.25067900  0.27638200  1
  H  1583  1  0.88209800  0.28484500  0.26445600  1
  H  1584  1  0.93977100  0.27160900  0.27476900  1
  H  1594  1  0.03115700  0.64129500  0.98893000  1
  H  1595  1  0.03267400  0.64795700  0.95324500  1
  H  1596  1  0.97625000  0.64155200  0.97012900  1
  H  1598  1  0.88702500  0.75212900  0.86516100  1
  H  1599  1  0.88180000  0.71796200  0.87709300  1
  H  1600  1  0.93943700  0.73122800  0.86675600  1
  H  1610  1  0.39355700  0.58761800  0.93030300  1
  H  1611  1  0.39140000  0.62305700  0.92249900  1
  H  1612  1  0.44825600  0.60653500  0.92864900  1
  H  1614  1  0.53252200  0.70786900  0.81387400  1
  H  1615  1  0.53532500  0.69805600  0.84881400  1
  H  1616  1  0.47842200  0.70643300  0.83336600  1
  H  1626  1  0.39371300  0.41532900  0.21121700  1
  H  1627  1  0.39150500  0.37989000  0.21901700  1
  H  1628  1  0.44838300  0.39638600  0.21286700  1
  H  1630  1  0.53252200  0.29499600  0.32762300  1
  H  1631  1  0.53535100  0.30481800  0.29268800  1
  H  1632  1  0.47843300  0.29645700  0.30812600  1
  H  1642  1  0.39349900  0.14191100  0.65682900  1
  H  1643  1  0.39125800  0.14971200  0.69226700  1
  H  1644  1  0.44815100  0.14354800  0.67579000  1
  H  1646  1  0.53229300  0.25828800  0.77719700  1
  H  1647  1  0.53515400  0.22335900  0.76735900  1
  H  1648  1  0.47822200  0.23877300  0.77573200  1
  H  1658  1  0.39352800  0.86094700  0.48468900  1
  H  1659  1  0.39134500  0.85315700  0.44924700  1
  H  1660  1  0.44820900  0.85933200  0.46575300  1
  H  1662  1  0.53256900  0.74463900  0.36434600  1
  H  1663  1  0.53532900  0.77957600  0.37416600  1
  H  1664  1  0.47844000  0.76410200  0.36580500  1
  H  1674  1  0.52778700  0.41527500  0.93030300  1
  H  1675  1  0.52994400  0.37983500  0.92249900  1
  H  1676  1  0.47309200  0.39635900  0.92864900  1
  H  1678  1  0.38882900  0.29502100  0.81387600  1
  H  1679  1  0.38602300  0.30483400  0.84881600  1
  H  1680  1  0.44293000  0.29645700  0.83336800  1
  H  1690  1  0.52764900  0.58754900  0.21121700  1
  H  1691  1  0.52985300  0.62298900  0.21901300  1
  H  1692  1  0.47297500  0.60648900  0.21285900  1
  H  1694  1  0.38880700  0.70788000  0.32760900  1
  H  1695  1  0.38598300  0.69805800  0.29267400  1
  H  1696  1  0.44290100  0.70641900  0.30811300  1
  H  1706  1  0.52784200  0.86098000  0.65683700  1
  H  1707  1  0.53008200  0.85317600  0.69227400  1
  H  1708  1  0.47319000  0.85934200  0.67579600  1
  H  1710  1  0.38904000  0.74459400  0.77719500  1
  H  1711  1  0.38617500  0.77952500  0.76735700  1
  H  1712  1  0.44311100  0.76411200  0.77573200  1
  H  1722  1  0.52781300  0.14194700  0.48469600  1
  H  1723  1  0.52999500  0.14973400  0.44925300  1
  H  1724  1  0.47313500  0.14355900  0.46575900  1
  H  1726  1  0.38876800  0.25824600  0.36434600  1
  H  1727  1  0.38601200  0.22330700  0.37416800  1
  H  1728  1  0.44290100  0.23878400  0.36580700  1
  C  1  1  0.12989500  0.11077200  0.32840800  1
  C  2  1  0.16211800  0.12413600  0.34665700  1
  C  3  1  0.14521400  0.13905200  0.36968400  1
  C  4  1  0.09453900  0.14035800  0.37398100  1
  C  5  1  0.06157300  0.12712500  0.35614800  1
  C  6  1  0.07877200  0.11210900  0.33293100  1
  C  9  1  0.14946300  0.09962500  0.30368100  1
  C  10  1  0.15668600  0.11621800  0.27983000  1
  C  11  1  0.16899900  0.10297400  0.25454800  1
  C  12  1  0.17312200  0.07404400  0.25333600  1
  C  13  1  0.16589400  0.05779400  0.27695300  1
  C  14  1  0.15429300  0.07077100  0.30199200  1
  C  23  1  0.12999200  0.89209500  0.81315700  1
  C  24  1  0.16223100  0.87873100  0.79491900  1
  C  25  1  0.14532700  0.86379500  0.77190400  1
  C  26  1  0.09465100  0.86247600  0.76761300  1
  C  27  1  0.06168000  0.87575100  0.78541200  1
  C  28  1  0.07886900  0.89077400  0.80862700  1
  C  31  1  0.14955800  0.90324600  0.83788800  1
  C  32  1  0.15676900  0.88664800  0.86173400  1
  C  33  1  0.16908000  0.89989900  0.88701400  1
  C  34  1  0.17318000  0.92883000  0.88822800  1
  C  35  1  0.16595500  0.94507900  0.86460800  1
  C  36  1  0.15434600  0.93210100  0.83957100  1
  C  45  1  0.12976600  0.74383600  0.18007800  1
  C  46  1  0.16199900  0.72559400  0.19344700  1
  C  47  1  0.14508500  0.70258400  0.20839000  1
  C  48  1  0.09440900  0.69829400  0.20970500  1
  C  49  1  0.06145000  0.71610700  0.19644000  1
  C  50  1  0.07864300  0.73931900  0.18142200  1
  C  53  1  0.14935200  0.76856300  0.16893400  1
  C  54  1  0.15660700  0.79239800  0.18554800  1
  C  55  1  0.16896000  0.81768200  0.17231500  1
  C  56  1  0.17313700  0.81890400  0.14338900  1
  C  57  1  0.16589000  0.79529500  0.12713000  1
  C  58  1  0.15422500  0.77025800  0.14008500  1
  C  67  1  0.12995900  0.25908300  0.96151100  1
  C  68  1  0.16219100  0.27732700  0.94814700  1
  C  69  1  0.14527800  0.30034000  0.93320900  1
  C  70  1  0.09460300  0.30464300  0.93190800  1
  C  71  1  0.06164000  0.28682200  0.94516100  1
  C  72  1  0.07883700  0.26359700  0.96015900  1
  C  75  1  0.14952900  0.23434300  0.97263100  1
  C  76  1  0.15657600  0.21049400  0.95600800  1
  C  77  1  0.16878600  0.18518000  0.96922500  1
  C  78  1  0.17295700  0.18394000  0.99814700  1
  C  79  1  0.16600700  0.20757600  0.01441200  1
  C  80  1  0.15453900  0.23265000  0.00147600  1
  C  89  1  0.79144500  0.89212000  0.32840200  1
  C  90  1  0.75922100  0.87875100  0.34664600  1
  C  91  1  0.77611900  0.86383400  0.36967600  1
  C  92  1  0.82679500  0.86252900  0.37397500  1
  C  93  1  0.85976400  0.87576400  0.35614300  1
  C  94  1  0.84256800  0.89078200  0.33293100  1
  C  97  1  0.77188500  0.90326500  0.30367300  1
  C  98  1  0.76474000  0.88667900  0.27981100  1
  C  99  1  0.75245300  0.89992600  0.25452500  1
  C  100  1  0.74830600  0.92885300  0.25332100  1
  C  101  1  0.75545200  0.94509800  0.27695100  1
  C  102  1  0.76701600  0.93211800  0.30199200  1
  C  111  1  0.79135400  0.11079200  0.81315300  1
  C  112  1  0.75911200  0.12414900  0.79491100  1
  C  113  1  0.77601400  0.13909300  0.77190200  1
  C  114  1  0.82669000  0.14042900  0.76762000  1
  C  115  1  0.85966600  0.12715900  0.78542000  1
  C  116  1  0.84248100  0.11213300  0.80863100  1
  C  119  1  0.77179100  0.09964100  0.83788200  1
  C  120  1  0.76459500  0.11624000  0.86173200  1
  C  121  1  0.75230400  0.10299000  0.88701400  1
  C  122  1  0.74821200  0.07405900  0.88823000  1
  C  123  1  0.75540500  0.05781000  0.86460600  1
  C  124  1  0.76699800  0.07078600  0.83956700  1
  C  133  1  0.79156800  0.25905400  0.18007600  1
  C  134  1  0.75933300  0.27729600  0.19344500  1
  C  135  1  0.77624600  0.30030500  0.20839000  1
  C  136  1  0.82692300  0.30459600  0.20970700  1
  C  137  1  0.85988000  0.28678500  0.19644200  1
  C  138  1  0.84269200  0.26357200  0.18142200  1
  C  141  1  0.77198700  0.23432700  0.16893300  1
  C  142  1  0.76474000  0.21049200  0.18554700  1
  C  143  1  0.75239800  0.18520600  0.17231400  1
  C  144  1  0.74821900  0.18398400  0.14338800  1
  C  145  1  0.75545600  0.20759500  0.12712900  1
  C  146  1  0.76711100  0.23263400  0.14008300  1
  C  155  1  0.79138700  0.74380100  0.96151700  1
  C  156  1  0.75915500  0.72555700  0.94815100  1
  C  157  1  0.77606500  0.70254500  0.93321100  1
  C  158  1  0.82674100  0.69824300  0.93191000  1
  C  159  1  0.85970600  0.71606400  0.94516300  1
  C  160  1  0.84251000  0.73928900  0.96016100  1
  C  163  1  0.77181600  0.76854200  0.97263500  1
  C  164  1  0.76479400  0.79239400  0.95601200  1
  C  165  1  0.75259800  0.81771100  0.96922900  1
  C  166  1  0.74842600  0.81895000  0.99815100  1
  C  167  1  0.75534700  0.79531200  0.01441500  1
  C  168  1  0.76679800  0.77023500  0.00148000  1
  C  177  1  0.79318100  0.88932100  0.81477000  1
  C  178  1  0.76058600  0.87556000  0.79701900  1
  C  179  1  0.77687400  0.86078300  0.77374700  1
  C  180  1  0.82743400  0.85990500  0.76884400  1
  C  181  1  0.86073000  0.87363700  0.78610400  1
  C  182  1  0.84409700  0.88857900  0.80949200  1
  C  185  1  0.77427500  0.90066100  0.83957300  1
  C  186  1  0.76767000  0.88430300  0.86364300  1
  C  187  1  0.75393400  0.89767200  0.88861400  1
  C  188  1  0.74852400  0.92653300  0.88943600  1
  C  189  1  0.75573500  0.94259300  0.86568100  1
  C  190  1  0.76846900  0.92948500  0.84089700  1
  C  199  1  0.79310100  0.11361800  0.32672100  1
  C  200  1  0.76049200  0.12737000  0.34447000  1
  C  201  1  0.77678300  0.14216500  0.36773000  1
  C  202  1  0.82734400  0.14306000  0.37262300  1
  C  203  1  0.86064300  0.12930200  0.35538500  1
  C  204  1  0.84401300  0.11436000  0.33199600  1
  C  207  1  0.77418000  0.10226000  0.30192700  1
  C  208  1  0.76747700  0.11861700  0.27786500  1
  C  209  1  0.75369100  0.10523600  0.25291000  1
  C  210  1  0.74832100  0.07637000  0.25209900  1
  C  211  1  0.75564400  0.06031600  0.27584800  1
  C  212  1  0.76845800  0.07343200  0.30061400  1
  C  221  1  0.79318400  0.25740600  0.95864700  1
  C  222  1  0.76056100  0.27514700  0.94488800  1
  C  223  1  0.77683800  0.29841100  0.93009000  1
  C  224  1  0.82739500  0.30331600  0.92919200  1
  C  225  1  0.86070800  0.28607400  0.94293200  1
  C  226  1  0.84409300  0.26268700  0.95788400  1
  C  229  1  0.77427800  0.23260500  0.96999500  1
  C  230  1  0.76757900  0.20855200  0.95362300  1
  C  231  1  0.75378900  0.18358600  0.96698700  1
  C  232  1  0.74836800  0.18276200  0.99584800  1
  C  233  1  0.75567000  0.20650100  0.01191500  1
  C  234  1  0.76848700  0.23127800  0.99881700  1
  C  243  1  0.79295200  0.74546900  0.18282300  1
  C  244  1  0.76035400  0.72772400  0.19659000  1
  C  245  1  0.77665300  0.70446200  0.21137900  1
  C  246  1  0.82721300  0.69956200  0.21225900  1
  C  247  1  0.86050500  0.71681400  0.19851400  1
  C  248  1  0.84386400  0.74019700  0.18357000  1
  C  251  1  0.77404600  0.77028300  0.17150100  1
  C  252  1  0.76756800  0.79435400  0.18787800  1
  C  253  1  0.75394100  0.81935400  0.17452500  1
  C  254  1  0.74856400  0.82020700  0.14566100  1
  C  255  1  0.75559400  0.79643800  0.12960100  1
  C  256  1  0.76811700  0.77161000  0.14268700  1
  C  265  1  0.12815000  0.11357600  0.81477400  1
  C  266  1  0.16074600  0.12733300  0.79701900  1
  C  267  1  0.14445500  0.14211400  0.77375100  1
  C  268  1  0.09389600  0.14299700  0.76885300  1
  C  269  1  0.06059900  0.12926700  0.78611200  1
  C  270  1  0.07723500  0.11432300  0.80950000  1
  C  273  1  0.14706300  0.10223200  0.83957300  1
  C  274  1  0.15369400  0.11859100  0.86364100  1
  C  275  1  0.16745400  0.10522300  0.88860800  1
  C  276  1  0.17287000  0.07636000  0.88942800  1
  C  277  1  0.16562300  0.06030000  0.86567700  1
  C  278  1  0.15285300  0.07340700  0.84089700  1
  C  287  1  0.12823200  0.88927000  0.32671700  1
  C  288  1  0.16084200  0.87551700  0.34446800  1
  C  289  1  0.14455000  0.86072300  0.36772800  1
  C  290  1  0.09399100  0.85982700  0.37262100  1
  C  291  1  0.06069100  0.87358600  0.35538300  1
  C  292  1  0.07731800  0.88852800  0.33199200  1
  C  295  1  0.14715300  0.90062800  0.30192500  1
  C  296  1  0.15387200  0.88427000  0.27786300  1
  C  297  1  0.16767400  0.89765100  0.25291200  1
  C  298  1  0.17304400  0.92651800  0.25210100  1
  C  299  1  0.16569700  0.94257400  0.27584500  1
  C  300  1  0.15286300  0.92945700  0.30060900  1
  C  309  1  0.12816100  0.74548600  0.95864500  1
  C  310  1  0.16078300  0.72774500  0.94488600  1
  C  311  1  0.14450800  0.70448100  0.93009000  1
  C  312  1  0.09395200  0.69957600  0.92919200  1
  C  313  1  0.06063800  0.71681800  0.94293200  1
  C  314  1  0.07725000  0.74020500  0.95788400  1
  C  317  1  0.14706600  0.77028700  0.96999500  1
  C  318  1  0.15378200  0.79433800  0.95362100  1
  C  319  1  0.16758400  0.81930100  0.96698700  1
  C  320  1  0.17300200  0.82012500  0.99584800  1
  C  321  1  0.16568300  0.79638600  0.01191500  1
  C  322  1  0.15285300  0.77161200  0.99881700  1
  C  331  1  0.12837800  0.25741200  0.18282700  1
  C  332  1  0.16097900  0.27515700  0.19659200  1
  C  333  1  0.14468100  0.29842100  0.21138100  1
  C  334  1  0.09412100  0.30332200  0.21226100  1
  C  335  1  0.06082600  0.28607000  0.19851800  1
  C  336  1  0.07746400  0.26268300  0.18357700  1
  C  339  1  0.14728800  0.23260100  0.17150200  1
  C  340  1  0.15380800  0.20853400  0.18787800  1
  C  341  1  0.16746900  0.18354000  0.17452400  1
  C  342  1  0.17284500  0.18269000  0.14566000  1
  C  343  1  0.16576000  0.20645400  0.12959800  1
  C  344  1  0.15319700  0.23127400  0.14268600  1
  C  353  1  0.63209900  0.61198200  0.82739500  1
  C  354  1  0.66360800  0.62536200  0.84604400  1
  C  355  1  0.64528700  0.64139200  0.86786500  1
  C  356  1  0.59455600  0.64308700  0.87141400  1
  C  357  1  0.56241900  0.62949200  0.85339200  1
  C  358  1  0.58071500  0.61385400  0.83085100  1
  C  361  1  0.65275600  0.60052200  0.80310700  1
  C  362  1  0.66085300  0.61683900  0.77915900  1
  C  363  1  0.67376000  0.60330000  0.75412600  1
  C  364  1  0.67775100  0.57434700  0.75327500  1
  C  365  1  0.66950500  0.55834000  0.77696300  1
  C  366  1  0.65728300  0.57164300  0.80174500  1
  C  375  1  0.63219400  0.39089600  0.31412800  1
  C  376  1  0.66371700  0.37753200  0.29547700  1
  C  377  1  0.64538900  0.36147400  0.27368000  1
  C  378  1  0.59465800  0.35977400  0.27013100  1
  C  379  1  0.56251700  0.37338300  0.28814100  1
  C  380  1  0.58080900  0.38902000  0.31068400  1
  C  383  1  0.65286100  0.40235700  0.33841900  1
  C  384  1  0.66099800  0.38602600  0.36235100  1
  C  385  1  0.67390200  0.39956700  0.38738200  1
  C  386  1  0.67784500  0.42852200  0.38824900  1
  C  387  1  0.66955600  0.44453500  0.36457000  1
  C  388  1  0.65730500  0.43123900  0.33978800  1
  C  397  1  0.63197200  0.24483100  0.68128700  1
  C  398  1  0.66351000  0.22617800  0.69464700  1
  C  399  1  0.64518900  0.20439100  0.71072500  1
  C  400  1  0.59446200  0.20083200  0.71242500  1
  C  401  1  0.56231700  0.21883600  0.69881200  1
  C  402  1  0.58059500  0.24137900  0.68317300  1
  C  405  1  0.65264300  0.26911800  0.66982900  1
  C  406  1  0.66083800  0.29303800  0.68617300  1
  C  407  1  0.67380000  0.31807100  0.67264900  1
  C  408  1  0.67783100  0.31894000  0.64369700  1
  C  409  1  0.66946900  0.29527700  0.62767400  1
  C  410  1  0.65716000  0.27049700  0.64095200  1
  C  419  1  0.63212800  0.75808600  0.46031400  1
  C  420  1  0.66366300  0.77673900  0.44695200  1
  C  421  1  0.64533800  0.79851900  0.43086700  1
  C  422  1  0.59460700  0.80207600  0.42917000  1
  C  423  1  0.56246200  0.78407600  0.44278900  1
  C  424  1  0.58075100  0.76152900  0.45841700  1
  C  427  1  0.65279200  0.73378600  0.47175100  1
  C  428  1  0.66082300  0.70985600  0.45539300  1
  C  429  1  0.67369500  0.68479800  0.46889600  1
  C  430  1  0.67776500  0.68391300  0.49784400  1
  C  431  1  0.66963600  0.70759600  0.51387300  1
  C  432  1  0.65742900  0.73240500  0.50062200  1
  C  441  1  0.28924500  0.39090800  0.82739700  1
  C  442  1  0.25773800  0.37752700  0.84604800  1
  C  443  1  0.27606200  0.36150000  0.86786900  1
  C  444  1  0.32679300  0.35980300  0.87141600  1
  C  445  1  0.35892700  0.37339700  0.85339200  1
  C  446  1  0.34062800  0.38903600  0.83085300  1
  C  449  1  0.26858200  0.40236900  0.80311200  1
  C  450  1  0.26046100  0.38605300  0.77916700  1
  C  451  1  0.24754600  0.39959100  0.75413600  1
  C  452  1  0.24356500  0.42854500  0.75328400  1
  C  453  1  0.25183400  0.44455200  0.77696900  1
  C  454  1  0.26406900  0.43125100  0.80174900  1
  C  463  1  0.28914000  0.61198800  0.31412400  1
  C  464  1  0.25761300  0.62535600  0.29547500  1
  C  465  1  0.27594100  0.64141200  0.27367800  1
  C  466  1  0.32667200  0.64310900  0.27012500  1
  C  467  1  0.35881200  0.62949900  0.28813300  1
  C  468  1  0.34052300  0.61386200  0.31067600  1
  C  471  1  0.26847700  0.60052900  0.33841900  1
  C  472  1  0.26034600  0.61686200  0.36234900  1
  C  473  1  0.24744300  0.60332300  0.38738000  1
  C  474  1  0.24349600  0.57436700  0.38824900  1
  C  475  1  0.25178400  0.55835300  0.36457000  1
  C  476  1  0.26402900  0.57164700  0.33978800  1
  C  485  1  0.28936800  0.75806100  0.68128500  1
  C  486  1  0.25783000  0.77671200  0.69464700  1
  C  487  1  0.27615100  0.79849900  0.71072500  1
  C  488  1  0.32687900  0.80205500  0.71242500  1
  C  489  1  0.35902300  0.78405400  0.69881400  1
  C  490  1  0.34074600  0.76151300  0.68317100  1
  C  493  1  0.26869700  0.73377200  0.66982700  1
  C  494  1  0.26050500  0.70985200  0.68617100  1
  C  495  1  0.24754600  0.68481900  0.67264700  1
  C  496  1  0.24351400  0.68395000  0.64369500  1
  C  497  1  0.25187500  0.70761200  0.62767200  1
  C  498  1  0.26418300  0.73239500  0.64095000  1
  C  507  1  0.28921100  0.24480600  0.46031200  1
  C  508  1  0.25767700  0.22615100  0.44695200  1
  C  509  1  0.27600100  0.20436800  0.43087100  1
  C  510  1  0.32673100  0.20081200  0.42917400  1
  C  511  1  0.35887500  0.21881400  0.44279100  1
  C  512  1  0.34059000  0.24136000  0.45841700  1
  C  515  1  0.26854600  0.26910600  0.47174800  1
  C  516  1  0.26051100  0.29303600  0.45539100  1
  C  517  1  0.24763700  0.31809100  0.46889400  1
  C  518  1  0.24356800  0.31897900  0.49784200  1
  C  519  1  0.25170300  0.29529400  0.51387100  1
  C  520  1  0.26391200  0.27048700  0.50062200  1
  C  529  1  0.29255100  0.38934400  0.31540200  1
  C  530  1  0.26044100  0.37561600  0.29733000  1
  C  531  1  0.27799500  0.35959100  0.27530300  1
  C  532  1  0.32858900  0.35814900  0.27104100  1
  C  533  1  0.36127900  0.37218700  0.28841200  1
  C  534  1  0.34375600  0.38785300  0.31113000  1
  C  537  1  0.27272900  0.40091300  0.33986000  1
  C  538  1  0.26496800  0.38468600  0.36390800  1
  C  539  1  0.25007900  0.39818800  0.38859000  1
  C  540  1  0.24440700  0.42704100  0.38912700  1
  C  541  1  0.25289200  0.44300900  0.36542900  1
  C  542  1  0.26704900  0.42975100  0.34096100  1
  C  551  1  0.29245200  0.61358000  0.82610800  1
  C  552  1  0.26033000  0.62729200  0.84418400  1
  C  553  1  0.27789700  0.64333900  0.86619300  1
  C  554  1  0.32849100  0.64478400  0.87045200  1
  C  555  1  0.36118100  0.63074200  0.85308300  1
  C  556  1  0.34365800  0.61507600  0.83036400  1
  C  559  1  0.27261700  0.60200400  0.80165300  1
  C  560  1  0.26479100  0.61823200  0.77761200  1
  C  561  1  0.24987700  0.60471800  0.75294000  1
  C  562  1  0.24424800  0.57586300  0.75240800  1
  C  563  1  0.25280400  0.55989800  0.77610000  1
  C  564  1  0.26700200  0.57316100  0.80055700  1
  C  573  1  0.29254600  0.75677700  0.45867400  1
  C  574  1  0.26039100  0.77484000  0.44496500  1
  C  575  1  0.27792500  0.79684000  0.42889200  1
  C  576  1  0.32851200  0.80112300  0.42744000  1
  C  577  1  0.36123100  0.78377000  0.44148000  1
  C  578  1  0.34374400  0.76105300  0.45715600  1
  C  581  1  0.27273300  0.73231300  0.47024200  1
  C  582  1  0.26488700  0.70828400  0.45399900  1
  C  583  1  0.24995300  0.68360700  0.46749700  1
  C  584  1  0.24426000  0.68306400  0.49634800  1
  C  585  1  0.25284300  0.70674300  0.51232600  1
  C  586  1  0.26707200  0.73120300  0.49907900  1
  C  595  1  0.29238100  0.24609700  0.68279900  1
  C  596  1  0.26023800  0.22802900  0.69651300  1
  C  597  1  0.27778500  0.20603100  0.71258500  1
  C  598  1  0.32837600  0.20175700  0.71403100  1
  C  599  1  0.36108300  0.21910700  0.69997900  1
  C  600  1  0.34358000  0.24182500  0.68430900  1
  C  603  1  0.27256900  0.27056500  0.67124300  1
  C  604  1  0.26486300  0.29461000  0.68749000  1
  C  605  1  0.25002700  0.31931000  0.67399900  1
  C  606  1  0.24435300  0.31986900  0.64514800  1
  C  607  1  0.25278800  0.29617100  0.62917800  1
  C  608  1  0.26683000  0.27167200  0.64241300  1
  C  617  1  0.62878800  0.61354100  0.31540600  1
  C  618  1  0.66090000  0.62727100  0.29733600  1
  C  619  1  0.64334400  0.64329400  0.27530500  1
  C  620  1  0.59275100  0.64473300  0.27104100  1
  C  621  1  0.56005900  0.63069700  0.28841200  1
  C  622  1  0.57758100  0.61503300  0.31113200  1
  C  625  1  0.64860500  0.60197300  0.33986400  1
  C  626  1  0.65636800  0.61820200  0.36391300  1
  C  627  1  0.67125500  0.60469800  0.38859400  1
  C  628  1  0.67692600  0.57584700  0.38913300  1
  C  629  1  0.66844500  0.55987900  0.36543500  1
  C  630  1  0.65428800  0.57313700  0.34096500  1
  C  639  1  0.62889700  0.38931100  0.82610800  1
  C  640  1  0.66101600  0.37560200  0.84418400  1
  C  641  1  0.64345000  0.35955400  0.86619300  1
  C  642  1  0.59285700  0.35811000  0.87045200  1
  C  643  1  0.56016400  0.37215000  0.85308300  1
  C  644  1  0.57769000  0.38781600  0.83036400  1
  C  647  1  0.64873300  0.40089000  0.80165300  1
  C  648  1  0.65655700  0.38466200  0.77761400  1
  C  649  1  0.67146900  0.39817400  0.75294000  1
  C  650  1  0.67710100  0.42702900  0.75240800  1
  C  651  1  0.66854300  0.44299400  0.77610000  1
  C  652  1  0.65434600  0.42973100  0.80055700  1
  C  661  1  0.62879200  0.24611500  0.45867400  1
  C  662  1  0.66094700  0.22805200  0.44496700  1
  C  663  1  0.64341300  0.20605100  0.42889400  1
  C  664  1  0.59282800  0.20176900  0.42744200  1
  C  665  1  0.56010600  0.21912000  0.44148200  1
  C  666  1  0.57759600  0.24183900  0.45715800  1
  C  669  1  0.64860500  0.27057700  0.47024400  1
  C  670  1  0.65645500  0.29460800  0.45400100  1
  C  671  1  0.67138900  0.31928300  0.46749700  1
  C  672  1  0.67708300  0.31982600  0.49635000  1
  C  673  1  0.66849900  0.29614900  0.51232800  1
  C  674  1  0.65426600  0.27168700  0.49908100  1
  C  683  1  0.62895900  0.75679300  0.68279900  1
  C  684  1  0.66110300  0.77485900  0.69651300  1
  C  685  1  0.64355500  0.79685700  0.71258500  1
  C  686  1  0.59296200  0.80113100  0.71403400  1
  C  687  1  0.56025800  0.78378000  0.69998100  1
  C  688  1  0.57775900  0.76106300  0.68431100  1
  C  691  1  0.64877300  0.73232300  0.67124500  1
  C  692  1  0.65646300  0.70827800  0.68749000  1
  C  693  1  0.67128800  0.68357400  0.67399900  1
  C  694  1  0.67696300  0.68301500  0.64514800  1
  C  695  1  0.66854600  0.70671700  0.62917800  1
  C  696  1  0.65451700  0.73121800  0.64241300  1
  C  705  1  0.16718400  0.97155900  0.27461500  1
  C  707  1  0.12171000  0.01356800  0.27472800  1
  C  708  1  0.16540500  0.02881200  0.27518000  1
  C  710  1  0.21084000  0.98679700  0.27503200  1
  C  713  1  0.28322800  0.97493500  0.25266400  1
  C  717  1  0.04713700  0.02255000  0.29668500  1
  C  721  1  0.16715100  0.03131500  0.86691600  1
  C  723  1  0.12173500  0.98928700  0.86689500  1
  C  724  1  0.16544700  0.97405900  0.86637800  1
  C  726  1  0.21082400  0.01609500  0.86642700  1
  C  729  1  0.28324700  0.02803900  0.88870900  1
  C  733  1  0.04711000  0.98025200  0.84502000  1
  C  737  1  0.16719900  0.79763400  0.04089800  1
  C  739  1  0.12174500  0.79778400  0.08291000  1
  C  740  1  0.16543400  0.79708100  0.09815000  1
  C  742  1  0.21084900  0.79694500  0.05613100  1
  C  745  1  0.28346100  0.81898700  0.04413200  1
  C  749  1  0.04695400  0.77611800  0.09198000  1
  C  753  1  0.16735700  0.20520000  0.10062400  1
  C  755  1  0.12201400  0.20405500  0.05860100  1
  C  756  1  0.16563700  0.20577800  0.04338400  1
  C  758  1  0.21093700  0.20693900  0.08541200  1
  C  761  1  0.28432100  0.18610000  0.09791900  1
  C  765  1  0.04654200  0.22465500  0.04909400  1
  C  769  1  0.75415200  0.03133100  0.27461700  1
  C  771  1  0.79962200  0.98932200  0.27463900  1
  C  772  1  0.75593100  0.97407800  0.27518200  1
  C  774  1  0.71049800  0.01609300  0.27512800  1
  C  777  1  0.63804000  0.02800100  0.25286500  1
  C  781  1  0.87424800  0.98029400  0.29651000  1
  C  785  1  0.75420300  0.97157700  0.86692000  1
  C  787  1  0.79961500  0.01360400  0.86702100  1
  C  788  1  0.75590600  0.02883000  0.86637800  1
  C  790  1  0.71053400  0.98679500  0.86630000  1
  C  793  1  0.63801100  0.97478900  0.88843500  1
  C  797  1  0.87432400  0.02269800  0.84527700  1
  C  801  1  0.75414800  0.20525500  0.04089800  1
  C  803  1  0.79959600  0.20507500  0.08291100  1
  C  804  1  0.75590900  0.20580900  0.09814900  1
  C  806  1  0.71049800  0.20597700  0.05612900  1
  C  809  1  0.63786500  0.18397100  0.04411100  1
  C  813  1  0.87440700  0.22670800  0.09199700  1
  C  817  1  0.75399200  0.79769100  0.10062600  1
  C  819  1  0.79932400  0.79891000  0.05860300  1
  C  820  1  0.75571000  0.79711000  0.04338700  1
  C  822  1  0.71042200  0.79587100  0.08541600  1
  C  825  1  0.63699400  0.81662800  0.09797100  1
  C  829  1  0.87484300  0.77838700  0.04906500  1
  C  833  1  0.67011500  0.47201800  0.77502100  1
  C  835  1  0.62497900  0.51411600  0.77736300  1
  C  836  1  0.66861200  0.52931700  0.77545000  1
  C  838  1  0.71367800  0.48720800  0.77291500  1
  C  841  1  0.78423000  0.47676000  0.74788800  1
  C  845  1  0.55215100  0.52222600  0.80164000  1
  C  849  1  0.67005300  0.53085800  0.36651600  1
  C  851  1  0.62496800  0.48873900  0.36422900  1
  C  852  1  0.66862600  0.47355700  0.36609100  1
  C  854  1  0.71364600  0.51568300  0.36856700  1
  C  857  1  0.78422700  0.52620000  0.39353400  1
  C  861  1  0.55208500  0.48058600  0.34002000  1
  C  865  1  0.67007900  0.29724000  0.54134900  1
  C  867  1  0.62494700  0.29487900  0.58344900  1
  C  868  1  0.66857500  0.29681000  0.59865000  1
  C  870  1  0.71363900  0.29936000  0.55654200  1
  C  873  1  0.78418000  0.32439700  0.54609600  1
  C  877  1  0.55209600  0.27060200  0.59152000  1
  C  881  1  0.67019100  0.70561700  0.60016900  1
  C  883  1  0.62503700  0.70702700  0.55804800  1
  C  884  1  0.66879700  0.70604300  0.54288400  1
  C  886  1  0.71390000  0.70448300  0.58501100  1
  C  889  1  0.78532700  0.68058200  0.59601000  1
  C  893  1  0.55139900  0.73027600  0.54949600  1
  C  897  1  0.25123200  0.53087600  0.77502300  1
  C  899  1  0.29636200  0.48877600  0.77737400  1
  C  900  1  0.25273200  0.47357500  0.77545400  1
  C  902  1  0.20766700  0.51568300  0.77291100  1
  C  905  1  0.13712300  0.52613000  0.74787800  1
  C  909  1  0.36919300  0.48067200  0.80165300  1
  C  913  1  0.25128300  0.47203000  0.36651200  1
  C  915  1  0.29636800  0.51414800  0.36423100  1
  C  916  1  0.25271100  0.52933100  0.36609500  1
  C  918  1  0.20769000  0.48720200  0.36856000  1
  C  921  1  0.13710500  0.47668600  0.39352200  1
  C  925  1  0.36925500  0.52230200  0.34002400  1
  C  929  1  0.25126500  0.70565000  0.54134700  1
  C  931  1  0.29639500  0.70800300  0.58344700  1
  C  932  1  0.25276600  0.70608000  0.59864800  1
  C  934  1  0.20770000  0.70354000  0.55654000  1
  C  937  1  0.13715200  0.67851100  0.54609000  1
  C  941  1  0.36925500  0.73227200  0.59152300  1
  C  945  1  0.25114600  0.29727000  0.60016700  1
  C  947  1  0.29630000  0.29583000  0.55804800  1
  C  948  1  0.25254300  0.29684900  0.54288200  1
  C  950  1  0.20743900  0.29844000  0.58500900  1
  C  953  1  0.13603900  0.32237800  0.59598500  1
  C  957  1  0.36990900  0.27254600  0.54951300  1
  C  961  1  0.17809800  0.15459200  0.38620900  1
  C  963  1  0.24871000  0.18377500  0.38661600  1
  C  964  1  0.24409100  0.18758600  0.41531700  1
  C  966  1  0.17376000  0.15844900  0.41499800  1
  C  969  1  0.15244800  0.12020200  0.44150600  1
  C  973  1  0.26906800  0.22165100  0.35929300  1
  C  977  1  0.17822200  0.84826700  0.75537500  1
  C  979  1  0.24884100  0.81908900  0.75497700  1
  C  980  1  0.24422700  0.81527600  0.72627400  1
  C  982  1  0.17388500  0.84440600  0.72658600  1
  C  985  1  0.15255800  0.88265100  0.70008000  1
  C  989  1  0.26922100  0.78121400  0.78229300  1
  C  993  1  0.17799000  0.68606200  0.22392000  1
  C  995  1  0.24864000  0.68565900  0.25307500  1
  C  996  1  0.24403000  0.65695600  0.25688600  1
  C  998  1  0.17366200  0.65727300  0.22777800  1
  C  1001  1  0.15231300  0.63075800  0.18954300  1
  C  1005  1  0.26904700  0.71297900  0.29094400  1
  C  1009  1  0.17816000  0.31685900  0.91766000  1
  C  1011  1  0.24876200  0.31725300  0.88847200  1
  C  1012  1  0.24415800  0.34595600  0.88466300  1
  C  1014  1  0.17383200  0.34565000  0.91380400  1
  C  1017  1  0.15253300  0.37216000  0.95204900  1
  C  1021  1  0.26910100  0.28993900  0.85058700  1
  C  1025  1  0.74323400  0.84829600  0.38620100  1
  C  1027  1  0.67262800  0.81911000  0.38660900  1
  C  1028  1  0.67724600  0.81530000  0.41531000  1
  C  1030  1  0.74757300  0.84444100  0.41499000  1
  C  1033  1  0.76887900  0.88269000  0.44149600  1
  C  1037  1  0.65227300  0.78123000  0.35928900  1
  C  1041  1  0.74311800  0.15462000  0.75537300  1
  C  1043  1  0.67249000  0.18379100  0.75497500  1
  C  1044  1  0.67711200  0.18761100  0.72627400  1
  C  1046  1  0.74746000  0.15848800  0.72658600  1
  C  1049  1  0.76881400  0.12025100  0.70007600  1
  C  1053  1  0.65210200  0.22166400  0.78229700  1
  C  1057  1  0.74333900  0.31682600  0.22392000  1
  C  1059  1  0.67268900  0.31722600  0.25307500  1
  C  1060  1  0.67729700  0.34592900  0.25688800  1
  C  1062  1  0.74766700  0.34561700  0.22777800  1
  C  1065  1  0.76901300  0.37213200  0.18954400  1
  C  1069  1  0.65229100  0.28990600  0.29094600  1
  C  1073  1  0.74318700  0.68602900  0.91766000  1
  C  1075  1  0.67258800  0.68563700  0.88847000  1
  C  1076  1  0.67719200  0.65693400  0.88465900  1
  C  1078  1  0.74751500  0.65723800  0.91380200  1
  C  1081  1  0.76880600  0.63072500  0.95204900  1
  C  1085  1  0.65225100  0.71295100  0.85058500  1
  C  1089  1  0.74349900  0.84542100  0.75729200  1
  C  1091  1  0.67173400  0.81707200  0.75688600  1
  C  1092  1  0.67609500  0.81324400  0.72817600  1
  C  1094  1  0.74737000  0.84166900  0.72845600  1
  C  1097  1  0.76903900  0.88003600  0.70220200  1
  C  1101  1  0.64892100  0.77940400  0.78391800  1
  C  1105  1  0.74339400  0.15751100  0.38419100  1
  C  1107  1  0.67162900  0.18585500  0.38459600  1
  C  1108  1  0.67597200  0.18967100  0.41330700  1
  C  1110  1  0.74725300  0.16125300  0.41303000  1
  C  1113  1  0.76892600  0.12287700  0.43926700  1
  C  1117  1  0.64883400  0.22353300  0.35757400  1
  C  1121  1  0.74342600  0.31486100  0.91474700  1
  C  1123  1  0.67164000  0.31526400  0.88642000  1
  C  1124  1  0.67597900  0.34397300  0.88259600  1
  C  1126  1  0.74727900  0.34370200  0.91100300  1
  C  1129  1  0.76896600  0.36995400  0.94936700  1
  C  1133  1  0.64883400  0.28822700  0.84875200  1
  C  1137  1  0.74327800  0.68800600  0.22674300  1
  C  1139  1  0.67151300  0.68759300  0.25508800  1
  C  1140  1  0.67587400  0.65888400  0.25891000  1
  C  1142  1  0.74715200  0.65916700  0.23049100  1
  C  1145  1  0.76884300  0.63291800  0.19212600  1
  C  1149  1  0.64871100  0.71461900  0.29276000  1
  C  1153  1  0.17783600  0.15747300  0.75729400  1
  C  1155  1  0.24960900  0.18581300  0.75688400  1
  C  1156  1  0.24524500  0.18964400  0.72817600  1
  C  1158  1  0.17395900  0.16122800  0.72845800  1
  C  1161  1  0.15226900  0.12286800  0.70220200  1
  C  1165  1  0.27243900  0.22347600  0.78392000  1
  C  1169  1  0.17794100  0.84537800  0.38418700  1
  C  1171  1  0.24971000  0.81703700  0.38459400  1
  C  1172  1  0.24536700  0.81321900  0.41330500  1
  C  1174  1  0.17408100  0.84163600  0.41302700  1
  C  1177  1  0.15240700  0.88001100  0.43926500  1
  C  1181  1  0.27250600  0.77935800  0.35756900  1
  C  1185  1  0.17791800  0.68803100  0.91474700  1
  C  1187  1  0.24970700  0.68763000  0.88642000  1
  C  1188  1  0.24536700  0.65891900  0.88259600  1
  C  1190  1  0.17406900  0.65919000  0.91100300  1
  C  1193  1  0.15238200  0.63293800  0.94936500  1
  C  1197  1  0.27251300  0.71466400  0.84875200  1
  C  1201  1  0.17805700  0.31487800  0.22674300  1
  C  1203  1  0.24982500  0.31529300  0.25508400  1
  C  1204  1  0.24546800  0.34400200  0.25890400  1
  C  1206  1  0.17418200  0.34371600  0.23049100  1
  C  1209  1  0.15249000  0.36996800  0.19212600  1
  C  1213  1  0.27262900  0.28826700  0.29275800  1
  C  1217  1  0.17306200  0.15876200  0.18943400  1
  C  1219  1  0.13096600  0.12272200  0.21310100  1
  C  1220  1  0.17232100  0.11798400  0.22968500  1
  C  1222  1  0.21478200  0.15354900  0.20553200  1
  C  1225  1  0.29167600  0.16016900  0.18658300  1
  C  1229  1  0.05065500  0.12382400  0.22981300  1
  C  1233  1  0.17320900  0.84409000  0.95209000  1
  C  1235  1  0.13104500  0.88012600  0.92847700  1
  C  1236  1  0.17237000  0.88489500  0.91188200  1
  C  1238  1  0.21490700  0.84931500  0.93598500  1
  C  1241  1  0.29177300  0.84264900  0.95495200  1
  C  1245  1  0.05073100  0.87901600  0.91176900  1
  C  1249  1  0.17326000  0.88277900  0.22811300  1
  C  1251  1  0.13098200  0.85913900  0.19209900  1
  C  1252  1  0.17229200  0.84254200  0.18734200  1
  C  1254  1  0.21491500  0.86663700  0.22285100  1
  C  1257  1  0.29178100  0.88562300  0.22947000  1
  C  1261  1  0.05064500  0.84247500  0.19327100  1
  C  1265  1  0.17297600  0.12011000  0.91340500  1
  C  1267  1  0.13073200  0.14372000  0.94943100  1
  C  1268  1  0.17203400  0.16032100  0.95419800  1
  C  1270  1  0.21464700  0.13623800  0.91865700  1
  C  1273  1  0.29153800  0.11728300  0.91204100  1
  C  1277  1  0.05044000  0.16044700  0.94830900  1
  C  1281  1  0.74838600  0.84413500  0.18943500  1
  C  1283  1  0.79054500  0.88018400  0.21305600  1
  C  1284  1  0.74922100  0.88492800  0.22964800  1
  C  1286  1  0.70670000  0.84935800  0.20555800  1
  C  1289  1  0.62977600  0.84273300  0.18664900  1
  C  1293  1  0.87084200  0.87908400  0.22978000  1
  C  1297  1  0.74817200  0.15879700  0.95209000  1
  C  1299  1  0.79034500  0.12276800  0.92847200  1
  C  1300  1  0.74901800  0.11799400  0.91188200  1
  C  1302  1  0.70647100  0.15356700  0.93598700  1
  C  1305  1  0.62960500  0.16021900  0.95495600  1
  C  1309  1  0.87065300  0.12388700  0.91175900  1
  C  1313  1  0.74810300  0.12011000  0.22811300  1
  C  1315  1  0.79038100  0.14375100  0.19209700  1
  C  1316  1  0.74906900  0.16034500  0.18734100  1
  C  1318  1  0.70644900  0.13625200  0.22285100  1
  C  1321  1  0.62958000  0.11726900  0.22946500  1
  C  1325  1  0.87071100  0.16042100  0.19326800  1
  C  1329  1  0.74841900  0.88278300  0.91341100  1
  C  1331  1  0.79066100  0.85917000  0.94943500  1
  C  1332  1  0.74935600  0.84256900  0.95420200  1
  C  1334  1  0.70674700  0.86665300  0.91866100  1
  C  1337  1  0.62984800  0.88560400  0.91204900  1
  C  1341  1  0.87094700  0.84243600  0.94831300  1
  C  1345  1  0.67727900  0.65871300  0.68873100  1
  C  1347  1  0.63542200  0.62272200  0.71263000  1
  C  1348  1  0.67695900  0.61800600  0.72906200  1
  C  1350  1  0.71918700  0.65350800  0.70467800  1
  C  1353  1  0.79579500  0.66022100  0.68541300  1
  C  1357  1  0.55508800  0.62407400  0.72936000  1
  C  1361  1  0.67744900  0.34414800  0.45277100  1
  C  1363  1  0.63559600  0.38011200  0.42886400  1
  C  1364  1  0.67714100  0.38485300  0.41243600  1
  C  1366  1  0.71937200  0.34934800  0.43684800  1
  C  1369  1  0.79591800  0.34261100  0.45618600  1
  C  1373  1  0.55525500  0.37874800  0.41213600  1
  C  1377  1  0.67749700  0.38347000  0.72807000  1
  C  1379  1  0.63554500  0.35954400  0.69211100  1
  C  1380  1  0.67707900  0.34311600  0.68738500  1
  C  1382  1  0.71937900  0.36751000  0.72283200  1
  C  1385  1  0.79593300  0.38685000  0.72952600  1
  C  1389  1  0.55517900  0.34285900  0.69352700  1
  C  1393  1  0.67723100  0.61941400  0.41346700  1
  C  1395  1  0.63533500  0.64332700  0.44943200  1
  C  1396  1  0.67687600  0.65975100  0.45416600  1
  C  1398  1  0.71914300  0.63535100  0.41869000  1
  C  1401  1  0.79571100  0.61602600  0.41200000  1
  C  1405  1  0.55501200  0.66007100  0.44805900  1
  C  1409  1  0.24402300  0.34417000  0.68873100  1
  C  1411  1  0.28585100  0.38015700  0.71264500  1
  C  1412  1  0.24431000  0.38488300  0.72908100  1
  C  1414  1  0.20210900  0.34937100  0.70467000  1
  C  1417  1  0.12550700  0.34265200  0.68539600  1
  C  1421  1  0.36619100  0.37881000  0.72936800  1
  C  1425  1  0.24389300  0.65874400  0.45276900  1
  C  1427  1  0.28574900  0.62277700  0.42886400  1
  C  1428  1  0.24420300  0.61803700  0.41243400  1
  C  1430  1  0.20197100  0.65354100  0.43684600  1
  C  1433  1  0.12542500  0.66028100  0.45618200  1
  C  1437  1  0.36608900  0.62414000  0.41213600  1
  C  1441  1  0.24385100  0.61942200  0.72807000  1
  C  1443  1  0.28580400  0.64334800  0.69210900  1
  C  1444  1  0.24426600  0.65977300  0.68738300  1
  C  1446  1  0.20196900  0.63538100  0.72283000  1
  C  1449  1  0.12541300  0.61604000  0.72952600  1
  C  1453  1  0.36616900  0.66003200  0.69352500  1
  C  1457  1  0.24410200  0.38347400  0.41346100  1
  C  1459  1  0.28599800  0.35956300  0.44943000  1
  C  1460  1  0.24445800  0.34313900  0.45416200  1
  C  1462  1  0.20219100  0.36753700  0.41868400  1
  C  1465  1  0.12562100  0.38686000  0.41199400  1
  C  1469  1  0.36632100  0.34281800  0.44805700  1
  C  1473  1  0.91069500  0.13255800  0.36083500  1
  C  1475  1  0.98561100  0.15132200  0.34452800  1
  C  1476  1  0.01152500  0.13189000  0.36037000  1
  C  1478  1  0.93662600  0.11403900  0.37770800  1
  C  1481  1  0.90941300  0.10012500  0.42093000  1
  C  1485  1  0.01608100  0.19529500  0.33612200  1
  C  1489  1  0.91078200  0.87036800  0.78066700  1
  C  1491  1  0.98568400  0.85161400  0.79701300  1
  C  1492  1  0.01162900  0.87102800  0.78115800  1
  C  1494  1  0.93673500  0.88885900  0.76377500  1
  C  1497  1  0.90956900  0.90272800  0.72052900  1
  C  1501  1  0.01608000  0.80763400  0.80547200  1
  C  1505  1  0.91056400  0.71137500  0.20179100  1
  C  1507  1  0.98541800  0.72773100  0.22057000  1
  C  1508  1  0.01139800  0.71186600  0.20117900  1
  C  1510  1  0.93652800  0.69448000  0.18331100  1
  C  1513  1  0.90938700  0.65122800  0.16944200  1
  C  1517  1  0.01582800  0.73619000  0.26454800  1
  C  1521  1  0.91074900  0.29154600  0.93968300  1
  C  1523  1  0.98569800  0.27520900  0.92095000  1
  C  1524  1  0.01158800  0.29105100  0.94039000  1
  C  1526  1  0.93669500  0.30840900  0.95820500  1
  C  1529  1  0.90946700  0.35163900  0.97209100  1
  C  1533  1  0.01617000  0.26677200  0.87698400  1
  C  1537  1  0.01064200  0.87032900  0.36083200  1
  C  1539  1  0.93572200  0.85156700  0.34452400  1
  C  1540  1  0.90980900  0.87099700  0.36036800  1
  C  1542  1  0.98470700  0.88884600  0.37770800  1
  C  1545  1  0.01192200  0.90275900  0.42093200  1
  C  1549  1  0.90525600  0.80759500  0.33611600  1
  C  1553  1  0.01054700  0.13254400  0.78068200  1
  C  1555  1  0.93566800  0.15132500  0.79702500  1
  C  1556  1  0.90971400  0.13191200  0.78118100  1
  C  1558  1  0.98457200  0.11404500  0.76380400  1
  C  1561  1  0.01173600  0.10015000  0.72056600  1
  C  1565  1  0.90527000  0.19530600  0.80547000  1
  C  1569  1  0.01076900  0.29151100  0.20179500  1
  C  1571  1  0.93590800  0.27515900  0.22057400  1
  C  1572  1  0.90993600  0.29102400  0.20118100  1
  C  1574  1  0.98480900  0.30840500  0.18331400  1
  C  1577  1  0.01195100  0.35165600  0.16944200  1
  C  1581  1  0.90549900  0.26670200  0.26455300  1
  C  1585  1  0.01059700  0.71134600  0.93968500  1
  C  1587  1  0.93564600  0.72767900  0.92095000  1
  C  1588  1  0.90975800  0.71183500  0.94039000  1
  C  1590  1  0.98464900  0.69447800  0.95820500  1
  C  1593  1  0.01188200  0.65125000  0.97209100  1
  C  1597  1  0.90517200  0.73611800  0.87698600  1
  C  1601  1  0.41137300  0.63420200  0.85790400  1
  C  1603  1  0.48586500  0.65255900  0.84053100  1
  C  1604  1  0.51219300  0.63398000  0.85715200  1
  C  1606  1  0.43773000  0.61656000  0.87548400  1
  C  1609  1  0.41222700  0.60417000  0.91953000  1
  C  1613  1  0.51365600  0.69664000  0.83005200  1
  C  1617  1  0.41147200  0.36871500  0.28359800  1
  C  1619  1  0.48593800  0.35033100  0.30097700  1
  C  1620  1  0.51229100  0.36891000  0.28436900  1
  C  1622  1  0.43785400  0.38635900  0.26603000  1
  C  1625  1  0.41235700  0.39876700  0.22199000  1
  C  1629  1  0.51367400  0.30623500  0.31144800  1
  C  1633  1  0.41127500  0.21427900  0.70345800  1
  C  1635  1  0.48571600  0.23165600  0.72185200  1
  C  1636  1  0.51209100  0.21505100  0.70327500  1
  C  1638  1  0.43765000  0.19671300  0.68581100  1
  C  1641  1  0.41213600  0.15267900  0.67339700  1
  C  1645  1  0.51346000  0.24211200  0.76595100  1
  C  1649  1  0.41141300  0.78862500  0.43802800  1
  C  1651  1  0.48593800  0.77125700  0.41968100  1
  C  1652  1  0.51223600  0.78784500  0.43829900  1
  C  1654  1  0.43777400  0.80616700  0.45570900  1
  C  1657  1  0.41219800  0.85019000  0.46812600  1
  C  1661  1  0.51369200  0.76080200  0.37558600  1
  C  1665  1  0.50997400  0.36869000  0.85790200  1
  C  1667  1  0.43548300  0.35033300  0.84053100  1
  C  1668  1  0.40915500  0.36891200  0.85715200  1
  C  1670  1  0.48361400  0.38633400  0.87548400  1
  C  1673  1  0.50912100  0.39872400  0.91952800  1
  C  1677  1  0.40769200  0.30625000  0.83005200  1
  C  1681  1  0.50986900  0.63416500  0.28359400  1
  C  1683  1  0.43539600  0.65254300  0.30096700  1
  C  1684  1  0.40903500  0.63396600  0.28435400  1
  C  1686  1  0.48349400  0.61652100  0.26602400  1
  C  1689  1  0.50900100  0.60411000  0.22198600  1
  C  1693  1  0.40765500  0.69663800  0.31143600  1
  C  1697  1  0.51006500  0.78860900  0.70346000  1
  C  1699  1  0.43562100  0.77123200  0.72185400  1
  C  1700  1  0.40924900  0.78783800  0.70327700  1
  C  1702  1  0.48369000  0.80617500  0.68581600  1
  C  1705  1  0.50920800  0.85021100  0.67340300  1
  C  1709  1  0.40787300  0.76077100  0.76594900  1
  C  1713  1  0.50992700  0.21426600  0.43803000  1
  C  1715  1  0.43540300  0.23163100  0.41968300  1
  C  1716  1  0.40910100  0.21504300  0.43830100  1
  C  1718  1  0.48356300  0.19672300  0.45571300  1
  C  1721  1  0.50914600  0.15270200  0.46813200  1
  C  1725  1  0.40764800  0.24208400  0.37558600  1
  N  17  1  0.04697900  0.09984000  0.31513700  1
  N  18  1  0.15027900  0.14408700  0.28107900  1
  N  39  1  0.04707500  0.90305300  0.82641300  1
  N  40  1  0.15034800  0.85877900  0.86048700  1
  N  61  1  0.04685900  0.75711000  0.16914000  1
  N  62  1  0.15018300  0.79114000  0.21341600  1
  N  83  1  0.04704800  0.24578600  0.97240700  1
  N  84  1  0.15008600  0.21176600  0.92814600  1
  N  105  1  0.87436400  0.90305500  0.31513900  1
  N  106  1  0.77119600  0.85881200  0.28105200  1
  N  127  1  0.87427700  0.09986400  0.82642500  1
  N  128  1  0.77101000  0.14410900  0.86048300  1
  N  149  1  0.87447600  0.24578200  0.16914000  1
  N  150  1  0.77116600  0.21174900  0.21341400  1
  N  171  1  0.87429800  0.75709700  0.97241200  1
  N  172  1  0.77128600  0.79112200  0.92815000  1
  N  193  1  0.87617200  0.90148900  0.82666900  1
  N  194  1  0.77564000  0.85655200  0.86288000  1
  N  215  1  0.87609200  0.10145700  0.31481600  1
  N  216  1  0.77540700  0.14637200  0.27861700  1
  N  237  1  0.87618300  0.24551900  0.97079400  1
  N  238  1  0.77551300  0.20931600  0.92586700  1
  N  259  1  0.87593600  0.75737000  0.17065400  1
  N  260  1  0.77556300  0.79357100  0.21562700  1
  N  281  1  0.04515900  0.10141800  0.82668000  1
  N  282  1  0.14573100  0.14634300  0.86288000  1
  N  303  1  0.04523800  0.90142800  0.31481200  1
  N  304  1  0.14594500  0.85651500  0.27861700  1
  N  325  1  0.04516100  0.75737300  0.97079200  1
  N  326  1  0.14584800  0.79357300  0.92586700  1
  N  347  1  0.04539200  0.24550900  0.17066300  1
  N  348  1  0.14583100  0.20931400  0.21562900  1
  N  369  1  0.54971800  0.60130900  0.81280200  1
  N  370  1  0.65469500  0.64474100  0.78008200  1
  N  391  1  0.54981600  0.40155600  0.32874100  1
  N  392  1  0.65488000  0.35812200  0.36141800  1
  N  413  1  0.54959500  0.25942600  0.67062900  1
  N  414  1  0.65471600  0.29209700  0.71407700  1
  N  435  1  0.54975400  0.74346800  0.47094300  1
  N  436  1  0.65463300  0.71080800  0.42749500  1
  N  457  1  0.37162200  0.40158000  0.81280000  1
  N  458  1  0.26659900  0.35814900  0.78009000  1
  N  479  1  0.37152100  0.60132400  0.32873100  1
  N  480  1  0.26646500  0.64476500  0.36141400  1
  N  501  1  0.37174600  0.74346400  0.67062700  1
  N  502  1  0.26662700  0.71079300  0.71407500  1
  N  523  1  0.37158600  0.25942400  0.47094100  1
  N  524  1  0.26670200  0.29208200  0.42749300  1
  N  545  1  0.37525000  0.40088400  0.32855200  1
  N  546  1  0.27286100  0.35691800  0.36340300  1
  N  567  1  0.37515200  0.60205500  0.81293300  1
  N  568  1  0.27265200  0.64600000  0.77811300  1
  N  589  1  0.37526100  0.74363900  0.47018300  1
  N  590  1  0.27275400  0.70879800  0.42622900  1
  N  611  1  0.37508600  0.25924100  0.67128000  1
  N  612  1  0.27277000  0.29408800  0.71525400  1
  N  633  1  0.54608700  0.60200000  0.32855200  1
  N  634  1  0.64847100  0.64596800  0.36340700  1
  N  655  1  0.54619600  0.40083900  0.81293300  1
  N  656  1  0.64869600  0.35689100  0.77811500  1
  N  677  1  0.54608000  0.25925100  0.47018500  1
  N  678  1  0.64858700  0.29409400  0.42623100  1
  N  699  1  0.54625400  0.74364900  0.67127800  1
  N  700  1  0.64855100  0.70880000  0.71525400  1
  N  706  1  0.12460300  0.98566700  0.27428600  1
  N  709  1  0.20802800  0.01472500  0.27574100  1
  N  722  1  0.12459100  0.01719000  0.86732100  1
  N  725  1  0.20804600  0.98816700  0.86573900  1
  N  738  1  0.12463100  0.79820500  0.05501000  1
  N  741  1  0.20803800  0.79625900  0.08405800  1
  N  754  1  0.12487100  0.20368500  0.08650300  1
  N  757  1  0.20813200  0.20757200  0.05748700  1
  N  770  1  0.79673200  0.01722300  0.27420400  1
  N  773  1  0.71331200  0.98816500  0.27583100  1
  N  786  1  0.79675700  0.98570200  0.86744200  1
  N  789  1  0.71331200  0.01472400  0.86561500  1
  N  802  1  0.79671300  0.20465600  0.05501000  1
  N  805  1  0.71330800  0.20666000  0.08405600  1
  N  818  1  0.79647000  0.79927700  0.08650500  1
  N  821  1  0.71322800  0.79524200  0.05749100  1
  N  834  1  0.62773900  0.48621400  0.77684300  1
  N  837  1  0.71105700  0.51514900  0.77370200  1
  N  850  1  0.62769200  0.51664300  0.36474700  1
  N  853  1  0.71106100  0.48774300  0.36778400  1
  N  866  1  0.62770600  0.29540100  0.55554800  1
  N  869  1  0.71102100  0.29857100  0.58448300  1
  N  882  1  0.62774600  0.70656200  0.58595400  1
  N  885  1  0.71130700  0.70521500  0.55707000  1
  N  898  1  0.29360500  0.51667800  0.77685000  1
  N  901  1  0.21028600  0.48774300  0.77370000  1
  N  914  1  0.29364700  0.48624500  0.36474500  1
  N  917  1  0.21027600  0.51514500  0.36778200  1
  N  930  1  0.29363700  0.70748100  0.55554600  1
  N  933  1  0.21032000  0.70432900  0.58448100  1
  N  946  1  0.29359000  0.29629400  0.58595400  1
  N  949  1  0.21003300  0.29770800  0.55706800  1
  N  962  1  0.21581500  0.16756800  0.37362300  1
  N  965  1  0.20639000  0.17484800  0.42806400  1
  N  978  1  0.21593800  0.83529500  0.76796500  1
  N  981  1  0.20652300  0.82800900  0.71352200  1
  N  994  1  0.21572300  0.69865000  0.23687900  1
  N  997  1  0.20631100  0.64420700  0.24416700  1
  N  1010  1  0.21586700  0.30426700  0.90468200  1
  N  1013  1  0.20646300  0.35871200  0.89740000  1
  N  1026  1  0.70552000  0.83531800  0.37361500  1
  N  1029  1  0.71494600  0.82804200  0.42805800  1
  N  1042  1  0.70539600  0.16758700  0.76796300  1
  N  1045  1  0.71482200  0.17488500  0.71352200  1
  N  1058  1  0.70560700  0.30423800  0.23687900  1
  N  1061  1  0.71501500  0.35867900  0.24416700  1
  N  1074  1  0.70548000  0.69862300  0.90468200  1
  N  1077  1  0.71488400  0.64417800  0.89739600  1
  N  1090  1  0.70529800  0.83286400  0.76987400  1
  N  1093  1  0.71411100  0.82565600  0.71541000  1
  N  1106  1  0.70520000  0.17007100  0.37161000  1
  N  1109  1  0.71398300  0.17725800  0.42607500  1
  N  1122  1  0.70522200  0.30227800  0.90220000  1
  N  1125  1  0.71400200  0.35674300  0.89499800  1
  N  1138  1  0.70507300  0.70058300  0.23929700  1
  N  1141  1  0.71389300  0.64612000  0.24650100  1
  N  1154  1  0.21604400  0.17002300  0.76987200  1
  N  1157  1  0.20722200  0.17723900  0.71541200  1
  N  1170  1  0.21613600  0.83281900  0.37160600  1
  N  1173  1  0.20735400  0.82563200  0.42607300  1
  N  1186  1  0.21612300  0.70061400  0.90219800  1
  N  1189  1  0.20734600  0.64614800  0.89499800  1
  N  1202  1  0.21626100  0.30230100  0.23929700  1
  N  1205  1  0.20744400  0.35676600  0.24649700  1
  N  1218  1  0.13295800  0.14317400  0.19408300  1
  N  1221  1  0.21192200  0.13414600  0.22553900  1
  N  1234  1  0.13307100  0.85966100  0.94747900  1
  N  1237  1  0.21199500  0.86873400  0.91599400  1
  N  1250  1  0.13309600  0.87814300  0.21255900  1
  N  1253  1  0.21197900  0.84663100  0.20344600  1
  N  1266  1  0.13282000  0.12471900  0.92896600  1
  N  1269  1  0.21170200  0.15623200  0.93807200  1
  N  1282  1  0.78851100  0.85972200  0.19405000  1
  N  1285  1  0.70959000  0.86877300  0.22555300  1
  N  1298  1  0.78831500  0.14323300  0.94747700  1
  N  1301  1  0.70938700  0.13414900  0.91599600  1
  N  1314  1  0.78826800  0.12474600  0.21255700  1
  N  1317  1  0.70938300  0.15625600  0.20344500  1
  N  1330  1  0.78857300  0.87817200  0.92897200  1
  N  1333  1  0.70968800  0.84665800  0.93807400  1
  N  1346  1  0.63721900  0.64315000  0.69358300  1
  N  1349  1  0.71653200  0.63415700  0.72475500  1
  N  1362  1  0.63737100  0.35968800  0.44791500  1
  N  1365  1  0.71671000  0.36870000  0.41677100  1
  N  1378  1  0.63740100  0.37859000  0.71253600  1
  N  1381  1  0.71670300  0.34742300  0.70348900  1
  N  1394  1  0.63714600  0.62427700  0.42900500  1
  N  1397  1  0.71647400  0.65543000  0.43803800  1
  N  1410  1  0.28407500  0.35973300  0.69359300  1
  N  1413  1  0.20475900  0.36871900  0.72474700  1
  N  1426  1  0.28397100  0.64320200  0.44791300  1
  N  1429  1  0.20463500  0.63419200  0.41676900  1
  N  1442  1  0.28394600  0.62430000  0.71253600  1
  N  1445  1  0.20464300  0.65546700  0.70348600  1
  N  1458  1  0.28418500  0.37861000  0.42900100  1
  N  1461  1  0.20485900  0.34745800  0.43803400  1
  N  1474  1  0.93639400  0.15006000  0.34466800  1
  N  1477  1  0.98589100  0.11385700  0.37599200  1
  N  1490  1  0.93646700  0.85288000  0.79685900  1
  N  1493  1  0.98599600  0.88903800  0.76550700  1
  N  1506  1  0.93620200  0.72757600  0.21928800  1
  N  1509  1  0.98578900  0.69621500  0.18315700  1
  N  1522  1  0.93647800  0.27536300  0.92220300  1
  N  1525  1  0.98595900  0.30668700  0.95840800  1
  N  1538  1  0.98493900  0.85282900  0.34466600  1
  N  1541  1  0.93544300  0.88902900  0.37599000  1
  N  1554  1  0.98488100  0.15004600  0.79686700  1
  N  1557  1  0.93531200  0.11387900  0.76554000  1
  N  1570  1  0.98512800  0.27530900  0.21929200  1
  N  1573  1  0.93554400  0.30667300  0.18315900  1
  N  1586  1  0.98486300  0.72752700  0.92220300  1
  N  1589  1  0.93538800  0.69620000  0.95840800  1
  N  1602  1  0.43665200  0.65112300  0.84091500  1
  N  1605  1  0.48697200  0.61656000  0.87365100  1
  N  1618  1  0.43672400  0.35178100  0.30058500  1
  N  1621  1  0.48709600  0.38634200  0.26787300  1
  N  1634  1  0.43650300  0.23126500  0.72040100  1
  N  1637  1  0.48689300  0.19856100  0.68583800  1
  N  1650  1  0.43672100  0.77164900  0.42110300  1
  N  1653  1  0.48701600  0.80432800  0.45572700  1
  N  1666  1  0.48469600  0.35176900  0.84091500  1
  N  1669  1  0.43437200  0.38633000  0.87364900  1
  N  1682  1  0.48460900  0.65109600  0.30057900  1
  N  1685  1  0.43425200  0.61653500  0.26786500  1
  N  1698  1  0.48483700  0.77162000  0.72040100  1
  N  1701  1  0.43445100  0.80432800  0.68584000  1
  N  1714  1  0.48461600  0.23123900  0.42110500  1
  N  1717  1  0.43432400  0.19856100  0.45573200  1
  O  711  1  0.25497000  0.97414600  0.27746700  1
  O  712  1  0.07746700  0.02630100  0.27294600  1
  O  727  1  0.25492900  0.02876200  0.86392600  1
  O  728  1  0.07751300  0.97654000  0.86873600  1
  O  743  1  0.25493700  0.79427800  0.04348100  1
  O  744  1  0.07753000  0.79977300  0.09564200  1
  O  759  1  0.25483600  0.21045700  0.09805900  1
  O  760  1  0.07794000  0.20128200  0.04586900  1
  O  775  1  0.66638200  0.02874300  0.27763900  1
  O  776  1  0.84385700  0.97659100  0.27278800  1
  O  791  1  0.66644800  0.97413100  0.86369400  1
  O  792  1  0.84382100  0.02635100  0.86896300  1
  O  807  1  0.66641900  0.20867100  0.04347800  1
  O  808  1  0.84381000  0.20306200  0.09564400  1
  O  823  1  0.66653800  0.79229300  0.09806100  1
  O  824  1  0.84338900  0.80173900  0.04587100  1
  O  839  1  0.75792500  0.47443400  0.77327200  1
  O  840  1  0.58069000  0.52694800  0.77737600  1
  O  855  1  0.75787400  0.52847600  0.36816200  1
  O  856  1  0.58069300  0.47589100  0.36426600  1
  O  871  1  0.75788500  0.29901100  0.54376600  1
  O  872  1  0.58065700  0.29485200  0.59627900  1
  O  887  1  0.75808400  0.70569300  0.59779800  1
  O  888  1  0.58079100  0.70625400  0.54520400  1
  O  903  1  0.16342200  0.52846000  0.77326400  1
  O  904  1  0.34065200  0.47594400  0.77739000  1
  O  919  1  0.16346100  0.47440900  0.36814900  1
  O  920  1  0.34064300  0.52699500  0.36426800  1
  O  935  1  0.16345400  0.70389500  0.54376400  1
  O  936  1  0.34068600  0.70802300  0.59627700  1
  O  951  1  0.16325400  0.29726000  0.59779400  1
  O  952  1  0.34055000  0.29657600  0.54520400  1
  O  967  1  0.13825100  0.14640600  0.43049500  1
  O  968  1  0.28428700  0.19606100  0.37131400  1
  O  983  1  0.13837500  0.85644300  0.71108700  1
  O  984  1  0.28442200  0.80681000  0.77027900  1
  O  999  1  0.13814100  0.64177400  0.21575000  1
  O  1000  1  0.28423000  0.70096100  0.26534600  1
  O  1015  1  0.13833000  0.36115100  0.92584700  1
  O  1016  1  0.28432800  0.30194900  0.87618100  1
  O  1031  1  0.78307900  0.85648600  0.43048700  1
  O  1032  1  0.63705200  0.80682200  0.37131000  1
  O  1047  1  0.78298100  0.14645900  0.71108700  1
  O  1048  1  0.63690700  0.19606700  0.77027600  1
  O  1063  1  0.78318500  0.36111600  0.21575000  1
  O  1064  1  0.63710300  0.30192500  0.26534600  1
  O  1079  1  0.78301400  0.64173700  0.92584400  1
  O  1080  1  0.63702300  0.70094300  0.87617900  1
  O  1095  1  0.78279300  0.85357200  0.71278000  1
  O  1096  1  0.63542900  0.80539000  0.77210500  1
  O  1111  1  0.78267300  0.14934800  0.42870500  1
  O  1112  1  0.63533100  0.19754300  0.36937400  1
  O  1127  1  0.78270200  0.35938000  0.92289800  1
  O  1128  1  0.63533800  0.30003800  0.87473800  1
  O  1143  1  0.78258200  0.64349600  0.21859200  1
  O  1144  1  0.63521100  0.70281000  0.26677400  1
  O  1159  1  0.13852900  0.14933200  0.71278400  1
  O  1160  1  0.28592200  0.19748900  0.77210300  1
  O  1175  1  0.13866200  0.85354200  0.42870100  1
  O  1176  1  0.28600700  0.80534900  0.36937200  1
  O  1191  1  0.13864500  0.64351000  0.92289800  1
  O  1192  1  0.28600800  0.70285400  0.87473800  1
  O  1207  1  0.13875100  0.35938800  0.21859200  1
  O  1208  1  0.28612900  0.30007500  0.26677200  1
  O  1223  1  0.25462400  0.17026800  0.20474700  1
  O  1224  1  0.08872400  0.10833200  0.21680400  1
  O  1239  1  0.25475400  0.83259900  0.93673900  1
  O  1240  1  0.08878700  0.89450500  0.92479200  1
  O  1255  1  0.25480400  0.86739100  0.23953400  1
  O  1256  1  0.08869600  0.85545900  0.17774400  1
  O  1271  1  0.25453100  0.13549200  0.90196800  1
  O  1272  1  0.08846100  0.14739200  0.96379800  1
  O  1287  1  0.66685100  0.83264300  0.20480200  1
  O  1288  1  0.83279400  0.89457100  0.21674600  1
  O  1303  1  0.66666667  0.17027800  0.93674500  1
  O  1304  1  0.83260900  0.10839300  0.92478600  1
  O  1319  1  0.66656000  0.13549700  0.23953400  1
  O  1320  1  0.83266700  0.14743200  0.17774300  1
  O  1335  1  0.66686200  0.86740100  0.90197200  1
  O  1336  1  0.83293200  0.85549600  0.96380400  1
  O  1351  1  0.75897000  0.67026100  0.70375800  1
  O  1352  1  0.59317600  0.60839600  0.71658800  1
  O  1367  1  0.75915900  0.33260000  0.43778100  1
  O  1368  1  0.59334000  0.39443200  0.42490200  1
  O  1383  1  0.75919900  0.36843900  0.73955400  1
  O  1384  1  0.59326700  0.35558500  0.67781200  1
  O  1399  1  0.75895600  0.63441800  0.40196100  1
  O  1400  1  0.59307500  0.64728900  0.46374500  1
  O  1415  1  0.16232800  0.33261400  0.70374500  1
  O  1416  1  0.32809700  0.39448500  0.71660200  1
  O  1431  1  0.16218400  0.67029200  0.43777700  1
  O  1432  1  0.32800300  0.60845800  0.42490200  1
  O  1447  1  0.16214600  0.63445300  0.73955400  1
  O  1448  1  0.32808100  0.64730500  0.67781200  1
  O  1463  1  0.16237700  0.36847000  0.40195400  1
  O  1464  1  0.32825600  0.35560100  0.46374300  1
  O  1479  1  0.91374100  0.09376700  0.39220200  1
  O  1480  1  0.00811400  0.16799300  0.32584600  1
  O  1495  1  0.91386800  0.90911700  0.74925200  1
  O  1496  1  0.00815400  0.83495200  0.81571500  1
  O  1511  1  0.91368300  0.67995100  0.16304900  1
  O  1512  1  0.00787500  0.74643900  0.23723200  1
  O  1527  1  0.91379900  0.32291400  0.97846700  1
  O  1528  1  0.00820200  0.25651400  0.90429400  1
  O  1543  1  0.00759600  0.90911900  0.39220200  1
  O  1544  1  0.91321800  0.83489700  0.32584200  1
  O  1559  1  0.00742300  0.09377400  0.74929100  1
  O  1560  1  0.91320400  0.16799300  0.81572600  1
  O  1575  1  0.00765500  0.32293200  0.16305100  1
  O  1576  1  0.91345000  0.25645300  0.23723900  1
  O  1591  1  0.00754900  0.67997600  0.97846700  1
  O  1592  1  0.91313800  0.74637300  0.90429600  1
  O  1607  1  0.41529800  0.59686700  0.89097100  1
  O  1608  1  0.50815100  0.66863800  0.82125300  1
  O  1623  1  0.41544700  0.40606400  0.25054700  1
  O  1624  1  0.50819900  0.33423800  0.32025300  1
  O  1639  1  0.41525100  0.18123600  0.66610000  1
  O  1640  1  0.50796600  0.25092700  0.73795300  1
  O  1655  1  0.41532800  0.82163100  0.47541400  1
  O  1656  1  0.50823100  0.75199500  0.40358800  1
  O  1671  1  0.50604900  0.40602700  0.89097100  1
  O  1672  1  0.41319600  0.33425200  0.82125300  1
  O  1687  1  0.50590800  0.59681600  0.25054300  1
  O  1688  1  0.41313100  0.66863800  0.32024100  1
  O  1703  1  0.50609300  0.82165400  0.66610400  1
  O  1704  1  0.41337000  0.75195800  0.73795300  1
  O  1719  1  0.50600900  0.18126100  0.47542000  1
  O  1720  1  0.41310500  0.25089200  0.40358800  1
