# generated using pymatgen
data_H9C16(N2O)2
_symmetry_space_group_name_H-M   'P 1'
_cell_length_a   47.14660000
_cell_length_b   47.29440000
_cell_length_c   92.49740000
_cell_angle_alpha   90.00000000
_cell_angle_beta   90.00000000
_cell_angle_gamma   90.00000000
_symmetry_Int_Tables_number   1
_chemical_formula_structural   H9C16(N2O)2
_chemical_formula_sum   'H1152 C2048 N512 O256'
_cell_volume   206247.94230879
_cell_formula_units_Z   128
loop_
 _symmetry_equiv_pos_site_id
 _symmetry_equiv_pos_as_xyz
  1  'x, y, z'
loop_
 _atom_site_type_symbol
 _atom_site_label
 _atom_site_symmetry_multiplicity
 _atom_site_fract_x
 _atom_site_fract_y
 _atom_site_fract_z
 _atom_site_occupancy
  H  7  1  0.16540400  0.08120100  0.04960500  1
  H  16  1  0.15060500  0.15564000  0.06902100  1
  H  19  1  0.09994700  0.10859300  0.08663900  1
  H  20  1  0.15365100  0.06077900  0.08665900  1
  H  21  1  0.06827900  0.07490700  0.03029600  1
  H  22  1  0.23519800  0.14785400  0.09813700  1
  H  27  1  0.20034800  0.19003400  0.09395300  1
  H  28  1  0.05199100  0.09013100  0.07178700  1
  H  29  1  0.14919400  0.04113100  0.03287400  1
  H  30  1  0.19799500  0.06734400  0.10464100  1
  H  37  1  0.29473800  0.94388800  0.54960900  1
  H  46  1  0.30954300  0.86945600  0.56902100  1
  H  49  1  0.36020200  0.91649600  0.58664500  1
  H  50  1  0.30648400  0.96431600  0.58666500  1
  H  51  1  0.39186700  0.95018900  0.53029900  1
  H  52  1  0.22493900  0.87723800  0.59813100  1
  H  57  1  0.25979000  0.83505500  0.59394600  1
  H  58  1  0.40815900  0.93494200  0.57179000  1
  H  59  1  0.31093600  0.98393900  0.53286800  1
  H  60  1  0.26214200  0.95773800  0.60464600  1
  H  67  1  0.16170700  0.94748300  0.29972000  1
  H  76  1  0.08715000  0.93269700  0.31920400  1
  H  79  1  0.13447100  0.88237600  0.33686700  1
  H  80  1  0.18233000  0.93610300  0.33678600  1
  H  81  1  0.16792200  0.85063800  0.28047000  1
  H  82  1  0.09473700  0.01729600  0.34808600  1
  H  87  1  0.05258800  0.98226300  0.34411600  1
  H  88  1  0.15288800  0.83449700  0.32203700  1
  H  89  1  0.20185500  0.93122700  0.28295800  1
  H  90  1  0.17575900  0.98055000  0.35460800  1
  H  97  1  0.29844400  0.07761600  0.79971700  1
  H  106  1  0.37299800  0.09240300  0.81920300  1
  H  109  1  0.32567300  0.14272500  0.83686300  1
  H  110  1  0.27781600  0.08899400  0.83678200  1
  H  111  1  0.29222700  0.17445800  0.78046700  1
  H  112  1  0.36540500  0.00780100  0.84807700  1
  H  117  1  0.40755800  0.04284100  0.84411800  1
  H  118  1  0.30723500  0.19059900  0.82203000  1
  H  119  1  0.25830100  0.09386500  0.78295300  1
  H  120  1  0.28438300  0.04454100  0.85460300  1
  H  127  1  0.29492500  0.08737100  0.44679800  1
  H  136  1  0.30981200  0.15737300  0.42565600  1
  H  139  1  0.35939600  0.10488600  0.40763900  1
  H  140  1  0.30667100  0.06193100  0.40873300  1
  H  141  1  0.38940000  0.08220700  0.46643200  1
  H  142  1  0.22542000  0.14881500  0.39642200  1
  H  147  1  0.26029900  0.19113900  0.40039300  1
  H  148  1  0.40780200  0.08869900  0.42285600  1
  H  149  1  0.31153900  0.07042900  0.47190300  1
  H  150  1  0.26269100  0.06811100  0.39057900  1
  H  157  1  0.16522000  0.93771600  0.94679200  1
  H  166  1  0.15032900  0.86772900  0.92565500  1
  H  169  1  0.10074100  0.92021900  0.90763100  1
  H  170  1  0.15347700  0.96317000  0.90872500  1
  H  171  1  0.07074300  0.94288200  0.96643000  1
  H  172  1  0.23472900  0.87628400  0.89642600  1
  H  177  1  0.19985100  0.83396000  0.90039800  1
  H  178  1  0.05233600  0.93639000  0.92285100  1
  H  179  1  0.14860400  0.95464800  0.97190200  1
  H  180  1  0.19745800  0.95698100  0.89057200  1
  H  187  1  0.30477100  0.94735400  0.19668500  1
  H  196  1  0.37480100  0.93242000  0.17543200  1
  H  199  1  0.32194900  0.88324000  0.15741200  1
  H  200  1  0.27900600  0.93601800  0.15862500  1
  H  201  1  0.29963800  0.85310400  0.21622900  1
  H  202  1  0.36647400  0.01681300  0.14642100  1
  H  207  1  0.40873100  0.98164100  0.15013300  1
  H  208  1  0.30579900  0.83491100  0.17261200  1
  H  209  1  0.28802900  0.93066500  0.22182500  1
  H  210  1  0.28521200  0.98007600  0.14060900  1
  H  217  1  0.15537200  0.07773700  0.69668500  1
  H  226  1  0.08534000  0.09267000  0.67543200  1
  H  229  1  0.13819000  0.14184700  0.65741200  1
  H  230  1  0.18113600  0.08906600  0.65862600  1
  H  231  1  0.16050400  0.17198700  0.71622800  1
  H  232  1  0.09366900  0.00827200  0.64643000  1
  H  237  1  0.05141000  0.04345100  0.65013100  1
  H  238  1  0.15434400  0.19017600  0.67261400  1
  H  239  1  0.17212600  0.09441800  0.72182100  1
  H  240  1  0.17493200  0.04500200  0.64061400  1
  H  247  1  0.79365800  0.94724000  0.94328900  1
  H  256  1  0.80669600  0.86869100  0.92556600  1
  H  259  1  0.86205100  0.90819500  0.90991100  1
  H  260  1  0.80563600  0.96309800  0.90725900  1
  H  261  1  0.88836900  0.94152800  0.96585600  1
  H  262  1  0.72299600  0.87700500  0.89592100  1
  H  267  1  0.75706400  0.83445700  0.90060300  1
  H  268  1  0.90328700  0.89531400  0.93601400  1
  H  269  1  0.81161700  0.98612200  0.96032400  1
  H  270  1  0.76102600  0.95683500  0.88922100  1
  H  277  1  0.66648100  0.07785900  0.44328400  1
  H  286  1  0.65344200  0.15640500  0.42556600  1
  H  289  1  0.59808100  0.11691300  0.40991200  1
  H  290  1  0.65450900  0.06200000  0.40725500  1
  H  291  1  0.57177000  0.08357500  0.46585700  1
  H  292  1  0.73714900  0.14809400  0.39592600  1
  H  297  1  0.70308300  0.19064400  0.40060900  1
  H  298  1  0.55685000  0.12979100  0.43601500  1
  H  299  1  0.64853000  0.03898100  0.46032200  1
  H  300  1  0.69912100  0.06827200  0.38921800  1
  H  307  1  0.79884400  0.07744100  0.69443100  1
  H  316  1  0.87357700  0.09245300  0.67499700  1
  H  319  1  0.82639000  0.14271000  0.65742100  1
  H  320  1  0.77841000  0.08878400  0.65741600  1
  H  321  1  0.79255700  0.17421600  0.71378400  1
  H  322  1  0.86616800  0.00789200  0.64602500  1
  H  327  1  0.90826000  0.04318100  0.64997000  1
  H  328  1  0.80791000  0.19053000  0.67228000  1
  H  329  1  0.75863100  0.09358600  0.71115300  1
  H  330  1  0.78520600  0.04445200  0.63950500  1
  H  337  1  0.66129200  0.94765400  0.19443300  1
  H  346  1  0.58656200  0.93264200  0.17499700  1
  H  349  1  0.63375300  0.88238200  0.15742500  1
  H  350  1  0.68173300  0.93631000  0.15742000  1
  H  351  1  0.66758100  0.85088100  0.21378600  1
  H  352  1  0.59397900  0.01720300  0.14603200  1
  H  357  1  0.55188100  0.98190500  0.14996800  1
  H  358  1  0.65225500  0.83456600  0.17228700  1
  H  359  1  0.70150100  0.93151500  0.21115800  1
  H  360  1  0.67493900  0.98064500  0.13950800  1
  H  367  1  0.66687300  0.94153500  0.54855300  1
  H  376  1  0.65286100  0.86701400  0.56810300  1
  H  379  1  0.59745100  0.91130900  0.58388000  1
  H  380  1  0.65414500  0.96249300  0.58515100  1
  H  381  1  0.57709600  0.93480700  0.52475400  1
  H  382  1  0.70805500  0.87889700  0.61203500  1
  H  387  1  0.70333600  0.83380300  0.59298000  1
  H  388  1  0.55579600  0.89495400  0.55800200  1
  H  389  1  0.65199600  0.95704400  0.52285400  1
  H  390  1  0.69862100  0.95715800  0.60324200  1
  H  397  1  0.79327400  0.08356100  0.04855600  1
  H  406  1  0.80728600  0.15807600  0.06810500  1
  H  409  1  0.86270200  0.11378600  0.08388100  1
  H  410  1  0.80599900  0.06259900  0.08515500  1
  H  411  1  0.88305000  0.09030000  0.02475200  1
  H  412  1  0.75208600  0.14619600  0.11203500  1
  H  417  1  0.75680700  0.19128900  0.09297800  1
  H  418  1  0.90435600  0.13014300  0.05800700  1
  H  419  1  0.80814100  0.06804400  0.02285800  1
  H  420  1  0.76152000  0.06793900  0.10324500  1
  H  427  1  0.65482500  0.07746000  0.79723400  1
  H  436  1  0.58464200  0.09203200  0.81831300  1
  H  439  1  0.63732000  0.14164000  0.83643800  1
  H  440  1  0.68056000  0.08889200  0.83519500  1
  H  441  1  0.66008100  0.17169800  0.77766800  1
  H  442  1  0.59600700  0.03599000  0.86193500  1
  H  447  1  0.55086500  0.04154600  0.84302700  1
  H  448  1  0.65356300  0.18992100  0.82126200  1
  H  449  1  0.67181100  0.09408800  0.77213000  1
  H  450  1  0.67469100  0.04462200  0.85307000  1
  H  457  1  0.80531800  0.94764300  0.29723300  1
  H  466  1  0.87550500  0.93307300  0.31831300  1
  H  469  1  0.82282900  0.88346400  0.33643800  1
  H  470  1  0.77958500  0.93621300  0.33519400  1
  H  471  1  0.80006600  0.85340400  0.27766700  1
  H  472  1  0.86413800  0.98911300  0.36193500  1
  H  477  1  0.90928100  0.98355700  0.34302800  1
  H  478  1  0.80658200  0.83518400  0.32126100  1
  H  479  1  0.78832200  0.93102200  0.27213500  1
  H  480  1  0.78545400  0.98048700  0.35306800  1
  H  487  1  0.66713600  0.58168900  0.54965100  1
  H  496  1  0.65225900  0.65630400  0.56895400  1
  H  499  1  0.60152100  0.60935800  0.58655000  1
  H  500  1  0.65515200  0.56151300  0.58669800  1
  H  501  1  0.57013400  0.57529500  0.53021800  1
  H  502  1  0.73667900  0.64847900  0.59826100  1
  H  507  1  0.70176000  0.69074200  0.59400800  1
  H  508  1  0.55366400  0.59068100  0.57168900  1
  H  509  1  0.65094200  0.54140500  0.53302100  1
  H  510  1  0.69925700  0.56827700  0.60484200  1
  H  517  1  0.79300500  0.44339900  0.04965500  1
  H  526  1  0.80789100  0.36879000  0.06895300  1
  H  529  1  0.85862800  0.41573000  0.08655600  1
  H  530  1  0.80498300  0.46358200  0.08670500  1
  H  531  1  0.89001300  0.44980000  0.03022200  1
  H  532  1  0.72345800  0.37661100  0.09825500  1
  H  537  1  0.75837900  0.33434800  0.09400100  1
  H  538  1  0.90648500  0.43439000  0.07169200  1
  H  539  1  0.80918900  0.48366200  0.03301400  1
  H  540  1  0.76088000  0.45680300  0.10484600  1
  H  547  1  0.66464800  0.44789300  0.80088600  1
  H  556  1  0.58586400  0.43486100  0.81865300  1
  H  559  1  0.62550200  0.37978500  0.83430800  1
  H  560  1  0.68061700  0.43630100  0.83690000  1
  H  561  1  0.65888500  0.35343300  0.77837000  1
  H  562  1  0.59392600  0.51855000  0.84805300  1
  H  567  1  0.55155200  0.48449900  0.84355600  1
  H  568  1  0.61253400  0.33863000  0.80823400  1
  H  569  1  0.70362900  0.42996900  0.78385200  1
  H  570  1  0.67444300  0.48117800  0.85469800  1
  H  577  1  0.79550100  0.57720600  0.30088200  1
  H  586  1  0.87428300  0.59023700  0.31865200  1
  H  589  1  0.83464500  0.64531100  0.33430900  1
  H  590  1  0.77952600  0.58879300  0.33689700  1
  H  591  1  0.80126400  0.67166800  0.27837100  1
  H  592  1  0.86621500  0.50654400  0.34804500  1
  H  597  1  0.90859300  0.54060600  0.34355800  1
  H  598  1  0.84760900  0.68646200  0.30822800  1
  H  599  1  0.75653200  0.59512200  0.28384600  1
  H  600  1  0.78570000  0.54391500  0.35469400  1
  H  607  1  0.79307900  0.58789900  0.94714700  1
  H  616  1  0.80754300  0.65793700  0.92614500  1
  H  619  1  0.85761800  0.60547200  0.90801900  1
  H  620  1  0.80515900  0.56235700  0.90915200  1
  H  621  1  0.88757600  0.58248400  0.96676600  1
  H  622  1  0.75204300  0.64646000  0.88229400  1
  H  627  1  0.75697700  0.69141600  0.90131500  1
  H  628  1  0.90593400  0.58901700  0.92322300  1
  H  629  1  0.80975700  0.57082900  0.97226500  1
  H  630  1  0.76115500  0.56815800  0.89103200  1
  H  637  1  0.66706400  0.43718900  0.44714200  1
  H  646  1  0.65259600  0.36716600  0.42614500  1
  H  649  1  0.60251800  0.41963300  0.40801300  1
  H  650  1  0.65498900  0.46274400  0.40914700  1
  H  651  1  0.57256700  0.44260400  0.46676600  1
  H  652  1  0.70810800  0.37863300  0.38229600  1
  H  657  1  0.70317000  0.33368000  0.40132000  1
  H  658  1  0.55420300  0.43607100  0.42321900  1
  H  659  1  0.65038600  0.45424600  0.47226500  1
  H  660  1  0.69899400  0.45693200  0.39102600  1
  H  667  1  0.80128100  0.44846300  0.69564900  1
  H  676  1  0.87604600  0.43457000  0.67610500  1
  H  679  1  0.83162300  0.37942400  0.66023800  1
  H  680  1  0.78027200  0.43616800  0.65902700  1
  H  681  1  0.80801400  0.35887600  0.71934500  1
  H  682  1  0.86424900  0.49007900  0.63233700  1
  H  687  1  0.90937000  0.48529900  0.65144200  1
  H  688  1  0.84799700  0.33775500  0.68605800  1
  H  689  1  0.78571300  0.43354800  0.72131500  1
  H  690  1  0.78556000  0.48095400  0.64120300  1
  H  697  1  0.65886200  0.57662700  0.19565000  1
  H  706  1  0.58409700  0.59051800  0.17610600  1
  H  709  1  0.62851800  0.64566200  0.16023800  1
  H  710  1  0.67987100  0.58891800  0.15902700  1
  H  711  1  0.65213200  0.66621500  0.21934200  1
  H  712  1  0.59589200  0.53500700  0.13233800  1
  H  717  1  0.55077100  0.53978900  0.15144300  1
  H  718  1  0.61214600  0.68732900  0.18606800  1
  H  719  1  0.67443700  0.59154400  0.22131300  1
  H  720  1  0.67458100  0.54412800  0.14120400  1
  H  727  1  0.29551200  0.44685700  0.44345600  1
  H  736  1  0.30868800  0.36827600  0.42566800  1
  H  739  1  0.36395400  0.40783100  0.41010600  1
  H  740  1  0.30737900  0.46277600  0.40748700  1
  H  741  1  0.39031900  0.44110300  0.46600500  1
  H  742  1  0.22501700  0.37644600  0.39603100  1
  H  747  1  0.25915300  0.33406300  0.40064200  1
  H  748  1  0.40513600  0.39492900  0.43617400  1
  H  749  1  0.31332300  0.48567700  0.46049600  1
  H  750  1  0.26268100  0.45659800  0.38951500  1
  H  757  1  0.16462600  0.57824400  0.94345100  1
  H  766  1  0.15145100  0.65682000  0.92566900  1
  H  769  1  0.09617600  0.61727600  0.91010600  1
  H  770  1  0.15276500  0.56232300  0.90748200  1
  H  771  1  0.06982000  0.58400000  0.96600600  1
  H  772  1  0.23513000  0.64865400  0.89603600  1
  H  777  1  0.20099300  0.69103800  0.90064700  1
  H  778  1  0.05500100  0.63017600  0.93617500  1
  H  779  1  0.14682300  0.53942400  0.96049600  1
  H  780  1  0.19746700  0.56850900  0.88951200  1
  H  787  1  0.29446700  0.57698000  0.19308400  1
  H  796  1  0.37303800  0.58985900  0.17524400  1
  H  799  1  0.33333333  0.64493700  0.15949900  1
  H  800  1  0.27828700  0.58844800  0.15701100  1
  H  801  1  0.30068500  0.67145800  0.21553800  1
  H  802  1  0.36487700  0.50602400  0.14596000  1
  H  807  1  0.40738700  0.54012600  0.15043800  1
  H  808  1  0.34670400  0.68613200  0.18552200  1
  H  809  1  0.25572600  0.59507300  0.21024900  1
  H  810  1  0.28438100  0.54351500  0.13926900  1
  H  817  1  0.16567200  0.44811500  0.69308700  1
  H  826  1  0.08710200  0.43523600  0.67524300  1
  H  829  1  0.12677600  0.38015900  0.65949800  1
  H  830  1  0.18185500  0.43664800  0.65701300  1
  H  831  1  0.15945300  0.35363600  0.71553700  1
  H  832  1  0.09527100  0.51907200  0.64596800  1
  H  837  1  0.05275700  0.48496300  0.65043500  1
  H  838  1  0.11344100  0.33896800  0.68552900  1
  H  839  1  0.20440200  0.43003000  0.71025500  1
  H  840  1  0.17576400  0.48158400  0.63927100  1
  H  847  1  0.16515900  0.44109700  0.04850800  1
  H  856  1  0.15114800  0.36639900  0.06799200  1
  H  859  1  0.09577400  0.41060300  0.08378900  1
  H  860  1  0.15254200  0.46185200  0.08509400  1
  H  861  1  0.07530300  0.43444500  0.02473900  1
  H  862  1  0.20639100  0.37815300  0.11190800  1
  H  867  1  0.20181600  0.33314100  0.09275600  1
  H  868  1  0.05410600  0.39442700  0.05793900  1
  H  869  1  0.15033400  0.45691300  0.02288200  1
  H  870  1  0.19708800  0.45645200  0.10314800  1
  H  877  1  0.29498800  0.58400000  0.54851100  1
  H  886  1  0.30900000  0.65869100  0.56799400  1
  H  889  1  0.36437800  0.61449400  0.58378900  1
  H  890  1  0.30760200  0.56324000  0.58509800  1
  H  891  1  0.38484200  0.59066200  0.52473600  1
  H  892  1  0.25374900  0.64694200  0.61190700  1
  H  897  1  0.25832800  0.69195100  0.59275300  1
  H  898  1  0.40604600  0.63066900  0.55794200  1
  H  899  1  0.30980200  0.56817300  0.52288600  1
  H  900  1  0.26305400  0.56864500  0.60315100  1
  H  907  1  0.15985600  0.57650600  0.29884900  1
  H  916  1  0.08533500  0.59032400  0.31844600  1
  H  919  1  0.12981500  0.64552300  0.33434100  1
  H  920  1  0.18108900  0.58881000  0.33552500  1
  H  921  1  0.15258000  0.66599300  0.27512400  1
  H  922  1  0.09716000  0.53465300  0.36216800  1
  H  927  1  0.05196600  0.53962900  0.34308100  1
  H  928  1  0.11300800  0.68712400  0.30854300  1
  H  929  1  0.17493100  0.59145300  0.27310100  1
  H  930  1  0.17578300  0.54406300  0.35338700  1
  H  937  1  0.30028700  0.44859700  0.79884900  1
  H  946  1  0.37481000  0.43478100  0.81844500  1
  H  949  1  0.33032900  0.37958400  0.83434300  1
  H  950  1  0.27905500  0.43629500  0.83552700  1
  H  951  1  0.30756200  0.35910800  0.77512500  1
  H  952  1  0.36298500  0.49044900  0.86216800  1
  H  957  1  0.40817800  0.48547400  0.84308100  1
  H  958  1  0.34713400  0.33798500  0.80853200  1
  H  959  1  0.28520600  0.43365000  0.77310200  1
  H  960  1  0.28436200  0.48104500  0.85338800  1
  H  971  1  0.13410000  0.31242200  0.06022800  1
  H  972  1  0.10291800  0.28657700  0.04464000  1
  H  973  1  0.10301100  0.23536200  0.04472700  1
  H  974  1  0.13427900  0.20983500  0.06040700  1
  H  987  1  0.32604700  0.71267000  0.56022700  1
  H  988  1  0.35723000  0.73851300  0.54463900  1
  H  989  1  0.35713900  0.78972800  0.54472600  1
  H  990  1  0.32586900  0.81525600  0.56040400  1
  H  1003  1  0.92989700  0.91668600  0.31011700  1
  H  1004  1  0.95583500  0.88579000  0.29443400  1
  H  1005  1  0.00721100  0.88586600  0.29453900  1
  H  1006  1  0.03280600  0.91683200  0.31033000  1
  H  1019  1  0.53024800  0.10841800  0.81011500  1
  H  1020  1  0.50431000  0.13931000  0.79443200  1
  H  1021  1  0.45293400  0.13923200  0.79453700  1
  H  1022  1  0.42733900  0.10826600  0.81032800  1
  H  1035  1  0.32558200  0.31420200  0.43400500  1
  H  1036  1  0.35661100  0.28865800  0.44980100  1
  H  1037  1  0.35669200  0.23744300  0.44988000  1
  H  1038  1  0.32575400  0.21161500  0.43415700  1
  H  1051  1  0.13455500  0.71089900  0.93400600  1
  H  1052  1  0.10352600  0.73644500  0.94980100  1
  H  1053  1  0.10344500  0.78766000  0.94987800  1
  H  1054  1  0.13438600  0.81348800  0.93415700  1
  H  1067  1  0.53208300  0.91712200  0.18408700  1
  H  1068  1  0.50643300  0.88657500  0.20006900  1
  H  1069  1  0.45505700  0.88655400  0.20015800  1
  H  1070  1  0.42917200  0.91707700  0.18426500  1
  H  1083  1  0.92806000  0.10797300  0.68408700  1
  H  1084  1  0.95371000  0.13852000  0.70006800  1
  H  1085  1  0.00508600  0.13853900  0.70015700  1
  H  1086  1  0.03097100  0.10801100  0.68426500  1
  H  1099  1  0.82396600  0.71223100  0.93422700  1
  H  1100  1  0.85488900  0.73819400  0.94989700  1
  H  1101  1  0.85466800  0.78940900  0.94977300  1
  H  1102  1  0.82352500  0.81481600  0.93397800  1
  H  1115  1  0.63617500  0.31287000  0.43422800  1
  H  1116  1  0.60525000  0.28690700  0.44989700  1
  H  1117  1  0.60546900  0.23569200  0.44977400  1
  H  1118  1  0.63661400  0.21028500  0.43398000  1
  H  1131  1  0.63637900  0.71065100  0.56012300  1
  H  1132  1  0.60550100  0.73627800  0.54428500  1
  H  1133  1  0.60548600  0.78749300  0.54424300  1
  H  1134  1  0.63635300  0.81323800  0.56003300  1
  H  1147  1  0.82376900  0.31443700  0.06012000  1
  H  1148  1  0.85464900  0.28881000  0.04428400  1
  H  1149  1  0.85466400  0.23759300  0.04424300  1
  H  1150  1  0.82379400  0.21185000  0.06003400  1
  H  1163  1  0.42852100  0.41809400  0.81039700  1
  H  1164  1  0.45423000  0.38697600  0.79473300  1
  H  1165  1  0.50560800  0.38695900  0.79469300  1
  H  1166  1  0.53142900  0.41806000  0.81031900  1
  H  1179  1  0.03162300  0.60700700  0.31039700  1
  H  1180  1  0.00591300  0.63812200  0.29473100  1
  H  1181  1  0.95453500  0.63813700  0.29469100  1
  H  1182  1  0.92871400  0.60703600  0.31031700  1
  H  1195  1  0.03324700  0.41839400  0.68368900  1
  H  1196  1  0.00782600  0.38711800  0.69939300  1
  H  1197  1  0.95645000  0.38684500  0.69954400  1
  H  1198  1  0.93034000  0.41784900  0.68399100  1
  H  1211  1  0.42689600  0.60670200  0.18368700  1
  H  1212  1  0.45231900  0.63797900  0.19939200  1
  H  1213  1  0.50369500  0.63824900  0.19954400  1
  H  1214  1  0.52980300  0.60724100  0.18399200  1
  H  1227  1  0.92606700  0.12479300  0.03022800  1
  H  1228  1  0.94995800  0.14860400  0.01092400  1
  H  1229  1  0.00124300  0.15178500  0.01064700  1
  H  1230  1  0.02875300  0.13099000  0.02968500  1
  H  1243  1  0.53408100  0.90031200  0.53022700  1
  H  1244  1  0.51019100  0.87651200  0.51091900  1
  H  1245  1  0.45890700  0.87333000  0.51064100  1
  H  1246  1  0.43139300  0.89411500  0.52968000  1
  H  1259  1  0.11804100  0.70873300  0.28068200  1
  H  1260  1  0.09405400  0.73244400  0.26137600  1
  H  1261  1  0.09085100  0.78356700  0.26103300  1
  H  1262  1  0.11179700  0.81109400  0.28000600  1
  H  1275  1  0.34210100  0.31637400  0.78068400  1
  H  1276  1  0.36609600  0.29266900  0.76138000  1
  H  1277  1  0.36930800  0.24154700  0.76103600  1
  H  1278  1  0.34836000  0.21401300  0.78000600  1
  H  1291  1  0.53529400  0.12450600  0.46304700  1
  H  1292  1  0.51218500  0.14834200  0.48257500  1
  H  1293  1  0.46094500  0.15199800  0.48324100  1
  H  1294  1  0.43270600  0.13157600  0.46438300  1
  H  1307  1  0.92484700  0.90060400  0.96304500  1
  H  1308  1  0.94795400  0.87677400  0.98257500  1
  H  1309  1  0.99919200  0.87311700  0.98324200  1
  H  1310  1  0.02743500  0.89353100  0.96438200  1
  H  1323  1  0.34180400  0.70761300  0.21262000  1
  H  1324  1  0.36591400  0.73055000  0.23211600  1
  H  1325  1  0.36965800  0.78161900  0.23281900  1
  H  1326  1  0.34905400  0.80986600  0.21403100  1
  H  1339  1  0.11834300  0.31748200  0.71261900  1
  H  1340  1  0.09423200  0.29454700  0.73211500  1
  H  1341  1  0.09048200  0.24347700  0.73281800  1
  H  1342  1  0.11108400  0.21522900  0.71403000  1
  H  1355  1  0.84262300  0.31605900  0.71385700  1
  H  1356  1  0.86641600  0.29222300  0.73318400  1
  H  1357  1  0.86954300  0.24109600  0.73347200  1
  H  1358  1  0.84871000  0.21368500  0.71442300  1
  H  1371  1  0.61752500  0.70902700  0.21385500  1
  H  1372  1  0.59372500  0.73285700  0.23318200  1
  H  1373  1  0.59059200  0.78398500  0.23347000  1
  H  1374  1  0.61142500  0.81140100  0.21442300  1
  H  1387  1  0.61773700  0.31717700  0.78117300  1
  H  1388  1  0.59379700  0.29420600  0.76163400  1
  H  1389  1  0.59010400  0.24313000  0.76093100  1
  H  1390  1  0.61059700  0.21491600  0.77976200  1
  H  1403  1  0.84240400  0.70792100  0.28117300  1
  H  1404  1  0.86634600  0.73089000  0.26163400  1
  H  1405  1  0.87004300  0.78196400  0.26093200  1
  H  1406  1  0.84955200  0.81018300  0.27976300  1
  H  1419  1  0.42774200  0.62557100  0.53022100  1
  H  1420  1  0.45160800  0.64961600  0.51098400  1
  H  1421  1  0.50289100  0.65283000  0.51070800  1
  H  1422  1  0.53042800  0.63182800  0.52967500  1
  H  1435  1  0.03240500  0.39953400  0.03022000  1
  H  1436  1  0.00854300  0.37549900  0.01097900  1
  H  1437  1  0.95726100  0.37228300  0.01070000  1
  H  1438  1  0.92971900  0.39327700  0.02967000  1
  H  1451  1  0.03351600  0.62536800  0.96317600  1
  H  1452  1  0.01047800  0.64961600  0.98259100  1
  H  1453  1  0.95924400  0.65332900  0.98327300  1
  H  1454  1  0.93093600  0.63254500  0.96454500  1
  H  1467  1  0.42662200  0.39974300  0.46317400  1
  H  1468  1  0.44965900  0.37549900  0.48259200  1
  H  1469  1  0.50089300  0.37178600  0.48327500  1
  H  1470  1  0.52920200  0.39256300  0.46454600  1
  H  1483  1  0.08703200  0.08317900  0.00342500  1
  H  1484  1  0.05908400  0.09546600  0.98273100  1
  H  1485  1  0.05889000  0.06539400  0.96152500  1
  H  1486  1  0.08664800  0.02297500  0.96096800  1
  H  1499  1  0.37312500  0.94190900  0.50343000  1
  H  1500  1  0.40107900  0.92962400  0.48273700  1
  H  1501  1  0.40127200  0.95969300  0.46153000  1
  H  1502  1  0.37350500  0.00210900  0.46097100  1
  H  1515  1  0.15915900  0.86956400  0.25353600  1
  H  1516  1  0.14650600  0.84193100  0.23281300  1
  H  1517  1  0.17645800  0.84178500  0.21152800  1
  H  1518  1  0.21912700  0.86927500  0.21092200  1
  H  1531  1  0.30097800  0.15554700  0.75353500  1
  H  1532  1  0.31362400  0.18318700  0.73281200  1
  H  1533  1  0.28366800  0.18333100  0.71152800  1
  H  1534  1  0.24100800  0.15583200  0.71092200  1
  H  1547  1  0.86871100  0.94027000  0.99118000  1
  H  1548  1  0.89584400  0.92723100  0.01202300  1
  H  1549  1  0.89699600  0.95766100  0.03308700  1
  H  1550  1  0.87096000  0.00117400  0.03334600  1
  H  1563  1  0.59143400  0.08483000  0.49117800  1
  H  1564  1  0.56430400  0.09787100  0.51202100  1
  H  1565  1  0.56315400  0.06744100  0.53308500  1
  H  1566  1  0.58919000  0.02392900  0.53334500  1
  H  1579  1  0.80087600  0.15534800  0.74067600  1
  H  1580  1  0.81327600  0.18304900  0.76141400  1
  H  1581  1  0.78311000  0.18319500  0.78262100  1
  H  1582  1  0.74048400  0.15563600  0.78313400  1
  H  1595  1  0.65927500  0.86973300  0.24067700  1
  H  1596  1  0.64688400  0.84202400  0.26141400  1
  H  1597  1  0.67705200  0.84188200  0.28262000  1
  H  1598  1  0.71967000  0.86945000  0.28313200  1
  H  1611  1  0.58956500  0.58363000  0.50325300  1
  H  1612  1  0.56213600  0.59603500  0.48239600  1
  H  1613  1  0.56199400  0.56577800  0.46126100  1
  H  1614  1  0.58928300  0.52304700  0.46093500  1
  H  1627  1  0.87059300  0.44145600  0.00325700  1
  H  1628  1  0.89802600  0.42905300  0.98240200  1
  H  1629  1  0.89816600  0.45931000  0.96126400  1
  H  1630  1  0.87087100  0.50203400  0.96093700  1
  H  1643  1  0.65771600  0.37286000  0.75304100  1
  H  1644  1  0.64471400  0.34570300  0.73222400  1
  H  1645  1  0.67522300  0.34460300  0.71115200  1
  H  1646  1  0.71877500  0.37071600  0.71086000  1
  H  1659  1  0.80242000  0.65225900  0.25304200  1
  H  1660  1  0.81541400  0.67942800  0.23222600  1
  H  1661  1  0.78490300  0.68052300  0.21115500  1
  H  1662  1  0.74136000  0.65439700  0.21086200  1
  H  1675  1  0.37112500  0.44060000  0.49131100  1
  H  1676  1  0.39865200  0.42801900  0.51209100  1
  H  1677  1  0.39978100  0.45865900  0.53307700  1
  H  1678  1  0.37332500  0.50191600  0.53331900  1
  H  1691  1  0.08902100  0.58450100  0.99130900  1
  H  1692  1  0.06149600  0.59708400  0.01209000  1
  H  1693  1  0.06037000  0.56644600  0.03307600  1
  H  1694  1  0.08682400  0.52318700  0.03331900  1
  H  1707  1  0.30242700  0.65202500  0.24086300  1
  H  1708  1  0.31582100  0.67916300  0.26162300  1
  H  1709  1  0.28567900  0.68029000  0.28283200  1
  H  1710  1  0.24210400  0.65422400  0.28331800  1
  H  1723  1  0.15772500  0.37304900  0.74086200  1
  H  1724  1  0.14434100  0.34589700  0.76162000  1
  H  1725  1  0.17448300  0.34477500  0.78282900  1
  H  1726  1  0.21805000  0.37085600  0.78331600  1
  H  1739  1  0.33738800  0.05950500  0.13753400  1
  H  1740  1  0.35335100  0.10533200  0.13015200  1
  H  1741  1  0.32356300  0.13510900  0.11520500  1
  H  1742  1  0.27772700  0.11914000  0.10763700  1
  H  1755  1  0.12274100  0.96558400  0.63752700  1
  H  1756  1  0.10677500  0.91976100  0.63014200  1
  H  1757  1  0.13656400  0.88998500  0.61519600  1
  H  1758  1  0.18240100  0.90594900  0.60763000  1
  H  1771  1  0.18267800  0.11958100  0.38751700  1
  H  1772  1  0.13662900  0.13520900  0.38010400  1
  H  1773  1  0.10696900  0.10531300  0.36515200  1
  H  1774  1  0.12327700  0.05970700  0.35761200  1
  H  1787  1  0.27747900  0.90552000  0.88752000  1
  H  1788  1  0.32353100  0.88989400  0.88011100  1
  H  1789  1  0.35319200  0.91979000  0.86516000  1
  H  1790  1  0.33688100  0.96539400  0.85761600  1
  H  1803  1  0.62091000  0.96654000  0.85719400  1
  H  1804  1  0.60426800  0.92118100  0.86496700  1
  H  1805  1  0.63389500  0.89114200  0.87986000  1
  H  1806  1  0.68025700  0.90635700  0.88699800  1
  H  1819  1  0.83924200  0.05856200  0.35719900  1
  H  1820  1  0.85588500  0.10391800  0.36497600  1
  H  1821  1  0.82625900  0.13395700  0.37986800  1
  H  1822  1  0.77989500  0.11874300  0.38700500  1
  H  1835  1  0.77778400  0.90475900  0.60729700  1
  H  1836  1  0.82352300  0.88884400  0.61507800  1
  H  1837  1  0.85323200  0.91884500  0.62994700  1
  H  1838  1  0.83730700  0.96485500  0.63705600  1
  H  1851  1  0.68235200  0.12033200  0.10729400  1
  H  1852  1  0.63661200  0.13624600  0.11507200  1
  H  1853  1  0.60690000  0.10624500  0.12994100  1
  H  1854  1  0.62282700  0.06023600  0.13705100  1
  H  1867  1  0.83911200  0.55923600  0.63714100  1
  H  1868  1  0.85565200  0.60464900  0.62939400  1
  H  1869  1  0.82599800  0.63461200  0.61447600  1
  H  1870  1  0.77971000  0.61926400  0.60728200  1
  H  1883  1  0.62102000  0.46585500  0.13713700  1
  H  1884  1  0.60447600  0.42044300  0.12938700  1
  H  1885  1  0.63412800  0.39048000  0.11446800  1
  H  1886  1  0.68041800  0.40582600  0.10727700  1
  H  1899  1  0.68223100  0.62088800  0.88689300  1
  H  1900  1  0.63660600  0.63697600  0.87902900  1
  H  1901  1  0.60692200  0.60711700  0.86407200  1
  H  1902  1  0.62276200  0.56107900  0.85695900  1
  H  1915  1  0.77792700  0.40421100  0.38689800  1
  H  1916  1  0.82355400  0.38812700  0.37903700  1
  H  1917  1  0.85323600  0.41798600  0.36407800  1
  H  1918  1  0.83739400  0.46401900  0.35696300  1
  H  1931  1  0.12278700  0.46537000  0.35714200  1
  H  1932  1  0.10652200  0.41975200  0.36472200  1
  H  1933  1  0.13629600  0.38982000  0.37959500  1
  H  1934  1  0.18242700  0.40540600  0.38690600  1
  H  1947  1  0.33736500  0.55973300  0.85714700  1
  H  1948  1  0.35363300  0.60534900  0.86473000  1
  H  1949  1  0.32385800  0.63527900  0.87960200  1
  H  1950  1  0.27772500  0.61969500  0.88691200  1
  H  1963  1  0.27614700  0.40386400  0.10704000  1
  H  1964  1  0.32188500  0.38778600  0.11473300  1
  H  1965  1  0.35174500  0.41762000  0.12961200  1
  H  1966  1  0.33596900  0.46362400  0.13681700  1
  H  1979  1  0.18399000  0.62122600  0.60703600  1
  H  1980  1  0.13824900  0.63730400  0.61472600  1
  H  1981  1  0.10838800  0.60747000  0.62960500  1
  H  1982  1  0.12416600  0.56146800  0.63681200  1
  H  1991  1  0.16540400  0.08120100  0.20096100  1
  H  2000  1  0.15060500  0.15564000  0.22037700  1
  H  2003  1  0.09994700  0.10859300  0.23799500  1
  H  2004  1  0.15365100  0.06077900  0.23801500  1
  H  2005  1  0.06827900  0.07490700  0.18165200  1
  H  2006  1  0.23519800  0.14785400  0.24949300  1
  H  2011  1  0.20034800  0.19003400  0.24530900  1
  H  2012  1  0.05199100  0.09013100  0.22314300  1
  H  2013  1  0.14919400  0.04113100  0.18423000  1
  H  2014  1  0.19799500  0.06734400  0.25599700  1
  H  2021  1  0.29473800  0.94388800  0.70096500  1
  H  2030  1  0.30954300  0.86945600  0.72037700  1
  H  2033  1  0.36020200  0.91649600  0.73800100  1
  H  2034  1  0.30648400  0.96431600  0.73802100  1
  H  2035  1  0.39186700  0.95018900  0.68165500  1
  H  2036  1  0.22493900  0.87723800  0.74948700  1
  H  2041  1  0.25979000  0.83505500  0.74530200  1
  H  2042  1  0.40815900  0.93494200  0.72314600  1
  H  2043  1  0.31093600  0.98393900  0.68422400  1
  H  2044  1  0.26214200  0.95773800  0.75600200  1
  H  2051  1  0.16170700  0.94748300  0.45107600  1
  H  2060  1  0.08715000  0.93269700  0.47056000  1
  H  2063  1  0.13447100  0.88237600  0.48822300  1
  H  2064  1  0.18233000  0.93610300  0.48814200  1
  H  2065  1  0.16792200  0.85063800  0.43182600  1
  H  2066  1  0.09473700  0.01729600  0.49944200  1
  H  2071  1  0.05258800  0.98226300  0.49547200  1
  H  2072  1  0.15288800  0.83449700  0.47339300  1
  H  2073  1  0.20185500  0.93122700  0.43431400  1
  H  2074  1  0.17575900  0.98055000  0.50596400  1
  H  2081  1  0.29844400  0.07761600  0.95107300  1
  H  2090  1  0.37299800  0.09240300  0.97055900  1
  H  2093  1  0.32567300  0.14272500  0.98821900  1
  H  2094  1  0.27781600  0.08899400  0.98813800  1
  H  2095  1  0.29222700  0.17445800  0.93182300  1
  H  2096  1  0.36540500  0.00780100  0.99943300  1
  H  2101  1  0.40755800  0.04284100  0.99547400  1
  H  2102  1  0.30723500  0.19059900  0.97338600  1
  H  2103  1  0.25830100  0.09386500  0.93430900  1
  H  2104  1  0.28438300  0.04454100  0.00595861  1
  H  2111  1  0.29492500  0.08737100  0.59815400  1
  H  2120  1  0.30981200  0.15737300  0.57701200  1
  H  2123  1  0.35939600  0.10488600  0.55899500  1
  H  2124  1  0.30667100  0.06193100  0.56008900  1
  H  2125  1  0.38940000  0.08220700  0.61778800  1
  H  2126  1  0.22542000  0.14881500  0.54777800  1
  H  2131  1  0.26029900  0.19113900  0.55174900  1
  H  2132  1  0.40780200  0.08869900  0.57421200  1
  H  2133  1  0.31153900  0.07042900  0.62325900  1
  H  2134  1  0.26269100  0.06811100  0.54193500  1
  H  2141  1  0.16522000  0.93771600  0.09814760  1
  H  2150  1  0.15032900  0.86772900  0.07701060  1
  H  2153  1  0.10074100  0.92021900  0.05898660  1
  H  2154  1  0.15347700  0.96317000  0.06008060  1
  H  2155  1  0.07074300  0.94288200  0.11778600  1
  H  2156  1  0.23472900  0.87628400  0.04778160  1
  H  2161  1  0.19985100  0.83396000  0.05175360  1
  H  2162  1  0.05233600  0.93639000  0.07420660  1
  H  2163  1  0.14860400  0.95464800  0.12325800  1
  H  2164  1  0.19745800  0.95698100  0.04192760  1
  H  2171  1  0.30477100  0.94735400  0.34804100  1
  H  2180  1  0.37480100  0.93242000  0.32678800  1
  H  2183  1  0.32194900  0.88324000  0.30876800  1
  H  2184  1  0.27900600  0.93601800  0.30998100  1
  H  2185  1  0.29963800  0.85310400  0.36758500  1
  H  2186  1  0.36647400  0.01681300  0.29777700  1
  H  2191  1  0.40873100  0.98164100  0.30148900  1
  H  2192  1  0.30579900  0.83491100  0.32396800  1
  H  2193  1  0.28802900  0.93066500  0.37318100  1
  H  2194  1  0.28521200  0.98007600  0.29196500  1
  H  2201  1  0.15537200  0.07773700  0.84804100  1
  H  2210  1  0.08534000  0.09267000  0.82678800  1
  H  2213  1  0.13819000  0.14184700  0.80876800  1
  H  2214  1  0.18113600  0.08906600  0.80998200  1
  H  2215  1  0.16050400  0.17198700  0.86758400  1
  H  2216  1  0.09366900  0.00827200  0.79778600  1
  H  2221  1  0.05141000  0.04345100  0.80148700  1
  H  2222  1  0.15434400  0.19017600  0.82397000  1
  H  2223  1  0.17212600  0.09441800  0.87317700  1
  H  2224  1  0.17493200  0.04500200  0.79197000  1
  H  2231  1  0.79365800  0.94724000  0.09464460  1
  H  2240  1  0.80669600  0.86869100  0.07692160  1
  H  2243  1  0.86205100  0.90819500  0.06126660  1
  H  2244  1  0.80563600  0.96309800  0.05861460  1
  H  2245  1  0.88836900  0.94152800  0.11721200  1
  H  2246  1  0.72299600  0.87700500  0.04727660  1
  H  2251  1  0.75706400  0.83445700  0.05195860  1
  H  2252  1  0.90328700  0.89531400  0.08736960  1
  H  2253  1  0.81161700  0.98612200  0.11168000  1
  H  2254  1  0.76102600  0.95683500  0.04057660  1
  H  2261  1  0.66648100  0.07785900  0.59464000  1
  H  2270  1  0.65344200  0.15640500  0.57692200  1
  H  2273  1  0.59808100  0.11691300  0.56126800  1
  H  2274  1  0.65450900  0.06200000  0.55861100  1
  H  2275  1  0.57177000  0.08357500  0.61721300  1
  H  2276  1  0.73714900  0.14809400  0.54728200  1
  H  2281  1  0.70308300  0.19064400  0.55196500  1
  H  2282  1  0.55685000  0.12979100  0.58737100  1
  H  2283  1  0.64853000  0.03898100  0.61167800  1
  H  2284  1  0.69912100  0.06827200  0.54057400  1
  H  2291  1  0.79884400  0.07744100  0.84578700  1
  H  2300  1  0.87357700  0.09245300  0.82635300  1
  H  2303  1  0.82639000  0.14271000  0.80877700  1
  H  2304  1  0.77841000  0.08878400  0.80877200  1
  H  2305  1  0.79255700  0.17421600  0.86514000  1
  H  2306  1  0.86616800  0.00789200  0.79738100  1
  H  2311  1  0.90826000  0.04318100  0.80132600  1
  H  2312  1  0.80791000  0.19053000  0.82363600  1
  H  2313  1  0.75863100  0.09358600  0.86250900  1
  H  2314  1  0.78520600  0.04445200  0.79086100  1
  H  2321  1  0.66129200  0.94765400  0.34578900  1
  H  2330  1  0.58656200  0.93264200  0.32635300  1
  H  2333  1  0.63375300  0.88238200  0.30878100  1
  H  2334  1  0.68173300  0.93631000  0.30877600  1
  H  2335  1  0.66758100  0.85088100  0.36514200  1
  H  2336  1  0.59397900  0.01720300  0.29738800  1
  H  2341  1  0.55188100  0.98190500  0.30132400  1
  H  2342  1  0.65225500  0.83456600  0.32364300  1
  H  2343  1  0.70150100  0.93151500  0.36251400  1
  H  2344  1  0.67493900  0.98064500  0.29086400  1
  H  2351  1  0.66687300  0.94153500  0.69990900  1
  H  2360  1  0.65286100  0.86701400  0.71945900  1
  H  2363  1  0.59745100  0.91130900  0.73523600  1
  H  2364  1  0.65414500  0.96249300  0.73650700  1
  H  2365  1  0.57709600  0.93480700  0.67611000  1
  H  2366  1  0.70805500  0.87889700  0.76339100  1
  H  2371  1  0.70333600  0.83380300  0.74433600  1
  H  2372  1  0.55579600  0.89495400  0.70935800  1
  H  2373  1  0.65199600  0.95704400  0.67421000  1
  H  2374  1  0.69862100  0.95715800  0.75459800  1
  H  2381  1  0.79327400  0.08356100  0.19991200  1
  H  2390  1  0.80728600  0.15807600  0.21946100  1
  H  2393  1  0.86270200  0.11378600  0.23523700  1
  H  2394  1  0.80599900  0.06259900  0.23651100  1
  H  2395  1  0.88305000  0.09030000  0.17610800  1
  H  2396  1  0.75208600  0.14619600  0.26339100  1
  H  2401  1  0.75680700  0.19128900  0.24433400  1
  H  2402  1  0.90435600  0.13014300  0.20936300  1
  H  2403  1  0.80814100  0.06804400  0.17421400  1
  H  2404  1  0.76152000  0.06793900  0.25460100  1
  H  2411  1  0.65482500  0.07746000  0.94859000  1
  H  2420  1  0.58464200  0.09203200  0.96966900  1
  H  2423  1  0.63732000  0.14164000  0.98779400  1
  H  2424  1  0.68056000  0.08889200  0.98655100  1
  H  2425  1  0.66008100  0.17169800  0.92902400  1
  H  2426  1  0.59600700  0.03599000  0.01329060  1
  H  2431  1  0.55086500  0.04154600  0.99438300  1
  H  2432  1  0.65356300  0.18992100  0.97261800  1
  H  2433  1  0.67181100  0.09408800  0.92348600  1
  H  2434  1  0.67469100  0.04462200  0.00442561  1
  H  2441  1  0.80531800  0.94764300  0.44858900  1
  H  2450  1  0.87550500  0.93307300  0.46966900  1
  H  2453  1  0.82282900  0.88346400  0.48779400  1
  H  2454  1  0.77958500  0.93621300  0.48655000  1
  H  2455  1  0.80006600  0.85340400  0.42902300  1
  H  2456  1  0.86413800  0.98911300  0.51329100  1
  H  2461  1  0.90928100  0.98355700  0.49438400  1
  H  2462  1  0.80658200  0.83518400  0.47261700  1
  H  2463  1  0.78832200  0.93102200  0.42349100  1
  H  2464  1  0.78545400  0.98048700  0.50442400  1
  H  2471  1  0.66713600  0.58168900  0.70100700  1
  H  2480  1  0.65225900  0.65630400  0.72031000  1
  H  2483  1  0.60152100  0.60935800  0.73790600  1
  H  2484  1  0.65515200  0.56151300  0.73805400  1
  H  2485  1  0.57013400  0.57529500  0.68157400  1
  H  2486  1  0.73667900  0.64847900  0.74961700  1
  H  2491  1  0.70176000  0.69074200  0.74536400  1
  H  2492  1  0.55366400  0.59068100  0.72304500  1
  H  2493  1  0.65094200  0.54140500  0.68437700  1
  H  2494  1  0.69925700  0.56827700  0.75619800  1
  H  2501  1  0.79300500  0.44339900  0.20101100  1
  H  2510  1  0.80789100  0.36879000  0.22030900  1
  H  2513  1  0.85862800  0.41573000  0.23791200  1
  H  2514  1  0.80498300  0.46358200  0.23806100  1
  H  2515  1  0.89001300  0.44980000  0.18157800  1
  H  2516  1  0.72345800  0.37661100  0.24961100  1
  H  2521  1  0.75837900  0.33434800  0.24535700  1
  H  2522  1  0.90648500  0.43439000  0.22304800  1
  H  2523  1  0.80918900  0.48366200  0.18437000  1
  H  2524  1  0.76088000  0.45680300  0.25620200  1
  H  2531  1  0.66464800  0.44789300  0.95224200  1
  H  2540  1  0.58586400  0.43486100  0.97000900  1
  H  2543  1  0.62550200  0.37978500  0.98566400  1
  H  2544  1  0.68061700  0.43630100  0.98825600  1
  H  2545  1  0.65888500  0.35343300  0.92972600  1
  H  2546  1  0.59392600  0.51855000  0.99940900  1
  H  2551  1  0.55155200  0.48449900  0.99491200  1
  H  2552  1  0.61253400  0.33863000  0.95959000  1
  H  2553  1  0.70362900  0.42996900  0.93520800  1
  H  2554  1  0.67444300  0.48117800  0.00605361  1
  H  2561  1  0.79550100  0.57720600  0.45223800  1
  H  2570  1  0.87428300  0.59023700  0.47000800  1
  H  2573  1  0.83464500  0.64531100  0.48566500  1
  H  2574  1  0.77952600  0.58879300  0.48825300  1
  H  2575  1  0.80126400  0.67166800  0.42972700  1
  H  2576  1  0.86621500  0.50654400  0.49940100  1
  H  2581  1  0.90859300  0.54060600  0.49491400  1
  H  2582  1  0.84760900  0.68646200  0.45958400  1
  H  2583  1  0.75653200  0.59512200  0.43520200  1
  H  2584  1  0.78570000  0.54391500  0.50605000  1
  H  2591  1  0.79307900  0.58789900  0.09850260  1
  H  2600  1  0.80754300  0.65793700  0.07750060  1
  H  2603  1  0.85761800  0.60547200  0.05937460  1
  H  2604  1  0.80515900  0.56235700  0.06050760  1
  H  2605  1  0.88757600  0.58248400  0.11812200  1
  H  2606  1  0.75204300  0.64646000  0.03364960  1
  H  2611  1  0.75697700  0.69141600  0.05267060  1
  H  2612  1  0.90593400  0.58901700  0.07457860  1
  H  2613  1  0.80975700  0.57082900  0.12362100  1
  H  2614  1  0.76115500  0.56815800  0.04238760  1
  H  2621  1  0.66706400  0.43718900  0.59849800  1
  H  2630  1  0.65259600  0.36716600  0.57750100  1
  H  2633  1  0.60251800  0.41963300  0.55936900  1
  H  2634  1  0.65498900  0.46274400  0.56050300  1
  H  2635  1  0.57256700  0.44260400  0.61812200  1
  H  2636  1  0.70810800  0.37863300  0.53365200  1
  H  2641  1  0.70317000  0.33368000  0.55267600  1
  H  2642  1  0.55420300  0.43607100  0.57457500  1
  H  2643  1  0.65038600  0.45424600  0.62362100  1
  H  2644  1  0.69899400  0.45693200  0.54238200  1
  H  2651  1  0.80128100  0.44846300  0.84700500  1
  H  2660  1  0.87604600  0.43457000  0.82746100  1
  H  2663  1  0.83162300  0.37942400  0.81159400  1
  H  2664  1  0.78027200  0.43616800  0.81038300  1
  H  2665  1  0.80801400  0.35887600  0.87070100  1
  H  2666  1  0.86424900  0.49007900  0.78369300  1
  H  2671  1  0.90937000  0.48529900  0.80279800  1
  H  2672  1  0.84799700  0.33775500  0.83741400  1
  H  2673  1  0.78571300  0.43354800  0.87267100  1
  H  2674  1  0.78556000  0.48095400  0.79255900  1
  H  2681  1  0.65886200  0.57662700  0.34700600  1
  H  2690  1  0.58409700  0.59051800  0.32746200  1
  H  2693  1  0.62851800  0.64566200  0.31159400  1
  H  2694  1  0.67987100  0.58891800  0.31038300  1
  H  2695  1  0.65213200  0.66621500  0.37069800  1
  H  2696  1  0.59589200  0.53500700  0.28369400  1
  H  2701  1  0.55077100  0.53978900  0.30279900  1
  H  2702  1  0.61214600  0.68732900  0.33742400  1
  H  2703  1  0.67443700  0.59154400  0.37266900  1
  H  2704  1  0.67458100  0.54412800  0.29256000  1
  H  2711  1  0.29551200  0.44685700  0.59481200  1
  H  2720  1  0.30868800  0.36827600  0.57702400  1
  H  2723  1  0.36395400  0.40783100  0.56146200  1
  H  2724  1  0.30737900  0.46277600  0.55884300  1
  H  2725  1  0.39031900  0.44110300  0.61736100  1
  H  2726  1  0.22501700  0.37644600  0.54738700  1
  H  2731  1  0.25915300  0.33406300  0.55199800  1
  H  2732  1  0.40513600  0.39492900  0.58753000  1
  H  2733  1  0.31332300  0.48567700  0.61185200  1
  H  2734  1  0.26268100  0.45659800  0.54087100  1
  H  2741  1  0.16462600  0.57824400  0.09480660  1
  H  2750  1  0.15145100  0.65682000  0.07702460  1
  H  2753  1  0.09617600  0.61727600  0.06146160  1
  H  2754  1  0.15276500  0.56232300  0.05883760  1
  H  2755  1  0.06982000  0.58400000  0.11736200  1
  H  2756  1  0.23513000  0.64865400  0.04739160  1
  H  2761  1  0.20099300  0.69103800  0.05200260  1
  H  2762  1  0.05500100  0.63017600  0.08753060  1
  H  2763  1  0.14682300  0.53942400  0.11185200  1
  H  2764  1  0.19746700  0.56850900  0.04086760  1
  H  2771  1  0.29446700  0.57698000  0.34444000  1
  H  2780  1  0.37303800  0.58985900  0.32660000  1
  H  2783  1  0.33333333  0.64493700  0.31085500  1
  H  2784  1  0.27828700  0.58844800  0.30836700  1
  H  2785  1  0.30068500  0.67145800  0.36689400  1
  H  2786  1  0.36487700  0.50602400  0.29731600  1
  H  2791  1  0.40738700  0.54012600  0.30179400  1
  H  2792  1  0.34670400  0.68613200  0.33687800  1
  H  2793  1  0.25572600  0.59507300  0.36160500  1
  H  2794  1  0.28438100  0.54351500  0.29062500  1
  H  2801  1  0.16567200  0.44811500  0.84444300  1
  H  2810  1  0.08710200  0.43523600  0.82659900  1
  H  2813  1  0.12677600  0.38015900  0.81085400  1
  H  2814  1  0.18185500  0.43664800  0.80836900  1
  H  2815  1  0.15945300  0.35363600  0.86689300  1
  H  2816  1  0.09527100  0.51907200  0.79732400  1
  H  2821  1  0.05275700  0.48496300  0.80179100  1
  H  2822  1  0.11344100  0.33896800  0.83688500  1
  H  2823  1  0.20440200  0.43003000  0.86161100  1
  H  2824  1  0.17576400  0.48158400  0.79062700  1
  H  2831  1  0.16515900  0.44109700  0.19986400  1
  H  2840  1  0.15114800  0.36639900  0.21934800  1
  H  2843  1  0.09577400  0.41060300  0.23514500  1
  H  2844  1  0.15254200  0.46185200  0.23645000  1
  H  2845  1  0.07530300  0.43444500  0.17609500  1
  H  2846  1  0.20639100  0.37815300  0.26326400  1
  H  2851  1  0.20181600  0.33314100  0.24411200  1
  H  2852  1  0.05410600  0.39442700  0.20929500  1
  H  2853  1  0.15033400  0.45691300  0.17423800  1
  H  2854  1  0.19708800  0.45645200  0.25450400  1
  H  2861  1  0.29498800  0.58400000  0.69986700  1
  H  2870  1  0.30900000  0.65869100  0.71935000  1
  H  2873  1  0.36437800  0.61449400  0.73514500  1
  H  2874  1  0.30760200  0.56324000  0.73645400  1
  H  2875  1  0.38484200  0.59066200  0.67609200  1
  H  2876  1  0.25374900  0.64694200  0.76326300  1
  H  2881  1  0.25832800  0.69195100  0.74410900  1
  H  2882  1  0.40604600  0.63066900  0.70929800  1
  H  2883  1  0.30980200  0.56817300  0.67424200  1
  H  2884  1  0.26305400  0.56864500  0.75450700  1
  H  2891  1  0.15985600  0.57650600  0.45020500  1
  H  2900  1  0.08533500  0.59032400  0.46980200  1
  H  2903  1  0.12981500  0.64552300  0.48569700  1
  H  2904  1  0.18108900  0.58881000  0.48688100  1
  H  2905  1  0.15258000  0.66599300  0.42648000  1
  H  2906  1  0.09716000  0.53465300  0.51352400  1
  H  2911  1  0.05196600  0.53962900  0.49443700  1
  H  2912  1  0.11300800  0.68712400  0.45989900  1
  H  2913  1  0.17493100  0.59145300  0.42445700  1
  H  2914  1  0.17578300  0.54406300  0.50474300  1
  H  2921  1  0.30028700  0.44859700  0.95020500  1
  H  2930  1  0.37481000  0.43478100  0.96980100  1
  H  2933  1  0.33032900  0.37958400  0.98569900  1
  H  2934  1  0.27905500  0.43629500  0.98688300  1
  H  2935  1  0.30756200  0.35910800  0.92648100  1
  H  2936  1  0.36298500  0.49044900  0.01352360  1
  H  2941  1  0.40817800  0.48547400  0.99443700  1
  H  2942  1  0.34713400  0.33798500  0.95988800  1
  H  2943  1  0.28520600  0.43365000  0.92445800  1
  H  2944  1  0.28436200  0.48104500  0.00474361  1
  H  2955  1  0.13410000  0.31242200  0.21158400  1
  H  2956  1  0.10291800  0.28657700  0.19599600  1
  H  2957  1  0.10301100  0.23536200  0.19608300  1
  H  2958  1  0.13427900  0.20983500  0.21176300  1
  H  2971  1  0.32604700  0.71267000  0.71158300  1
  H  2972  1  0.35723000  0.73851300  0.69599500  1
  H  2973  1  0.35713900  0.78972800  0.69608200  1
  H  2974  1  0.32586900  0.81525600  0.71176000  1
  H  2987  1  0.92989700  0.91668600  0.46147300  1
  H  2988  1  0.95583500  0.88579000  0.44579000  1
  H  2989  1  0.00721100  0.88586600  0.44589500  1
  H  2990  1  0.03280600  0.91683200  0.46168600  1
  H  3003  1  0.53024800  0.10841800  0.96147100  1
  H  3004  1  0.50431000  0.13931000  0.94578800  1
  H  3005  1  0.45293400  0.13923200  0.94589300  1
  H  3006  1  0.42733900  0.10826600  0.96168400  1
  H  3019  1  0.32558200  0.31420200  0.58536100  1
  H  3020  1  0.35661100  0.28865800  0.60115700  1
  H  3021  1  0.35669200  0.23744300  0.60123600  1
  H  3022  1  0.32575400  0.21161500  0.58551300  1
  H  3035  1  0.13455500  0.71089900  0.08536160  1
  H  3036  1  0.10352600  0.73644500  0.10115700  1
  H  3037  1  0.10344500  0.78766000  0.10123400  1
  H  3038  1  0.13438600  0.81348800  0.08551260  1
  H  3051  1  0.53208300  0.91712200  0.33544300  1
  H  3052  1  0.50643300  0.88657500  0.35142500  1
  H  3053  1  0.45505700  0.88655400  0.35151400  1
  H  3054  1  0.42917200  0.91707700  0.33562100  1
  H  3067  1  0.92806000  0.10797300  0.83544300  1
  H  3068  1  0.95371000  0.13852000  0.85142400  1
  H  3069  1  0.00508600  0.13853900  0.85151300  1
  H  3070  1  0.03097100  0.10801100  0.83562100  1
  H  3083  1  0.82396600  0.71223100  0.08558260  1
  H  3084  1  0.85488900  0.73819400  0.10125300  1
  H  3085  1  0.85466800  0.78940900  0.10112900  1
  H  3086  1  0.82352500  0.81481600  0.08533360  1
  H  3099  1  0.63617500  0.31287000  0.58558400  1
  H  3100  1  0.60525000  0.28690700  0.60125300  1
  H  3101  1  0.60546900  0.23569200  0.60113000  1
  H  3102  1  0.63661400  0.21028500  0.58533600  1
  H  3115  1  0.63637900  0.71065100  0.71147900  1
  H  3116  1  0.60550100  0.73627800  0.69564100  1
  H  3117  1  0.60548600  0.78749300  0.69559900  1
  H  3118  1  0.63635300  0.81323800  0.71138900  1
  H  3131  1  0.82376900  0.31443700  0.21147600  1
  H  3132  1  0.85464900  0.28881000  0.19564000  1
  H  3133  1  0.85466400  0.23759300  0.19559900  1
  H  3134  1  0.82379400  0.21185000  0.21139000  1
  H  3147  1  0.42852100  0.41809400  0.96175300  1
  H  3148  1  0.45423000  0.38697600  0.94608900  1
  H  3149  1  0.50560800  0.38695900  0.94604900  1
  H  3150  1  0.53142900  0.41806000  0.96167500  1
  H  3163  1  0.03162300  0.60700700  0.46175300  1
  H  3164  1  0.00591300  0.63812200  0.44608700  1
  H  3165  1  0.95453500  0.63813700  0.44604700  1
  H  3166  1  0.92871400  0.60703600  0.46167300  1
  H  3179  1  0.03324700  0.41839400  0.83504500  1
  H  3180  1  0.00782600  0.38711800  0.85074900  1
  H  3181  1  0.95645000  0.38684500  0.85090000  1
  H  3182  1  0.93034000  0.41784900  0.83534700  1
  H  3195  1  0.42689600  0.60670200  0.33504300  1
  H  3196  1  0.45231900  0.63797900  0.35074800  1
  H  3197  1  0.50369500  0.63824900  0.35090000  1
  H  3198  1  0.52980300  0.60724100  0.33534800  1
  H  3211  1  0.92606700  0.12479300  0.18158400  1
  H  3212  1  0.94995800  0.14860400  0.16228000  1
  H  3213  1  0.00124300  0.15178500  0.16200300  1
  H  3214  1  0.02875300  0.13099000  0.18104100  1
  H  3227  1  0.53408100  0.90031200  0.68158300  1
  H  3228  1  0.51019100  0.87651200  0.66227500  1
  H  3229  1  0.45890700  0.87333000  0.66199700  1
  H  3230  1  0.43139300  0.89411500  0.68103600  1
  H  3243  1  0.11804100  0.70873300  0.43203800  1
  H  3244  1  0.09405400  0.73244400  0.41273200  1
  H  3245  1  0.09085100  0.78356700  0.41238900  1
  H  3246  1  0.11179700  0.81109400  0.43136200  1
  H  3259  1  0.34210100  0.31637400  0.93204000  1
  H  3260  1  0.36609600  0.29266900  0.91273600  1
  H  3261  1  0.36930800  0.24154700  0.91239200  1
  H  3262  1  0.34836000  0.21401300  0.93136200  1
  H  3275  1  0.53529400  0.12450600  0.61440300  1
  H  3276  1  0.51218500  0.14834200  0.63393100  1
  H  3277  1  0.46094500  0.15199800  0.63459700  1
  H  3278  1  0.43270600  0.13157600  0.61573900  1
  H  3291  1  0.92484700  0.90060400  0.11440100  1
  H  3292  1  0.94795400  0.87677400  0.13393100  1
  H  3293  1  0.99919200  0.87311700  0.13459800  1
  H  3294  1  0.02743500  0.89353100  0.11573800  1
  H  3307  1  0.34180400  0.70761300  0.36397600  1
  H  3308  1  0.36591400  0.73055000  0.38347200  1
  H  3309  1  0.36965800  0.78161900  0.38417500  1
  H  3310  1  0.34905400  0.80986600  0.36538700  1
  H  3323  1  0.11834300  0.31748200  0.86397500  1
  H  3324  1  0.09423200  0.29454700  0.88347100  1
  H  3325  1  0.09048200  0.24347700  0.88417400  1
  H  3326  1  0.11108400  0.21522900  0.86538600  1
  H  3339  1  0.84262300  0.31605900  0.86521300  1
  H  3340  1  0.86641600  0.29222300  0.88454000  1
  H  3341  1  0.86954300  0.24109600  0.88482800  1
  H  3342  1  0.84871000  0.21368500  0.86577900  1
  H  3355  1  0.61752500  0.70902700  0.36521100  1
  H  3356  1  0.59372500  0.73285700  0.38453800  1
  H  3357  1  0.59059200  0.78398500  0.38482600  1
  H  3358  1  0.61142500  0.81140100  0.36577900  1
  H  3371  1  0.61773700  0.31717700  0.93252900  1
  H  3372  1  0.59379700  0.29420600  0.91299000  1
  H  3373  1  0.59010400  0.24313000  0.91228700  1
  H  3374  1  0.61059700  0.21491600  0.93111800  1
  H  3387  1  0.84240400  0.70792100  0.43252900  1
  H  3388  1  0.86634600  0.73089000  0.41299000  1
  H  3389  1  0.87004300  0.78196400  0.41228800  1
  H  3390  1  0.84955200  0.81018300  0.43111900  1
  H  3403  1  0.42774200  0.62557100  0.68157700  1
  H  3404  1  0.45160800  0.64961600  0.66234000  1
  H  3405  1  0.50289100  0.65283000  0.66206400  1
  H  3406  1  0.53042800  0.63182800  0.68103100  1
  H  3419  1  0.03240500  0.39953400  0.18157600  1
  H  3420  1  0.00854300  0.37549900  0.16233500  1
  H  3421  1  0.95726100  0.37228300  0.16205600  1
  H  3422  1  0.92971900  0.39327700  0.18102600  1
  H  3435  1  0.03351600  0.62536800  0.11453200  1
  H  3436  1  0.01047800  0.64961600  0.13394700  1
  H  3437  1  0.95924400  0.65332900  0.13462900  1
  H  3438  1  0.93093600  0.63254500  0.11590100  1
  H  3451  1  0.42662200  0.39974300  0.61453000  1
  H  3452  1  0.44965900  0.37549900  0.63394800  1
  H  3453  1  0.50089300  0.37178600  0.63463100  1
  H  3454  1  0.52920200  0.39256300  0.61590200  1
  H  3467  1  0.08703200  0.08317900  0.15478100  1
  H  3468  1  0.05908400  0.09546600  0.13408700  1
  H  3469  1  0.05889000  0.06539400  0.11288100  1
  H  3470  1  0.08664800  0.02297500  0.11232400  1
  H  3483  1  0.37312500  0.94190900  0.65478600  1
  H  3484  1  0.40107900  0.92962400  0.63409300  1
  H  3485  1  0.40127200  0.95969300  0.61288600  1
  H  3486  1  0.37350500  0.00210900  0.61232700  1
  H  3499  1  0.15915900  0.86956400  0.40489200  1
  H  3500  1  0.14650600  0.84193100  0.38416900  1
  H  3501  1  0.17645800  0.84178500  0.36288400  1
  H  3502  1  0.21912700  0.86927500  0.36227800  1
  H  3515  1  0.30097800  0.15554700  0.90489100  1
  H  3516  1  0.31362400  0.18318700  0.88416800  1
  H  3517  1  0.28366800  0.18333100  0.86288400  1
  H  3518  1  0.24100800  0.15583200  0.86227800  1
  H  3531  1  0.86871100  0.94027000  0.14253600  1
  H  3532  1  0.89584400  0.92723100  0.16337900  1
  H  3533  1  0.89699600  0.95766100  0.18444300  1
  H  3534  1  0.87096000  0.00117400  0.18470200  1
  H  3547  1  0.59143400  0.08483000  0.64253400  1
  H  3548  1  0.56430400  0.09787100  0.66337700  1
  H  3549  1  0.56315400  0.06744100  0.68444100  1
  H  3550  1  0.58919000  0.02392900  0.68470100  1
  H  3563  1  0.80087600  0.15534800  0.89203200  1
  H  3564  1  0.81327600  0.18304900  0.91277000  1
  H  3565  1  0.78311000  0.18319500  0.93397700  1
  H  3566  1  0.74048400  0.15563600  0.93449000  1
  H  3579  1  0.65927500  0.86973300  0.39203300  1
  H  3580  1  0.64688400  0.84202400  0.41277000  1
  H  3581  1  0.67705200  0.84188200  0.43397600  1
  H  3582  1  0.71967000  0.86945000  0.43448800  1
  H  3595  1  0.58956500  0.58363000  0.65460900  1
  H  3596  1  0.56213600  0.59603500  0.63375200  1
  H  3597  1  0.56199400  0.56577800  0.61261700  1
  H  3598  1  0.58928300  0.52304700  0.61229100  1
  H  3611  1  0.87059300  0.44145600  0.15461300  1
  H  3612  1  0.89802600  0.42905300  0.13375800  1
  H  3613  1  0.89816600  0.45931000  0.11262000  1
  H  3614  1  0.87087100  0.50203400  0.11229300  1
  H  3627  1  0.65771600  0.37286000  0.90439700  1
  H  3628  1  0.64471400  0.34570300  0.88358000  1
  H  3629  1  0.67522300  0.34460300  0.86250800  1
  H  3630  1  0.71877500  0.37071600  0.86221600  1
  H  3643  1  0.80242000  0.65225900  0.40439800  1
  H  3644  1  0.81541400  0.67942800  0.38358200  1
  H  3645  1  0.78490300  0.68052300  0.36251100  1
  H  3646  1  0.74136000  0.65439700  0.36221800  1
  H  3659  1  0.37112500  0.44060000  0.64266700  1
  H  3660  1  0.39865200  0.42801900  0.66344700  1
  H  3661  1  0.39978100  0.45865900  0.68443300  1
  H  3662  1  0.37332500  0.50191600  0.68467500  1
  H  3675  1  0.08902100  0.58450100  0.14266500  1
  H  3676  1  0.06149600  0.59708400  0.16344600  1
  H  3677  1  0.06037000  0.56644600  0.18443200  1
  H  3678  1  0.08682400  0.52318700  0.18467500  1
  H  3691  1  0.30242700  0.65202500  0.39221900  1
  H  3692  1  0.31582100  0.67916300  0.41297900  1
  H  3693  1  0.28567900  0.68029000  0.43418800  1
  H  3694  1  0.24210400  0.65422400  0.43467400  1
  H  3707  1  0.15772500  0.37304900  0.89221800  1
  H  3708  1  0.14434100  0.34589700  0.91297600  1
  H  3709  1  0.17448300  0.34477500  0.93418500  1
  H  3710  1  0.21805000  0.37085600  0.93467200  1
  H  3723  1  0.33738800  0.05950500  0.28889000  1
  H  3724  1  0.35335100  0.10533200  0.28150800  1
  H  3725  1  0.32356300  0.13510900  0.26656100  1
  H  3726  1  0.27772700  0.11914000  0.25899300  1
  H  3739  1  0.12274100  0.96558400  0.78888300  1
  H  3740  1  0.10677500  0.91976100  0.78149800  1
  H  3741  1  0.13656400  0.88998500  0.76655200  1
  H  3742  1  0.18240100  0.90594900  0.75898600  1
  H  3755  1  0.18267800  0.11958100  0.53887300  1
  H  3756  1  0.13662900  0.13520900  0.53146000  1
  H  3757  1  0.10696900  0.10531300  0.51650800  1
  H  3758  1  0.12327700  0.05970700  0.50896800  1
  H  3771  1  0.27747900  0.90552000  0.03887560  1
  H  3772  1  0.32353100  0.88989400  0.03146660  1
  H  3773  1  0.35319200  0.91979000  0.01651560  1
  H  3774  1  0.33688100  0.96539400  0.00897161  1
  H  3787  1  0.62091000  0.96654000  0.00854961  1
  H  3788  1  0.60426800  0.92118100  0.01632260  1
  H  3789  1  0.63389500  0.89114200  0.03121560  1
  H  3790  1  0.68025700  0.90635700  0.03835360  1
  H  3803  1  0.83924200  0.05856200  0.50855500  1
  H  3804  1  0.85588500  0.10391800  0.51633200  1
  H  3805  1  0.82625900  0.13395700  0.53122400  1
  H  3806  1  0.77989500  0.11874300  0.53836100  1
  H  3819  1  0.77778400  0.90475900  0.75865300  1
  H  3820  1  0.82352300  0.88884400  0.76643400  1
  H  3821  1  0.85323200  0.91884500  0.78130300  1
  H  3822  1  0.83730700  0.96485500  0.78841200  1
  H  3835  1  0.68235200  0.12033200  0.25865000  1
  H  3836  1  0.63661200  0.13624600  0.26642800  1
  H  3837  1  0.60690000  0.10624500  0.28129700  1
  H  3838  1  0.62282700  0.06023600  0.28840700  1
  H  3851  1  0.83911200  0.55923600  0.78849700  1
  H  3852  1  0.85565200  0.60464900  0.78075000  1
  H  3853  1  0.82599800  0.63461200  0.76583200  1
  H  3854  1  0.77971000  0.61926400  0.75863800  1
  H  3867  1  0.62102000  0.46585500  0.28849300  1
  H  3868  1  0.60447600  0.42044300  0.28074300  1
  H  3869  1  0.63412800  0.39048000  0.26582400  1
  H  3870  1  0.68041800  0.40582600  0.25863300  1
  H  3883  1  0.68223100  0.62088800  0.03824860  1
  H  3884  1  0.63660600  0.63697600  0.03038460  1
  H  3885  1  0.60692200  0.60711700  0.01542760  1
  H  3886  1  0.62276200  0.56107900  0.00831461  1
  H  3899  1  0.77792700  0.40421100  0.53825400  1
  H  3900  1  0.82355400  0.38812700  0.53039300  1
  H  3901  1  0.85323600  0.41798600  0.51543400  1
  H  3902  1  0.83739400  0.46401900  0.50831900  1
  H  3915  1  0.12278700  0.46537000  0.50849800  1
  H  3916  1  0.10652200  0.41975200  0.51607800  1
  H  3917  1  0.13629600  0.38982000  0.53095100  1
  H  3918  1  0.18242700  0.40540600  0.53826200  1
  H  3931  1  0.33736500  0.55973300  0.00850261  1
  H  3932  1  0.35363300  0.60534900  0.01608560  1
  H  3933  1  0.32385800  0.63527900  0.03095760  1
  H  3934  1  0.27772500  0.61969500  0.03826760  1
  H  3947  1  0.27614700  0.40386400  0.25839600  1
  H  3948  1  0.32188500  0.38778600  0.26608900  1
  H  3949  1  0.35174500  0.41762000  0.28096800  1
  H  3950  1  0.33596900  0.46362400  0.28817300  1
  H  3963  1  0.18399000  0.62122600  0.75839200  1
  H  3964  1  0.13824900  0.63730400  0.76608200  1
  H  3965  1  0.10838800  0.60747000  0.78096100  1
  H  3966  1  0.12416600  0.56146800  0.78816800  1
  C  1  1  0.13680000  0.10198400  0.06357100  1
  C  2  1  0.14431300  0.08471800  0.05161200  1
  C  3  1  0.12380500  0.07188300  0.04247000  1
  C  4  1  0.09464400  0.07642900  0.04573400  1
  C  5  1  0.08608300  0.09326200  0.05773200  1
  C  6  1  0.10743200  0.10575800  0.06656400  1
  C  9  1  0.15836100  0.11262400  0.07328800  1
  C  10  1  0.17453400  0.09384900  0.08204100  1
  C  11  1  0.19508300  0.10375800  0.09216600  1
  C  12  1  0.19892200  0.13364700  0.09333400  1
  C  13  1  0.18273000  0.15348700  0.08500700  1
  C  14  1  0.16261600  0.14211300  0.07512300  1
  C  23  1  0.18633000  0.18321600  0.08674000  1
  C  24  1  0.05739200  0.09488700  0.06168700  1
  C  25  1  0.13248600  0.05358000  0.03130300  1
  C  26  1  0.20905400  0.08399400  0.10128000  1
  C  31  1  0.32334900  0.92312000  0.56357800  1
  C  32  1  0.31583000  0.94037000  0.55161500  1
  C  33  1  0.33633800  0.95321300  0.54247600  1
  C  34  1  0.36550000  0.94865400  0.54573600  1
  C  35  1  0.37405900  0.93183600  0.55773800  1
  C  36  1  0.35271700  0.91933100  0.56657000  1
  C  39  1  0.30178800  0.91247200  0.57329400  1
  C  40  1  0.28560500  0.93124400  0.58204300  1
  C  41  1  0.26505200  0.92133200  0.59216400  1
  C  42  1  0.26121700  0.89144200  0.59333200  1
  C  43  1  0.27741100  0.87160500  0.58500400  1
  C  44  1  0.29752900  0.88298000  0.57512200  1
  C  53  1  0.27381200  0.84187600  0.58673600  1
  C  54  1  0.40275400  0.93019700  0.56168800  1
  C  55  1  0.32765500  0.97150000  0.53130300  1
  C  56  1  0.25108100  0.94109100  0.60128100  1
  C  61  1  0.14097500  0.91900600  0.31375300  1
  C  62  1  0.15820600  0.92646300  0.30175600  1
  C  63  1  0.17102600  0.90598700  0.29261400  1
  C  64  1  0.16649400  0.87692700  0.29590800  1
  C  65  1  0.14971000  0.86842900  0.30794800  1
  C  66  1  0.13721300  0.88973800  0.31677900  1
  C  69  1  0.13029000  0.94055400  0.32343600  1
  C  70  1  0.14910400  0.95680900  0.33213700  1
  C  71  1  0.13914000  0.97738700  0.34221000  1
  C  72  1  0.10914900  0.98114400  0.34338500  1
  C  73  1  0.08927400  0.96488200  0.33510600  1
  C  74  1  0.10070500  0.94475700  0.32526900  1
  C  83  1  0.05945100  0.96840900  0.33684900  1
  C  84  1  0.14810900  0.83983400  0.31193100  1
  C  85  1  0.18929600  0.91461800  0.28140600  1
  C  86  1  0.15894600  0.99145000  0.35128600  1
  C  91  1  0.31917500  0.10609300  0.81375000  1
  C  92  1  0.30194300  0.09863500  0.80175300  1
  C  93  1  0.28912400  0.11910900  0.79261000  1
  C  94  1  0.29365000  0.14817000  0.79590500  1
  C  95  1  0.31044400  0.15667000  0.80794400  1
  C  96  1  0.32293500  0.13536000  0.81677500  1
  C  99  1  0.32985800  0.08454600  0.82343400  1
  C  100  1  0.31104500  0.06829000  0.83213400  1
  C  101  1  0.32100500  0.04771500  0.84220900  1
  C  102  1  0.35099700  0.04395900  0.84338600  1
  C  103  1  0.37087300  0.06021700  0.83510500  1
  C  104  1  0.35944300  0.08034100  0.82526700  1
  C  113  1  0.40069500  0.05669200  0.83684900  1
  C  114  1  0.31202900  0.18526600  0.81192500  1
  C  115  1  0.27084900  0.11048300  0.78140400  1
  C  116  1  0.30120100  0.03364600  0.85128300  1
  C  121  1  0.32355700  0.10397300  0.43145000  1
  C  122  1  0.31600800  0.08939300  0.44429800  1
  C  123  1  0.33652900  0.07717600  0.45365300  1
  C  124  1  0.36567400  0.08028900  0.44991700  1
  C  125  1  0.37418200  0.09432500  0.43700900  1
  C  126  1  0.35282700  0.10579300  0.42783400  1
  C  129  1  0.30197900  0.11427100  0.42169000  1
  C  130  1  0.28592500  0.09523700  0.41304500  1
  C  131  1  0.26548700  0.10487700  0.40279300  1
  C  132  1  0.26165200  0.13473900  0.40141000  1
  C  133  1  0.27774800  0.15480300  0.40964600  1
  C  134  1  0.29778600  0.14370100  0.41964700  1
  C  143  1  0.27416200  0.18448600  0.40772400  1
  C  144  1  0.40277800  0.09482300  0.43281300  1
  C  145  1  0.32792200  0.06300700  0.46630500  1
  C  146  1  0.25161900  0.08487900  0.39377100  1
  C  151  1  0.13658100  0.92113300  0.93144200  1
  C  152  1  0.14413500  0.93569300  0.94429400  1
  C  153  1  0.12361400  0.94790600  0.95365200  1
  C  154  1  0.09446800  0.94479700  0.94991500  1
  C  155  1  0.08596100  0.93077900  0.93700200  1
  C  156  1  0.10731300  0.91930400  0.92782600  1
  C  159  1  0.15815900  0.91082900  0.92168100  1
  C  160  1  0.17422000  0.92986300  0.91304100  1
  C  161  1  0.19466400  0.92022200  0.90279200  1
  C  162  1  0.19849700  0.89036000  0.90141100  1
  C  163  1  0.18239800  0.87029600  0.90964700  1
  C  164  1  0.16235500  0.88139900  0.91964400  1
  C  173  1  0.18598600  0.84061200  0.90772600  1
  C  174  1  0.05736300  0.93027300  0.93280900  1
  C  175  1  0.13222300  0.96207000  0.96630400  1
  C  176  1  0.20853100  0.94021500  0.89376900  1
  C  181  1  0.32123200  0.91885100  0.18126100  1
  C  182  1  0.30674500  0.92634500  0.19415500  1
  C  183  1  0.29454700  0.90586300  0.20351400  1
  C  184  1  0.29759700  0.87681700  0.19974000  1
  C  185  1  0.31154700  0.86837200  0.18678900  1
  C  186  1  0.32300500  0.88968500  0.17761300  1
  C  189  1  0.33157600  0.94040400  0.17152700  1
  C  190  1  0.31250000  0.95655600  0.16294300  1
  C  191  1  0.32219500  0.97700600  0.15273300  1
  C  192  1  0.35215900  0.98072600  0.15132400  1
  C  193  1  0.37226000  0.96453800  0.15950300  1
  C  194  1  0.36110100  0.94451200  0.16946800  1
  C  203  1  0.40203300  0.96800300  0.15754600  1
  C  204  1  0.31199500  0.83987600  0.18256800  1
  C  205  1  0.28047200  0.91440700  0.21620900  1
  C  206  1  0.30215300  0.99097800  0.14375800  1
  C  211  1  0.13890700  0.10623700  0.68126200  1
  C  212  1  0.15339600  0.09874600  0.69415400  1
  C  213  1  0.16559500  0.11922900  0.70351300  1
  C  214  1  0.16254200  0.14827300  0.69973900  1
  C  215  1  0.14858600  0.15671800  0.68679000  1
  C  216  1  0.13713300  0.13540300  0.67761400  1
  C  219  1  0.12856400  0.08468400  0.67152800  1
  C  220  1  0.14764000  0.06853100  0.66294400  1
  C  221  1  0.13794600  0.04808400  0.65273300  1
  C  222  1  0.10798100  0.04436700  0.65132200  1
  C  223  1  0.08788100  0.06054900  0.65950400  1
  C  224  1  0.09904000  0.08057700  0.66946800  1
  C  233  1  0.05810700  0.05708600  0.65754600  1
  C  234  1  0.14814700  0.18521600  0.68257000  1
  C  235  1  0.17967200  0.11068600  0.71621000  1
  C  236  1  0.15798600  0.03410600  0.64375900  1
  C  241  1  0.82148600  0.92214800  0.93083000  1
  C  242  1  0.81447200  0.94147800  0.94203300  1
  C  243  1  0.83500000  0.95277500  0.95168300  1
  C  244  1  0.86377800  0.94450300  0.94971500  1
  C  245  1  0.87197600  0.92553500  0.93849900  1
  C  246  1  0.85051300  0.91442800  0.92925900  1
  C  249  1  0.79993000  0.91176600  0.92098200  1
  C  250  1  0.78409200  0.93056300  0.91206800  1
  C  251  1  0.76348600  0.92072500  0.90194800  1
  C  252  1  0.75934000  0.89086900  0.90085700  1
  C  253  1  0.77518200  0.87098500  0.90931500  1
  C  254  1  0.79514100  0.88230200  0.91928800  1
  C  263  1  0.77140000  0.84126500  0.90765400  1
  C  264  1  0.90009600  0.91596500  0.93730700  1
  C  265  1  0.82679500  0.97215800  0.96248200  1
  C  266  1  0.74973800  0.94046500  0.89274100  1
  C  271  1  0.63865000  0.10294500  0.43082500  1
  C  272  1  0.64566900  0.08361900  0.44203000  1
  C  273  1  0.62513900  0.07232000  0.45168000  1
  C  274  1  0.59636500  0.08060200  0.44971700  1
  C  275  1  0.58816700  0.09957800  0.43850500  1
  C  276  1  0.60962600  0.11067600  0.42925900  1
  C  279  1  0.66020400  0.11333200  0.42097600  1
  C  280  1  0.67605100  0.09453500  0.41206700  1
  C  281  1  0.69666100  0.10437500  0.40195000  1
  C  282  1  0.70080500  0.13423000  0.40085900  1
  C  283  1  0.68495900  0.15411400  0.40931700  1
  C  284  1  0.66499800  0.14279500  0.41928900  1
  C  293  1  0.68874300  0.18383500  0.40765700  1
  C  294  1  0.56004400  0.10914100  0.43731000  1
  C  295  1  0.63334800  0.05294100  0.46247900  1
  C  296  1  0.71040900  0.08463800  0.39274100  1
  C  301  1  0.81969800  0.10596600  0.68047000  1
  C  302  1  0.80237200  0.09846700  0.69242700  1
  C  303  1  0.78949500  0.11890400  0.70157600  1
  C  304  1  0.79407600  0.14797800  0.69832600  1
  C  305  1  0.81095800  0.15652300  0.68633000  1
  C  306  1  0.82350400  0.13524900  0.67749400  1
  C  309  1  0.83045400  0.08446200  0.67077500  1
  C  310  1  0.81169600  0.06816900  0.66205900  1
  C  311  1  0.82172800  0.04765800  0.65196900  1
  C  312  1  0.85172600  0.04400900  0.65078000  1
  C  313  1  0.87154700  0.06031700  0.65906600  1
  C  314  1  0.86005300  0.08036100  0.66892900  1
  C  323  1  0.90137300  0.05690800  0.65729600  1
  C  324  1  0.81261400  0.18513900  0.68238800  1
  C  325  1  0.77112600  0.11023100  0.71273800  1
  C  326  1  0.80199000  0.03356000  0.64287300  1
  C  331  1  0.64044100  0.91912800  0.18047200  1
  C  332  1  0.65776500  0.92662800  0.19243000  1
  C  333  1  0.67064200  0.90619200  0.20157900  1
  C  334  1  0.66606900  0.87711900  0.19832800  1
  C  335  1  0.64917700  0.86857100  0.18633400  1
  C  336  1  0.63663700  0.88984600  0.17749800  1
  C  339  1  0.62968500  0.94063200  0.17077600  1
  C  340  1  0.64844500  0.95692400  0.16206100  1
  C  341  1  0.63841500  0.97743100  0.15196900  1
  C  342  1  0.60841700  0.98107900  0.15077700  1
  C  343  1  0.58859400  0.96477600  0.15906700  1
  C  344  1  0.60008600  0.94473200  0.16892900  1
  C  353  1  0.55876800  0.96818300  0.15729400  1
  C  354  1  0.64753800  0.83995400  0.18239300  1
  C  355  1  0.68901500  0.91486100  0.21274000  1
  C  356  1  0.65815100  0.99153400  0.14287400  1
  C  361  1  0.63821600  0.92013500  0.56225700  1
  C  362  1  0.64584700  0.93702700  0.55018100  1
  C  363  1  0.62554200  0.94755900  0.54019700  1
  C  364  1  0.59654600  0.94041200  0.54246700  1
  C  365  1  0.58778800  0.92406100  0.55460200  1
  C  366  1  0.60894500  0.91398800  0.56432400  1
  C  369  1  0.65956200  0.91022700  0.57230200  1
  C  370  1  0.67538000  0.92943600  0.58097200  1
  C  371  1  0.69578900  0.92002900  0.59130100  1
  C  372  1  0.69962600  0.89019500  0.59287600  1
  C  373  1  0.68425700  0.86997000  0.58440600  1
  C  374  1  0.66430900  0.88085300  0.57430400  1
  C  383  1  0.68844000  0.84033000  0.58616400  1
  C  384  1  0.55947000  0.91535400  0.55612600  1
  C  385  1  0.63440000  0.96289000  0.52796600  1
  C  386  1  0.70959300  0.94018600  0.60025300  1
  C  391  1  0.82193400  0.10495600  0.06226200  1
  C  392  1  0.81430000  0.08806700  0.05018400  1
  C  393  1  0.83460300  0.07755200  0.04019500  1
  C  394  1  0.86360200  0.08468800  0.04246600  1
  C  395  1  0.87235300  0.10105000  0.05459600  1
  C  396  1  0.85120400  0.11111000  0.06432600  1
  C  399  1  0.80059000  0.11486500  0.07230800  1
  C  400  1  0.78476500  0.09565600  0.08097400  1
  C  401  1  0.76435000  0.10506200  0.09130100  1
  C  402  1  0.76051500  0.13489700  0.09287700  1
  C  403  1  0.77588600  0.15512100  0.08440600  1
  C  404  1  0.79583900  0.14423800  0.07430600  1
  C  413  1  0.77170600  0.18476100  0.08616300  1
  C  414  1  0.90067600  0.10974600  0.05612600  1
  C  415  1  0.82574300  0.06220900  0.02796800  1
  C  416  1  0.75054600  0.08490800  0.10025400  1
  C  421  1  0.63819900  0.10597600  0.81260300  1
  C  422  1  0.65280200  0.09847300  0.79974400  1
  C  423  1  0.66507900  0.11894600  0.79040300  1
  C  424  1  0.66198400  0.14799400  0.79416300  1
  C  425  1  0.64792100  0.15645100  0.80708000  1
  C  426  1  0.63639600  0.13514500  0.81623800  1
  C  429  1  0.62788800  0.08445000  0.82236400  1
  C  430  1  0.64700900  0.06838500  0.83096300  1
  C  431  1  0.63736500  0.04801900  0.84122700  1
  C  432  1  0.60739500  0.04453100  0.84280000  1
  C  433  1  0.58726400  0.06021100  0.83439700  1
  C  434  1  0.59837200  0.08018900  0.82438900  1
  C  443  1  0.55750300  0.05628400  0.83617000  1
  C  444  1  0.64744200  0.18495100  0.81129700  1
  C  445  1  0.67928100  0.11038800  0.77774300  1
  C  446  1  0.65744900  0.03396400  0.85013700  1
  C  451  1  0.82194900  0.91912800  0.31260200  1
  C  452  1  0.80734300  0.92663000  0.29974400  1
  C  453  1  0.79506700  0.90615600  0.29040400  1
  C  454  1  0.79816300  0.87710900  0.29416300  1
  C  455  1  0.81223200  0.86865100  0.30707900  1
  C  456  1  0.82375600  0.88996000  0.31623800  1
  C  459  1  0.83225900  0.94065500  0.32236400  1
  C  460  1  0.81313800  0.95671800  0.33096200  1
  C  461  1  0.82278000  0.97708200  0.34122800  1
  C  462  1  0.85275100  0.98057300  0.34280000  1
  C  463  1  0.87288100  0.96489500  0.33439700  1
  C  464  1  0.86177300  0.94491600  0.32438900  1
  C  473  1  0.90264200  0.96882100  0.33617100  1
  C  474  1  0.81270300  0.84015100  0.31129400  1
  C  475  1  0.78086200  0.91471100  0.27774300  1
  C  476  1  0.80269800  0.99114100  0.35013800  1
  C  481  1  0.63847400  0.60260900  0.56353300  1
  C  482  1  0.64603800  0.58523500  0.55162200  1
  C  483  1  0.62557000  0.57232600  0.54248400  1
  C  484  1  0.59639500  0.57691000  0.54570000  1
  C  485  1  0.58778600  0.59382800  0.55765700  1
  C  486  1  0.60909400  0.60639300  0.56648800  1
  C  489  1  0.65998400  0.61329700  0.57326700  1
  C  490  1  0.67607800  0.59455300  0.58207300  1
  C  491  1  0.69654600  0.60450300  0.59222600  1
  C  492  1  0.70039400  0.63438800  0.59337800  1
  C  493  1  0.68426800  0.65419600  0.58500300  1
  C  494  1  0.66422800  0.64279300  0.57508600  1
  C  503  1  0.68785200  0.68392300  0.58673900  1
  C  504  1  0.55908400  0.59544300  0.56159100  1
  C  505  1  0.63429200  0.55389900  0.53137900  1
  C  506  1  0.71041600  0.58479900  0.60140000  1
  C  511  1  0.82167500  0.42249400  0.06354100  1
  C  512  1  0.81410500  0.43985100  0.05162400  1
  C  513  1  0.83457500  0.45276800  0.04249000  1
  C  514  1  0.86374800  0.44817200  0.04570100  1
  C  515  1  0.87235700  0.43127100  0.05766400  1
  C  516  1  0.85105600  0.41869500  0.06649400  1
  C  519  1  0.80016600  0.41179700  0.07327300  1
  C  520  1  0.78406100  0.43054000  0.08207400  1
  C  521  1  0.76358800  0.42058700  0.09222400  1
  C  522  1  0.75974500  0.39070000  0.09337500  1
  C  523  1  0.77587500  0.37089400  0.08500000  1
  C  524  1  0.79591700  0.38229900  0.07508500  1
  C  533  1  0.77228900  0.34116700  0.08673400  1
  C  534  1  0.90106200  0.42964100  0.06159300  1
  C  535  1  0.82584900  0.47118100  0.03137800  1
  C  536  1  0.74971900  0.44028700  0.10140100  1
  C  541  1  0.63950700  0.42018100  0.81337500  1
  C  542  1  0.65888300  0.42714600  0.80215900  1
  C  543  1  0.67019900  0.40666400  0.79251500  1
  C  544  1  0.66189300  0.37798200  0.79449600  1
  C  545  1  0.64286500  0.36983300  0.80571600  1
  C  546  1  0.63174800  0.39124900  0.81495500  1
  C  549  1  0.62907800  0.44171600  0.82319800  1
  C  550  1  0.64792100  0.45765100  0.83205200  1
  C  551  1  0.63803500  0.47829800  0.84211500  1
  C  552  1  0.60808400  0.48236000  0.84322300  1
  C  553  1  0.58816100  0.46644000  0.83482000  1
  C  554  1  0.59951700  0.44646100  0.82489300  1
  C  563  1  0.55836200  0.47020400  0.83650200  1
  C  564  1  0.63324400  0.34180000  0.80691800  1
  C  565  1  0.68962100  0.41483200  0.78170400  1
  C  566  1  0.65780500  0.49220700  0.85126100  1
  C  571  1  0.82063800  0.60491800  0.31337300  1
  C  572  1  0.80126400  0.59795300  0.30215800  1
  C  573  1  0.78995100  0.61843700  0.29251300  1
  C  574  1  0.79825200  0.64711900  0.29449700  1
  C  575  1  0.81727800  0.65526800  0.30571900  1
  C  576  1  0.82839500  0.63385100  0.31495600  1
  C  579  1  0.83106900  0.58338200  0.32319600  1
  C  580  1  0.81222400  0.56744600  0.33204900  1
  C  581  1  0.82210800  0.54680300  0.34211500  1
  C  582  1  0.85205900  0.54274300  0.34322400  1
  C  583  1  0.87198400  0.55865800  0.33481900  1
  C  584  1  0.86062800  0.57863800  0.32489100  1
  C  593  1  0.90178300  0.55489500  0.33650100  1
  C  594  1  0.82689500  0.68330100  0.30691700  1
  C  595  1  0.77052800  0.61027100  0.28170200  1
  C  596  1  0.80234000  0.53288800  0.35126000  1
  C  601  1  0.82174300  0.60457300  0.93183400  1
  C  602  1  0.81416700  0.58993100  0.94465900  1
  C  603  1  0.83467100  0.57762100  0.95399400  1
  C  604  1  0.86382000  0.58070300  0.95026000  1
  C  605  1  0.87234300  0.59479400  0.93737200  1
  C  606  1  0.85100900  0.60634500  0.92821200  1
  C  609  1  0.80021000  0.61479800  0.92203200  1
  C  610  1  0.78435300  0.59568200  0.91334700  1
  C  611  1  0.76405300  0.60523100  0.90300600  1
  C  612  1  0.76038300  0.63508600  0.90145200  1
  C  613  1  0.77587300  0.65521100  0.90993500  1
  C  614  1  0.79582200  0.64420800  0.92001300  1
  C  623  1  0.77179500  0.68486200  0.90817000  1
  C  624  1  0.90092600  0.59523600  0.93316700  1
  C  625  1  0.82605300  0.56336300  0.96661700  1
  C  626  1  0.75023200  0.58516500  0.89402200  1
  C  631  1  0.63839600  0.42053400  0.43182600  1
  C  632  1  0.64597600  0.43515500  0.44465700  1
  C  633  1  0.62547200  0.44746100  0.45399300  1
  C  634  1  0.59632300  0.44438300  0.45025800  1
  C  635  1  0.58780000  0.43030900  0.43736500  1
  C  636  1  0.60913000  0.41875200  0.42820600  1
  C  639  1  0.65992700  0.41030300  0.42202400  1
  C  640  1  0.67579400  0.42941900  0.41334400  1
  C  641  1  0.69609900  0.41986800  0.40300700  1
  C  642  1  0.69976400  0.39001000  0.40145400  1
  C  643  1  0.68427200  0.36988800  0.40993600  1
  C  644  1  0.66432100  0.38089100  0.42001300  1
  C  653  1  0.68835100  0.34023500  0.40817300  1
  C  654  1  0.55921500  0.42985900  0.43316400  1
  C  655  1  0.63409200  0.46171500  0.46661700  1
  C  656  1  0.70992000  0.43993000  0.39402100  1
  C  661  1  0.82273600  0.41995900  0.68190400  1
  C  662  1  0.80578900  0.42751000  0.69399000  1
  C  663  1  0.79523200  0.40722400  0.70395300  1
  C  664  1  0.80239500  0.37832600  0.70164700  1
  C  665  1  0.81881200  0.36965300  0.68950800  1
  C  666  1  0.82891000  0.39078900  0.67980800  1
  C  669  1  0.83270500  0.44131000  0.67190200  1
  C  670  1  0.81346200  0.45722800  0.66328400  1
  C  671  1  0.82293300  0.47771000  0.65302900  1
  C  672  1  0.85286300  0.48149500  0.65146700  1
  C  673  1  0.87311500  0.46606000  0.65989900  1
  C  674  1  0.86217600  0.44605100  0.66993000  1
  C  683  1  0.90283300  0.47029100  0.65817000  1
  C  684  1  0.82754200  0.34141900  0.68795300  1
  C  685  1  0.77986100  0.41601400  0.71619400  1
  C  686  1  0.80276400  0.49167600  0.64413200  1
  C  691  1  0.63741000  0.60512900  0.18190400  1
  C  692  1  0.65435700  0.59758100  0.19398900  1
  C  693  1  0.66491500  0.61786800  0.20395200  1
  C  694  1  0.65774800  0.64676400  0.20164600  1
  C  695  1  0.64133800  0.65543900  0.18950400  1
  C  696  1  0.63123500  0.63430000  0.17980600  1
  C  699  1  0.62743900  0.58377800  0.17190200  1
  C  700  1  0.64667800  0.56786000  0.16328500  1
  C  701  1  0.63721000  0.54738000  0.15302900  1
  C  702  1  0.60727800  0.54359300  0.15146700  1
  C  703  1  0.58702800  0.55902600  0.15990100  1
  C  704  1  0.59796700  0.57903700  0.16993100  1
  C  713  1  0.55730800  0.55479700  0.15817200  1
  C  714  1  0.63260700  0.68367300  0.18795500  1
  C  715  1  0.68028400  0.60908300  0.21619400  1
  C  716  1  0.65737500  0.53341000  0.14413200  1
  C  721  1  0.32335100  0.42175600  0.43101000  1
  C  722  1  0.31632600  0.44109500  0.44221000  1
  C  723  1  0.33684100  0.45241300  0.45186500  1
  C  724  1  0.36561900  0.44412700  0.44990800  1
  C  725  1  0.37383200  0.42514800  0.43869900  1
  C  726  1  0.35238200  0.41404300  0.42945000  1
  C  729  1  0.30181200  0.41136400  0.42114700  1
  C  730  1  0.28592300  0.43016300  0.41225600  1
  C  731  1  0.26534500  0.42032500  0.40211900  1
  C  732  1  0.26129100  0.39046500  0.40098300  1
  C  733  1  0.27718600  0.37057700  0.40941300  1
  C  734  1  0.29710300  0.38189500  0.41940900  1
  C  743  1  0.27347500  0.34085400  0.40770600  1
  C  744  1  0.40195300  0.41557000  0.43751300  1
  C  745  1  0.32861700  0.47183800  0.46264800  1
  C  746  1  0.25150700  0.44008200  0.39294900  1
  C  751  1  0.13678500  0.60333800  0.93100500  1
  C  752  1  0.14381200  0.58400400  0.94220600  1
  C  753  1  0.12329900  0.57268300  0.95186200  1
  C  754  1  0.09452200  0.58097800  0.94991000  1
  C  755  1  0.08631200  0.59996600  0.93870500  1
  C  756  1  0.10775600  0.61106200  0.92945000  1
  C  759  1  0.15832200  0.61373500  0.92114200  1
  C  760  1  0.17422000  0.59493500  0.91225500  1
  C  761  1  0.19480300  0.60477400  0.90212100  1
  C  762  1  0.19885300  0.63463600  0.90098600  1
  C  763  1  0.18295500  0.65452400  0.90941500  1
  C  764  1  0.16303700  0.64320300  0.91940900  1
  C  773  1  0.18667000  0.68424600  0.90770900  1
  C  774  1  0.05818700  0.60953800  0.93751600  1
  C  775  1  0.13152700  0.55326200  0.96264600  1
  C  776  1  0.20864000  0.58502100  0.89294900  1
  C  781  1  0.31948000  0.60463400  0.18049600  1
  C  782  1  0.30023800  0.59771800  0.19177300  1
  C  783  1  0.28910200  0.61824300  0.20144600  1
  C  784  1  0.29743000  0.64690800  0.19942400  1
  C  785  1  0.31632800  0.65500200  0.18813900  1
  C  786  1  0.32728500  0.63354700  0.17887600  1
  C  789  1  0.32983700  0.58304200  0.17069200  1
  C  790  1  0.31096800  0.56708000  0.16186500  1
  C  791  1  0.32082500  0.54636900  0.15182600  1
  C  792  1  0.35077800  0.54226500  0.15073100  1
  C  793  1  0.37072000  0.55820200  0.15911800  1
  C  794  1  0.35938100  0.57824400  0.16901300  1
  C  803  1  0.40052700  0.55443400  0.15747300  1
  C  804  1  0.32600200  0.68300900  0.18690300  1
  C  805  1  0.26985600  0.61012500  0.21234000  1
  C  806  1  0.30101200  0.53246300  0.14269300  1
  C  811  1  0.14066000  0.42046000  0.68049600  1
  C  812  1  0.15990200  0.42737600  0.69177400  1
  C  813  1  0.17103700  0.40685000  0.70144700  1
  C  814  1  0.16271400  0.37818500  0.69942300  1
  C  815  1  0.14381600  0.37009100  0.68813600  1
  C  816  1  0.13285800  0.39154800  0.67887600  1
  C  819  1  0.13030500  0.44205300  0.67069400  1
  C  820  1  0.14917300  0.45801400  0.66186500  1
  C  821  1  0.13931900  0.47872300  0.65182500  1
  C  822  1  0.10936500  0.48282500  0.65072900  1
  C  823  1  0.08942200  0.46689500  0.65911800  1
  C  824  1  0.10076000  0.44685000  0.66901400  1
  C  833  1  0.05961600  0.47066100  0.65747200  1
  C  834  1  0.13414600  0.34208100  0.68690300  1
  C  835  1  0.19028200  0.41496500  0.71234100  1
  C  836  1  0.15912900  0.49263400  0.64269400  1
  C  841  1  0.13652800  0.41957000  0.06217500  1
  C  842  1  0.14413800  0.43656600  0.05013000  1
  C  843  1  0.12382300  0.44717600  0.04017000  1
  C  844  1  0.09483100  0.43999300  0.04243400  1
  C  845  1  0.08609000  0.42354700  0.05453700  1
  C  846  1  0.10726000  0.41340900  0.06423600  1
  C  849  1  0.15788300  0.40960700  0.07220600  1
  C  850  1  0.17373500  0.42878500  0.08088000  1
  C  851  1  0.19415600  0.41934200  0.09119500  1
  C  852  1  0.19796300  0.38950300  0.09275800  1
  C  853  1  0.18256200  0.36930400  0.08428700  1
  C  854  1  0.16260600  0.38022300  0.07419700  1
  C  863  1  0.18676200  0.33966200  0.08602800  1
  C  864  1  0.05777300  0.41482500  0.05605700  1
  C  865  1  0.13266800  0.46262400  0.02797000  1
  C  866  1  0.20801800  0.43946500  0.10014200  1
  C  871  1  0.32362200  0.60552000  0.56217800  1
  C  872  1  0.31601000  0.58852900  0.55013200  1
  C  873  1  0.33632300  0.57793600  0.54016700  1
  C  874  1  0.36531600  0.58510800  0.54243200  1
  C  875  1  0.37405200  0.60156400  0.55453200  1
  C  876  1  0.35288900  0.61169000  0.56423700  1
  C  879  1  0.30226800  0.61548500  0.57221100  1
  C  880  1  0.28641100  0.59630800  0.58088100  1
  C  881  1  0.26598300  0.60575100  0.59119300  1
  C  882  1  0.26218000  0.63558900  0.59275700  1
  C  883  1  0.27758300  0.65578800  0.58428600  1
  C  884  1  0.29754000  0.64487000  0.57419700  1
  C  893  1  0.27338100  0.68543000  0.58602600  1
  C  894  1  0.40237500  0.61027300  0.55605600  1
  C  895  1  0.32747400  0.56247500  0.52797100  1
  C  896  1  0.25212200  0.58563000  0.60014300  1
  C  901  1  0.13855900  0.60500000  0.31266200  1
  C  902  1  0.15534400  0.59745600  0.30052100  1
  C  903  1  0.16569400  0.61775000  0.29050900  1
  C  904  1  0.15849700  0.64663500  0.29282200  1
  C  905  1  0.14224000  0.65529800  0.30501800  1
  C  906  1  0.13233300  0.63415600  0.31476700  1
  C  909  1  0.12866400  0.58362800  0.32266200  1
  C  910  1  0.14792600  0.56771200  0.33126800  1
  C  911  1  0.13847700  0.54718300  0.34150400  1
  C  912  1  0.10854600  0.54334600  0.34305300  1
  C  913  1  0.08828200  0.55878700  0.33462900  1
  C  914  1  0.09920500  0.57883800  0.32461800  1
  C  923  1  0.05855600  0.55457500  0.33633100  1
  C  924  1  0.13344900  0.68350600  0.30658400  1
  C  925  1  0.18087600  0.60896700  0.27821200  1
  C  926  1  0.15867100  0.53325600  0.35040400  1
  C  931  1  0.32158400  0.42010500  0.81266200  1
  C  932  1  0.30479800  0.42764700  0.80052100  1
  C  933  1  0.29444700  0.40735300  0.79051000  1
  C  934  1  0.30164600  0.37846600  0.79282400  1
  C  935  1  0.31790000  0.36980500  0.80502200  1
  C  936  1  0.32780900  0.39094700  0.81476800  1
  C  939  1  0.33148100  0.44147700  0.82266100  1
  C  940  1  0.31222000  0.45739300  0.83126700  1
  C  941  1  0.32166700  0.47791700  0.84150400  1
  C  942  1  0.35159900  0.48175700  0.84305300  1
  C  943  1  0.37186100  0.46631800  0.83462800  1
  C  944  1  0.36094000  0.44626400  0.82461700  1
  C  953  1  0.40158800  0.47052700  0.83633100  1
  C  954  1  0.32668900  0.34159200  0.80658200  1
  C  955  1  0.27926700  0.41612800  0.77821100  1
  C  956  1  0.30147700  0.49185100  0.85040500  1
  C  961  1  0.17229900  0.23120700  0.07942200  1
  C  962  1  0.15359500  0.24604800  0.07003900  1
  C  963  1  0.15354300  0.27640700  0.06998800  1
  C  964  1  0.17223700  0.29143200  0.07930100  1
  C  967  1  0.13471800  0.29081300  0.06056000  1
  C  968  1  0.11635200  0.27585700  0.05137500  1
  C  969  1  0.11640700  0.24621700  0.05142500  1
  C  970  1  0.13482500  0.23145000  0.06066100  1
  C  977  1  0.28784700  0.79388500  0.57941900  1
  C  978  1  0.30655200  0.77904400  0.57003600  1
  C  979  1  0.30660300  0.74868300  0.56998600  1
  C  980  1  0.28790800  0.73366000  0.57929900  1
  C  983  1  0.32543000  0.73428000  0.56055900  1
  C  984  1  0.34379600  0.74923100  0.55137500  1
  C  985  1  0.34374100  0.77887300  0.55142300  1
  C  986  1  0.32532100  0.79364000  0.56065800  1
  C  993  1  0.01134500  0.95449400  0.32946300  1
  C  994  1  0.99647000  0.93597200  0.32001300  1
  C  995  1  0.96601900  0.93592700  0.31995200  1
  C  996  1  0.95094200  0.95444100  0.32932600  1
  C  999  1  0.95157400  0.91729100  0.31045600  1
  C  1000  1  0.96658100  0.89909400  0.30121700  1
  C  1001  1  0.99631500  0.89913900  0.30127800  1
  C  1002  1  0.01112200  0.91737800  0.31057900  1
  C  1009  1  0.44880000  0.07060500  0.82946300  1
  C  1010  1  0.46367500  0.08912800  0.82001200  1
  C  1011  1  0.49412900  0.08917400  0.81995100  1
  C  1012  1  0.50920500  0.07066300  0.82932500  1
  C  1015  1  0.50857100  0.10781200  0.81045600  1
  C  1016  1  0.49356300  0.12600700  0.80121500  1
  C  1017  1  0.46382800  0.12596000  0.80127500  1
  C  1018  1  0.44902300  0.10772000  0.81057700  1
  C  1025  1  0.28796100  0.23262400  0.41491800  1
  C  1026  1  0.30646700  0.24764000  0.42433100  1
  C  1027  1  0.30641400  0.27799900  0.42428700  1
  C  1028  1  0.28783200  0.29284700  0.41484300  1
  C  1031  1  0.32503900  0.29258700  0.43374400  1
  C  1032  1  0.34331400  0.27780900  0.44304800  1
  C  1033  1  0.34336100  0.24816900  0.44309400  1
  C  1034  1  0.32513500  0.23322400  0.43383300  1
  C  1041  1  0.17218100  0.79247500  0.91491900  1
  C  1042  1  0.15367400  0.77746000  0.92433200  1
  C  1043  1  0.15372600  0.74709900  0.92428800  1
  C  1044  1  0.17230900  0.73225200  0.91484600  1
  C  1047  1  0.13510000  0.73251400  0.93374400  1
  C  1048  1  0.11682300  0.74729200  0.94304900  1
  C  1049  1  0.11677700  0.77693400  0.94309400  1
  C  1050  1  0.13500400  0.79187600  0.93383300  1
  C  1057  1  0.45028300  0.95429500  0.16480100  1
  C  1058  1  0.46532500  0.93603900  0.17432000  1
  C  1059  1  0.49577900  0.93605000  0.17426700  1
  C  1060  1  0.51068100  0.95432100  0.16470100  1
  C  1063  1  0.51039900  0.91768600  0.18383000  1
  C  1064  1  0.49556300  0.89969300  0.19324300  1
  C  1065  1  0.46582800  0.89968000  0.19329400  1
  C  1066  1  0.45085100  0.91766100  0.18393300  1
  C  1073  1  0.00985800  0.07079400  0.66480200  1
  C  1074  1  0.99481600  0.08905100  0.67431900  1
  C  1075  1  0.96436400  0.08904100  0.67426700  1
  C  1076  1  0.94946000  0.07077100  0.66470100  1
  C  1079  1  0.94974400  0.10740800  0.68383000  1
  C  1080  1  0.96458000  0.12540200  0.69324200  1
  C  1081  1  0.99431500  0.12541300  0.69329300  1
  C  1082  1  0.00929200  0.10742900  0.68393300  1
  C  1089  1  0.78576400  0.79329100  0.91486900  1
  C  1090  1  0.80441800  0.77852800  0.92431000  1
  C  1091  1  0.80455400  0.74816900  0.92438100  1
  C  1092  1  0.78602300  0.73307500  0.91501500  1
  C  1095  1  0.82329800  0.73383800  0.93387700  1
  C  1096  1  0.84151100  0.74886100  0.94311100  1
  C  1097  1  0.84138400  0.77850300  0.94304000  1
  C  1098  1  0.82304100  0.79319800  0.93373500  1
  C  1105  1  0.67437700  0.23180800  0.41487100  1
  C  1106  1  0.65572100  0.24657100  0.42431200  1
  C  1107  1  0.65558700  0.27692900  0.42438300  1
  C  1108  1  0.67412100  0.29202400  0.41501700  1
  C  1111  1  0.63684100  0.29126300  0.43387800  1
  C  1112  1  0.61862800  0.27624000  0.44311200  1
  C  1113  1  0.61875500  0.24659800  0.44304100  1
  C  1114  1  0.63709800  0.23190300  0.43373700  1
  C  1121  1  0.67402900  0.79212600  0.57931100  1
  C  1122  1  0.65552300  0.77716400  0.56987400  1
  C  1123  1  0.65553000  0.74680600  0.56989700  1
  C  1124  1  0.67400200  0.73190900  0.57937500  1
  C  1127  1  0.63694900  0.73226700  0.56039900  1
  C  1128  1  0.61876100  0.74709100  0.55107000  1
  C  1129  1  0.61875100  0.77673300  0.55104600  1
  C  1130  1  0.63693200  0.79162700  0.56035000  1
  C  1137  1  0.78611400  0.23296400  0.07930900  1
  C  1138  1  0.80462200  0.24792600  0.06987200  1
  C  1139  1  0.80461800  0.27828500  0.06989600  1
  C  1140  1  0.78614300  0.29318100  0.07937200  1
  C  1143  1  0.82319800  0.29282100  0.06039700  1
  C  1144  1  0.84138800  0.27799700  0.05106900  1
  C  1145  1  0.84139700  0.24835500  0.05104600  1
  C  1146  1  0.82321500  0.23346100  0.06035000  1
  C  1153  1  0.51023000  0.45600600  0.82938800  1
  C  1154  1  0.49523200  0.43737800  0.82004400  1
  C  1155  1  0.46478400  0.43738800  0.82007100  1
  C  1156  1  0.44985800  0.45604400  0.82943200  1
  C  1159  1  0.45020200  0.41866300  0.81067500  1
  C  1160  1  0.46507500  0.40033500  0.80144600  1
  C  1161  1  0.49481000  0.40032700  0.80142200  1
  C  1162  1  0.50975000  0.41864600  0.81062700  1
  C  1169  1  0.94991600  0.56909300  0.32938800  1
  C  1170  1  0.96491100  0.58772100  0.32004300  1
  C  1171  1  0.99536100  0.58771300  0.32007000  1
  C  1172  1  0.01028700  0.56905700  0.32943200  1
  C  1175  1  0.00994100  0.60643800  0.31067400  1
  C  1176  1  0.99506800  0.62476400  0.30144400  1
  C  1177  1  0.96533300  0.62477200  0.30142000  1
  C  1178  1  0.95039500  0.60645300  0.31062500  1
  C  1185  1  0.95118800  0.45595500  0.66490000  1
  C  1186  1  0.96635600  0.43736500  0.67419400  1
  C  1187  1  0.99680500  0.43753000  0.67410700  1
  C  1188  1  0.01156200  0.45626400  0.66471700  1
  C  1191  1  0.01155900  0.41886000  0.68346100  1
  C  1192  1  0.99685800  0.40043900  0.69271100  1
  C  1193  1  0.96712400  0.40028000  0.69279800  1
  C  1194  1  0.95201500  0.41854000  0.68363400  1
  C  1201  1  0.50895300  0.56913700  0.16490100  1
  C  1202  1  0.49378700  0.58772700  0.17419500  1
  C  1203  1  0.46333800  0.58756500  0.17410800  1
  C  1204  1  0.44858200  0.56883100  0.16471800  1
  C  1207  1  0.44858400  0.60623700  0.18345900  1
  C  1208  1  0.46328700  0.62465800  0.19271000  1
  C  1209  1  0.49302200  0.62481400  0.19279800  1
  C  1210  1  0.50813000  0.60655200  0.18363400  1
  C  1217  1  0.00942600  0.10220500  0.05303400  1
  C  1218  1  0.99361500  0.11521800  0.04178400  1
  C  1219  1  0.96328400  0.11355100  0.04202300  1
  C  1220  1  0.94977800  0.09902400  0.05358800  1
  C  1223  1  0.94769500  0.12582400  0.03051800  1
  C  1224  1  0.96152200  0.13981100  0.01913100  1
  C  1225  1  0.99120400  0.14165100  0.01896900  1
  C  1226  1  0.00713100  0.12940800  0.03016800  1
  C  1233  1  0.45072000  0.92288600  0.55303400  1
  C  1234  1  0.46653000  0.90988000  0.54178200  1
  C  1235  1  0.49686100  0.91154800  0.54202200  1
  C  1236  1  0.51036500  0.92607000  0.55359000  1
  C  1239  1  0.51245300  0.89928000  0.53051700  1
  C  1240  1  0.49862500  0.88530000  0.51912700  1
  C  1241  1  0.46894400  0.88346000  0.51896300  1
  C  1242  1  0.45301500  0.89569600  0.53016300  1
  C  1249  1  0.14079800  0.79195900  0.30334300  1
  C  1250  1  0.12769600  0.77613500  0.29213000  1
  C  1251  1  0.12938600  0.74590100  0.29240600  1
  C  1252  1  0.14403500  0.73249500  0.30396400  1
  C  1255  1  0.11701200  0.73029600  0.28094100  1
  C  1256  1  0.10291800  0.74401700  0.26955400  1
  C  1257  1  0.10106400  0.77360600  0.26935400  1
  C  1258  1  0.11339600  0.78954400  0.28051500  1
  C  1265  1  0.31934900  0.23314000  0.80334100  1
  C  1266  1  0.33245200  0.24896800  0.79213100  1
  C  1267  1  0.33075800  0.27920200  0.79240600  1
  C  1268  1  0.31610500  0.29260600  0.80396500  1
  C  1271  1  0.34313400  0.29481100  0.78094300  1
  C  1272  1  0.35723200  0.28109300  0.76955700  1
  C  1273  1  0.35909000  0.25150600  0.76935600  1
  C  1274  1  0.34675900  0.23556300  0.78051600  1
  C  1281  1  0.45108000  0.10268700  0.44086900  1
  C  1282  1  0.46734400  0.11560300  0.45197800  1
  C  1283  1  0.49765200  0.11371400  0.45148500  1
  C  1284  1  0.51065200  0.09917400  0.43976900  1
  C  1287  1  0.51367400  0.12574100  0.46290500  1
  C  1288  1  0.50030500  0.13973900  0.47443200  1
  C  1289  1  0.47065300  0.14185500  0.47482000  1
  C  1290  1  0.45429800  0.12983500  0.46372000  1
  C  1297  1  0.00906300  0.92241200  0.94086600  1
  C  1298  1  0.99279700  0.90950100  0.95197600  1
  C  1299  1  0.96248900  0.91139200  0.95148200  1
  C  1300  1  0.94949100  0.92592800  0.93976500  1
  C  1303  1  0.94646700  0.89936900  0.96290400  1
  C  1304  1  0.95983400  0.88537400  0.97443200  1
  C  1305  1  0.98948600  0.88325700  0.97482000  1
  C  1306  1  0.00584300  0.89527400  0.96372000  1
  C  1313  1  0.31984500  0.79167300  0.19056700  1
  C  1314  1  0.33286800  0.77539900  0.20163400  1
  C  1315  1  0.33091900  0.74519200  0.20112000  1
  C  1316  1  0.31620300  0.73228800  0.18943000  1
  C  1319  1  0.34306600  0.72916300  0.21249800  1
  C  1320  1  0.35722800  0.74243100  0.22400300  1
  C  1321  1  0.35939600  0.77198800  0.22441300  1
  C  1322  1  0.34726800  0.78834500  0.21335400  1
  C  1329  1  0.14029500  0.23341900  0.69056600  1
  C  1330  1  0.12727200  0.24969400  0.70163300  1
  C  1331  1  0.12922300  0.27990200  0.70111800  1
  C  1332  1  0.14394100  0.29280200  0.68942800  1
  C  1335  1  0.11707900  0.29593200  0.71249600  1
  C  1336  1  0.10291700  0.28266600  0.72400200  1
  C  1337  1  0.10074600  0.25310800  0.72441200  1
  C  1338  1  0.11287200  0.23674900  0.71335400  1
  C  1345  1  0.81993000  0.23296900  0.69104700  1
  C  1346  1  0.83296500  0.24872300  0.70230500  1
  C  1347  1  0.83132800  0.27896300  0.70206100  1
  C  1348  1  0.81680300  0.29244500  0.69048600  1
  C  1351  1  0.84362600  0.29449600  0.71357300  1
  C  1352  1  0.85760600  0.28070100  0.72497300  1
  C  1353  1  0.85941500  0.25111000  0.72514100  1
  C  1354  1  0.84714900  0.23524200  0.71393500  1
  C  1361  1  0.64021400  0.79212400  0.19104900  1
  C  1362  1  0.62717600  0.77636500  0.20230500  1
  C  1363  1  0.62881700  0.74612700  0.20206100  1
  C  1364  1  0.64334400  0.73264700  0.19048400  1
  C  1367  1  0.61651700  0.73059000  0.21357000  1
  C  1368  1  0.60253500  0.74438200  0.22497100  1
  C  1369  1  0.60072200  0.77397400  0.22514000  1
  C  1370  1  0.61298800  0.78984400  0.21393500  1
  C  1377  1  0.63961300  0.23314800  0.80328000  1
  C  1378  1  0.62665400  0.24940400  0.79218700  1
  C  1379  1  0.62856500  0.27961500  0.79270200  1
  C  1380  1  0.64317000  0.29254000  0.80442200  1
  C  1383  1  0.61649200  0.29562500  0.78129700  1
  C  1384  1  0.60243100  0.28233600  0.76976500  1
  C  1385  1  0.60029300  0.25277800  0.76935600  1
  C  1386  1  0.61235600  0.23643800  0.78044000  1
  C  1393  1  0.82053600  0.79195500  0.30328000  1
  C  1394  1  0.83349400  0.77569500  0.29218800  1
  C  1395  1  0.83158000  0.74548600  0.29270300  1
  C  1396  1  0.81697300  0.73256300  0.30442300  1
  C  1399  1  0.84365100  0.72947400  0.28129800  1
  C  1400  1  0.85771400  0.74276100  0.26976600  1
  C  1401  1  0.85985200  0.77231800  0.26935700  1
  C  1402  1  0.84779200  0.78866000  0.28043900  1
  C  1409  1  0.51113500  0.60276700  0.55294100  1
  C  1410  1  0.49530800  0.61590400  0.54173500  1
  C  1411  1  0.46497700  0.61422700  0.54197900  1
  C  1412  1  0.45148700  0.59957700  0.55350900  1
  C  1415  1  0.44937300  0.62661800  0.53051200  1
  C  1416  1  0.46318300  0.64074000  0.51916400  1
  C  1417  1  0.49286500  0.64259900  0.51900100  1
  C  1418  1  0.50880600  0.63023100  0.53015800  1
  C  1425  1  0.94901000  0.42232300  0.05294100  1
  C  1426  1  0.96483900  0.40919200  0.04173400  1
  C  1427  1  0.99517000  0.41086900  0.04197900  1
  C  1428  1  0.00865800  0.42551600  0.05351100  1
  C  1431  1  0.01077700  0.39848700  0.03051100  1
  C  1432  1  0.99696700  0.38437100  0.01916000  1
  C  1433  1  0.96728700  0.38251300  0.01899600  1
  C  1434  1  0.95134100  0.39487100  0.03015400  1
  C  1441  1  0.94922600  0.60317500  0.94117200  1
  C  1442  1  0.96553300  0.61630600  0.95220000  1
  C  1443  1  0.99583600  0.61439200  0.95169100  1
  C  1444  1  0.00879100  0.59962500  0.94003500  1
  C  1447  1  0.01189800  0.62662600  0.96303900  1
  C  1448  1  0.99857000  0.64086500  0.97450100  1
  C  1449  1  0.96892000  0.64301300  0.97489900  1
  C  1450  1  0.95252400  0.63077900  0.96387600  1
  C  1457  1  0.51091700  0.42192300  0.44117000  1
  C  1458  1  0.49460800  0.40879900  0.45219900  1
  C  1459  1  0.46430500  0.41071300  0.45168900  1
  C  1460  1  0.45135200  0.42547800  0.44003300  1
  C  1463  1  0.44824200  0.39848300  0.46303800  1
  C  1464  1  0.46156900  0.38424900  0.47450200  1
  C  1465  1  0.49121900  0.38210000  0.47490000  1
  C  1466  1  0.50761400  0.39432800  0.46387700  1
  C  1473  1  0.12062800  0.00220200  0.98215100  1
  C  1474  1  0.10398800  0.02724400  0.98217800  1
  C  1475  1  0.10403900  0.04496800  0.99472200  1
  C  1476  1  0.12067500  0.03708900  0.00687600  1
  C  1479  1  0.08734900  0.06993100  0.99468700  1
  C  1480  1  0.07094700  0.07735800  0.98259800  1
  C  1481  1  0.07083900  0.05995900  0.97032600  1
  C  1482  1  0.08716500  0.03512800  0.97011400  1
  C  1489  1  0.33952000  0.02287800  0.48215200  1
  C  1490  1  0.35616300  0.99784000  0.48218000  1
  C  1491  1  0.35611300  0.98011400  0.49472400  1
  C  1492  1  0.33947300  0.98799300  0.50687700  1
  C  1495  1  0.37280700  0.95515600  0.49469100  1
  C  1496  1  0.38921400  0.94773000  0.48260300  1
  C  1497  1  0.38932000  0.96512700  0.47033000  1
  C  1498  1  0.37299000  0.98995500  0.47011700  1
  C  1505  1  0.24031800  0.90288500  0.23212300  1
  C  1506  1  0.21512700  0.88640600  0.23217900  1
  C  1507  1  0.19747000  0.88643300  0.24476700  1
  C  1508  1  0.20556100  0.90289200  0.25693300  1
  C  1511  1  0.17235900  0.86989800  0.24476300  1
  C  1512  1  0.16471900  0.85368100  0.23265700  1
  C  1513  1  0.18204900  0.85360000  0.22034000  1
  C  1514  1  0.20702800  0.86976700  0.22009900  1
  C  1521  1  0.21982500  0.12221200  0.73212100  1
  C  1522  1  0.24501200  0.13869600  0.73217800  1
  C  1523  1  0.26267200  0.13867100  0.74476500  1
  C  1524  1  0.25458500  0.12220800  0.75693100  1
  C  1527  1  0.28777900  0.15521100  0.74476200  1
  C  1528  1  0.29541300  0.17143300  0.73265800  1
  C  1529  1  0.27808100  0.17151200  0.72034100  1
  C  1530  1  0.25310600  0.15533900  0.72009900  1
  C  1537  1  0.83810300  0.02285900  0.01196700  1
  C  1538  1  0.85384700  0.99726000  0.01207200  1
  C  1539  1  0.85332500  0.97939100  0.99958300  1
  C  1540  1  0.83738400  0.98783600  0.98728000  1
  C  1543  1  0.86890900  0.95373500  0.99982400  1
  C  1544  1  0.88478500  0.94584000  0.01201700  1
  C  1545  1  0.88544200  0.96344200  0.02420600  1
  C  1546  1  0.87012800  0.98891000  0.02424500  1
  C  1553  1  0.62204500  0.00224200  0.51196600  1
  C  1554  1  0.60629800  0.02784100  0.51207100  1
  C  1555  1  0.60682200  0.04570800  0.49958100  1
  C  1556  1  0.62276200  0.03726200  0.48727900  1
  C  1559  1  0.59123900  0.07136500  0.49982300  1
  C  1560  1  0.57536300  0.07926300  0.51201500  1
  C  1561  1  0.57470500  0.06166000  0.52420500  1
  C  1562  1  0.59001900  0.03619300  0.52424300  1
  C  1569  1  0.71955500  0.12194300  0.76190000  1
  C  1570  1  0.74471900  0.13846500  0.76189600  1
  C  1571  1  0.76250000  0.13844100  0.74935200  1
  C  1572  1  0.75456100  0.12194500  0.73717300  1
  C  1575  1  0.78758400  0.15501600  0.74941300  1
  C  1576  1  0.79507900  0.17127200  0.76152900  1
  C  1577  1  0.77762500  0.17135100  0.77380000  1
  C  1578  1  0.75267100  0.15514300  0.77398600  1
  C  1585  1  0.74059000  0.90315400  0.26190000  1
  C  1586  1  0.71543000  0.88662600  0.26189700  1
  C  1587  1  0.69764700  0.88664700  0.24935400  1
  C  1588  1  0.70558200  0.90314800  0.23717500  1
  C  1591  1  0.67256800  0.87006500  0.24941400  1
  C  1592  1  0.66507900  0.85380600  0.26152900  1
  C  1593  1  0.68253000  0.85372700  0.27380000  1
  C  1594  1  0.70748000  0.86994300  0.27398600  1
  C  1601  1  0.62265100  0.50210000  0.48232300  1
  C  1602  1  0.60629200  0.52732300  0.48221400  1
  C  1603  1  0.60631700  0.54516400  0.49471500  1
  C  1604  1  0.62265800  0.53722700  0.50696100  1
  C  1607  1  0.58989600  0.57030300  0.49454600  1
  C  1608  1  0.57379900  0.57779800  0.48236200  1
  C  1609  1  0.57372300  0.56029300  0.47013000  1
  C  1610  1  0.58977100  0.53527900  0.47005300  1
  C  1617  1  0.83749600  0.52298000  0.98232300  1
  C  1618  1  0.85386000  0.49775900  0.98221500  1
  C  1619  1  0.85383700  0.47992000  0.99471600  1
  C  1620  1  0.83749000  0.48785500  0.00696300  1
  C  1623  1  0.87026000  0.45478300  0.99454900  1
  C  1624  1  0.88636100  0.44728800  0.98236600  1
  C  1625  1  0.88643700  0.46479300  0.97013400  1
  C  1626  1  0.87038300  0.48980500  0.97005600  1
  C  1633  1  0.74043300  0.40361000  0.73220900  1
  C  1634  1  0.71481100  0.38782000  0.73212400  1
  C  1635  1  0.69690100  0.38831300  0.74461700  1
  C  1636  1  0.70533000  0.40426600  0.75690700  1
  C  1639  1  0.67121700  0.37268700  0.74439400  1
  C  1640  1  0.66334100  0.35679500  0.73221700  1
  C  1641  1  0.68098800  0.35616700  0.72002300  1
  C  1642  1  0.70647900  0.37152600  0.71996500  1
  C  1649  1  0.71971400  0.62148800  0.23220900  1
  C  1650  1  0.74533000  0.63728700  0.23212300  1
  C  1651  1  0.76324300  0.63679700  0.24461700  1
  C  1652  1  0.75481800  0.62083700  0.25690600  1
  C  1655  1  0.78892000  0.65243100  0.24439500  1
  C  1656  1  0.79679100  0.66832900  0.23221900  1
  C  1657  1  0.77914000  0.66895700  0.22002500  1
  C  1658  1  0.75365500  0.65358700  0.21996600  1
  C  1665  1  0.33998600  0.52308800  0.51199900  1
  C  1666  1  0.35598500  0.49764500  0.51211100  1
  C  1667  1  0.35548300  0.47966200  0.49966400  1
  C  1668  1  0.33932000  0.48784200  0.48738900  1
  C  1671  1  0.37130800  0.45415100  0.49991900  1
  C  1672  1  0.38741700  0.44652200  0.51207600  1
  C  1673  1  0.38806200  0.46424500  0.52422000  1
  C  1674  1  0.37249800  0.48956100  0.52425000  1
  C  1681  1  0.12016100  0.50201300  0.01199900  1
  C  1682  1  0.10416300  0.52745600  0.01211000  1
  C  1683  1  0.10466400  0.54543900  0.99966200  1
  C  1684  1  0.12082500  0.53725800  0.98738700  1
  C  1687  1  0.08884000  0.57095000  0.99991700  1
  C  1688  1  0.07273200  0.57858000  0.01207500  1
  C  1689  1  0.07208800  0.56085700  0.02422000  1
  C  1690  1  0.08765100  0.53554200  0.02424900  1
  C  1697  1  0.22004800  0.62136100  0.26206200  1
  C  1698  1  0.24568500  0.63712000  0.26203800  1
  C  1699  1  0.26337600  0.63661100  0.24946400  1
  C  1700  1  0.25470500  0.62067400  0.23721400  1
  C  1703  1  0.28908100  0.65220700  0.24957300  1
  C  1704  1  0.29718400  0.66809000  0.26171400  1
  C  1705  1  0.27974900  0.66873500  0.27398700  1
  C  1706  1  0.25424300  0.65340100  0.27415900  1
  C  1713  1  0.24009400  0.40373300  0.76206200  1
  C  1714  1  0.21446100  0.38796600  0.76203800  1
  C  1715  1  0.19676900  0.38847300  0.74946500  1
  C  1716  1  0.20543500  0.40441600  0.73721600  1
  C  1719  1  0.17107000  0.37286900  0.74957200  1
  C  1720  1  0.16297300  0.35697900  0.76171300  1
  C  1721  1  0.18041000  0.35633400  0.77398500  1
  C  1722  1  0.20590900  0.37167600  0.77415800  1
  C  1729  1  0.25226200  0.06930600  0.11382800  1
  C  1730  1  0.27953900  0.07900200  0.11812300  1
  C  1731  1  0.29724500  0.06130100  0.12692500  1
  C  1732  1  0.28754300  0.03403700  0.13111800  1
  C  1735  1  0.32425700  0.07147400  0.13121900  1
  C  1736  1  0.33380300  0.09832900  0.12696100  1
  C  1737  1  0.31656600  0.11556200  0.11831100  1
  C  1738  1  0.28970900  0.10600800  0.11394100  1
  C  1745  1  0.20787100  0.95578000  0.61382600  1
  C  1746  1  0.18059100  0.94608500  0.61811900  1
  C  1747  1  0.16288500  0.96378700  0.62692200  1
  C  1748  1  0.17258900  0.99104800  0.63111600  1
  C  1751  1  0.13587200  0.95361400  0.63121300  1
  C  1752  1  0.12632300  0.92676100  0.62695300  1
  C  1753  1  0.14356100  0.90953100  0.61830300  1
  C  1754  1  0.17041900  0.91908200  0.61393400  1
  C  1761  1  0.17340100  0.03462000  0.36384500  1
  C  1762  1  0.16350300  0.06176300  0.36812300  1
  C  1763  1  0.18113300  0.07953500  0.37692800  1
  C  1764  1  0.20853100  0.07003300  0.38114000  1
  C  1767  1  0.17076100  0.10640800  0.38120400  1
  C  1768  1  0.14377500  0.11576000  0.37692600  1
  C  1769  1  0.12661100  0.09845900  0.36827400  1
  C  1770  1  0.13636300  0.07173600  0.36392100  1
  C  1777  1  0.28675200  0.99047700  0.86384400  1
  C  1778  1  0.29665100  0.96333700  0.86812400  1
  C  1779  1  0.27902100  0.94556500  0.87692900  1
  C  1780  1  0.25162100  0.95506300  0.88114000  1
  C  1783  1  0.28939500  0.91869300  0.88120800  1
  C  1784  1  0.31638300  0.90934300  0.87693200  1
  C  1785  1  0.33354700  0.92664300  0.86828000  1
  C  1786  1  0.32379400  0.95336500  0.86392400  1
  C  1793  1  0.70653000  0.95554100  0.88032400  1
  C  1794  1  0.67895400  0.94626900  0.87627400  1
  C  1795  1  0.66136500  0.96409600  0.86748000  1
  C  1796  1  0.67152200  0.99102500  0.86302100  1
  C  1799  1  0.63400700  0.95441200  0.86346100  1
  C  1800  1  0.62405100  0.92785000  0.86795800  1
  C  1801  1  0.64119800  0.91046800  0.87657900  1
  C  1802  1  0.66836200  0.91957700  0.88069900  1
  C  1809  1  0.75362100  0.06956200  0.38032500  1
  C  1810  1  0.78119500  0.07883300  0.37627800  1
  C  1811  1  0.79878700  0.06100600  0.36748300  1
  C  1812  1  0.78862700  0.03407900  0.36302300  1
  C  1815  1  0.82614600  0.07069100  0.36346700  1
  C  1816  1  0.83610200  0.09724900  0.36796500  1
  C  1817  1  0.81895600  0.11463200  0.37658600  1
  C  1818  1  0.79179000  0.10552400  0.38070500  1
  C  1825  1  0.78759000  0.99031400  0.63037500  1
  C  1826  1  0.79729000  0.96295800  0.62633500  1
  C  1827  1  0.77965700  0.94514400  0.61755400  1
  C  1828  1  0.75249300  0.95486600  0.61309300  1
  C  1831  1  0.78976600  0.91800600  0.61355200  1
  C  1832  1  0.81655100  0.90847400  0.61805400  1
  C  1833  1  0.83374400  0.92583700  0.62666100  1
  C  1834  1  0.82421800  0.95279600  0.63076300  1
  C  1841  1  0.67254700  0.03477900  0.13037300  1
  C  1842  1  0.66284700  0.06213400  0.12633200  1
  C  1843  1  0.68048200  0.07994900  0.11755100  1
  C  1844  1  0.70764600  0.07022700  0.11309300  1
  C  1847  1  0.67037100  0.10708500  0.11354800  1
  C  1848  1  0.64358400  0.11661500  0.11804900  1
  C  1849  1  0.62639100  0.09925200  0.12665700  1
  C  1850  1  0.63591600  0.07229500  0.13075900  1
  C  1857  1  0.75357700  0.56998100  0.61391000  1
  C  1858  1  0.78109500  0.57934200  0.61799800  1
  C  1859  1  0.79870000  0.56155900  0.62680800  1
  C  1860  1  0.78859700  0.53459400  0.63124500  1
  C  1863  1  0.82600800  0.57132800  0.63086100  1
  C  1864  1  0.83590300  0.59792100  0.62638000  1
  C  1865  1  0.81874200  0.61526100  0.61774400  1
  C  1866  1  0.79162200  0.60607400  0.61359200  1
  C  1873  1  0.70655600  0.45510500  0.11390800  1
  C  1874  1  0.67903700  0.44574400  0.11799500  1
  C  1875  1  0.66143200  0.46352900  0.12680500  1
  C  1876  1  0.67153500  0.49049200  0.13124400  1
  C  1879  1  0.63412400  0.45376200  0.13085700  1
  C  1880  1  0.62422500  0.42716900  0.12637300  1
  C  1881  1  0.64138600  0.40982900  0.11773700  1
  C  1882  1  0.66850800  0.41901600  0.11358600  1
  C  1889  1  0.67233500  0.53542300  0.86374600  1
  C  1890  1  0.66268800  0.56280500  0.86777400  1
  C  1891  1  0.68030300  0.58053800  0.87660200  1
  C  1892  1  0.70739100  0.57070400  0.88111100  1
  C  1895  1  0.67025400  0.60769800  0.88060400  1
  C  1896  1  0.64353900  0.61732900  0.87605300  1
  C  1897  1  0.62636100  0.60004800  0.86739600  1
  C  1898  1  0.63583400  0.57307200  0.86329300  1
  C  1905  1  0.78781700  0.48967300  0.36374600  1
  C  1906  1  0.79746600  0.46229200  0.36777600  1
  C  1907  1  0.77985200  0.44456000  0.37660400  1
  C  1908  1  0.75276200  0.45439000  0.38111000  1
  C  1911  1  0.78990200  0.41740100  0.38060800  1
  C  1912  1  0.81662100  0.40776900  0.37605800  1
  C  1913  1  0.83379700  0.42505100  0.36740100  1
  C  1914  1  0.82432200  0.45202600  0.36329600  1
  C  1921  1  0.20828100  0.45492500  0.38045800  1
  C  1922  1  0.18084000  0.44543600  0.37630700  1
  C  1923  1  0.16315900  0.46320100  0.36752600  1
  C  1924  1  0.17309000  0.49028900  0.36318600  1
  C  1927  1  0.13594100  0.45329300  0.36340400  1
  C  1928  1  0.12620600  0.42657900  0.36778700  1
  C  1929  1  0.14343700  0.40925800  0.37639600  1
  C  1930  1  0.17046800  0.41858500  0.38061700  1
  C  1937  1  0.25187000  0.57017800  0.88046100  1
  C  1938  1  0.27931200  0.57966700  0.87631000  1
  C  1939  1  0.29699300  0.56190200  0.86753000  1
  C  1940  1  0.28706000  0.53481600  0.86318700  1
  C  1943  1  0.32421000  0.57180800  0.86340800  1
  C  1944  1  0.33394800  0.59852200  0.86779300  1
  C  1945  1  0.31671600  0.61584300  0.87640200  1
  C  1946  1  0.28968400  0.60651600  0.88062300  1
  C  1953  1  0.28629600  0.48926500  0.13023000  1
  C  1954  1  0.29589800  0.46190100  0.12614200  1
  C  1955  1  0.27817500  0.44418400  0.11735900  1
  C  1956  1  0.25101500  0.45400300  0.11295000  1
  C  1959  1  0.28819300  0.41704300  0.11330100  1
  C  1960  1  0.31497700  0.40741600  0.11775000  1
  C  1961  1  0.33225700  0.42468300  0.12636400  1
  C  1962  1  0.32281900  0.45163900  0.13052000  1
  C  1969  1  0.17384200  0.53582900  0.63022800  1
  C  1970  1  0.16424000  0.56319200  0.62613900  1
  C  1971  1  0.18196300  0.58091100  0.61735500  1
  C  1972  1  0.20912400  0.57109100  0.61294800  1
  C  1975  1  0.17194300  0.60804900  0.61329500  1
  C  1976  1  0.14515800  0.61767400  0.61774400  1
  C  1977  1  0.12787700  0.60040800  0.62635700  1
  C  1978  1  0.13731600  0.57345300  0.63051600  1
  C  1985  1  0.13680000  0.10198400  0.21492700  1
  C  1986  1  0.14431300  0.08471800  0.20296800  1
  C  1987  1  0.12380500  0.07188300  0.19382600  1
  C  1988  1  0.09464400  0.07642900  0.19709000  1
  C  1989  1  0.08608300  0.09326200  0.20908800  1
  C  1990  1  0.10743200  0.10575800  0.21792000  1
  C  1993  1  0.15836100  0.11262400  0.22464400  1
  C  1994  1  0.17453400  0.09384900  0.23339700  1
  C  1995  1  0.19508300  0.10375800  0.24352200  1
  C  1996  1  0.19892200  0.13364700  0.24469000  1
  C  1997  1  0.18273000  0.15348700  0.23636300  1
  C  1998  1  0.16261600  0.14211300  0.22647900  1
  C  2007  1  0.18633000  0.18321600  0.23809600  1
  C  2008  1  0.05739200  0.09488700  0.21304300  1
  C  2009  1  0.13248600  0.05358000  0.18265900  1
  C  2010  1  0.20905400  0.08399400  0.25263600  1
  C  2015  1  0.32334900  0.92312000  0.71493400  1
  C  2016  1  0.31583000  0.94037000  0.70297100  1
  C  2017  1  0.33633800  0.95321300  0.69383200  1
  C  2018  1  0.36550000  0.94865400  0.69709200  1
  C  2019  1  0.37405900  0.93183600  0.70909400  1
  C  2020  1  0.35271700  0.91933100  0.71792600  1
  C  2023  1  0.30178800  0.91247200  0.72465000  1
  C  2024  1  0.28560500  0.93124400  0.73339900  1
  C  2025  1  0.26505200  0.92133200  0.74352000  1
  C  2026  1  0.26121700  0.89144200  0.74468800  1
  C  2027  1  0.27741100  0.87160500  0.73636000  1
  C  2028  1  0.29752900  0.88298000  0.72647800  1
  C  2037  1  0.27381200  0.84187600  0.73809200  1
  C  2038  1  0.40275400  0.93019700  0.71304400  1
  C  2039  1  0.32765500  0.97150000  0.68265900  1
  C  2040  1  0.25108100  0.94109100  0.75263700  1
  C  2045  1  0.14097500  0.91900600  0.46510900  1
  C  2046  1  0.15820600  0.92646300  0.45311200  1
  C  2047  1  0.17102600  0.90598700  0.44397000  1
  C  2048  1  0.16649400  0.87692700  0.44726400  1
  C  2049  1  0.14971000  0.86842900  0.45930400  1
  C  2050  1  0.13721300  0.88973800  0.46813500  1
  C  2053  1  0.13029000  0.94055400  0.47479200  1
  C  2054  1  0.14910400  0.95680900  0.48349300  1
  C  2055  1  0.13914000  0.97738700  0.49356600  1
  C  2056  1  0.10914900  0.98114400  0.49474100  1
  C  2057  1  0.08927400  0.96488200  0.48646200  1
  C  2058  1  0.10070500  0.94475700  0.47662500  1
  C  2067  1  0.05945100  0.96840900  0.48820500  1
  C  2068  1  0.14810900  0.83983400  0.46328700  1
  C  2069  1  0.18929600  0.91461800  0.43276200  1
  C  2070  1  0.15894600  0.99145000  0.50264200  1
  C  2075  1  0.31917500  0.10609300  0.96510600  1
  C  2076  1  0.30194300  0.09863500  0.95310900  1
  C  2077  1  0.28912400  0.11910900  0.94396600  1
  C  2078  1  0.29365000  0.14817000  0.94726100  1
  C  2079  1  0.31044400  0.15667000  0.95930000  1
  C  2080  1  0.32293500  0.13536000  0.96813100  1
  C  2083  1  0.32985800  0.08454600  0.97479000  1
  C  2084  1  0.31104500  0.06829000  0.98349000  1
  C  2085  1  0.32100500  0.04771500  0.99356500  1
  C  2086  1  0.35099700  0.04395900  0.99474200  1
  C  2087  1  0.37087300  0.06021700  0.98646100  1
  C  2088  1  0.35944300  0.08034100  0.97662300  1
  C  2097  1  0.40069500  0.05669200  0.98820500  1
  C  2098  1  0.31202900  0.18526600  0.96328100  1
  C  2099  1  0.27084900  0.11048300  0.93276000  1
  C  2100  1  0.30120100  0.03364600  0.00263861  1
  C  2105  1  0.32355700  0.10397300  0.58280600  1
  C  2106  1  0.31600800  0.08939300  0.59565400  1
  C  2107  1  0.33652900  0.07717600  0.60500900  1
  C  2108  1  0.36567400  0.08028900  0.60127300  1
  C  2109  1  0.37418200  0.09432500  0.58836500  1
  C  2110  1  0.35282700  0.10579300  0.57919000  1
  C  2113  1  0.30197900  0.11427100  0.57304600  1
  C  2114  1  0.28592500  0.09523700  0.56440100  1
  C  2115  1  0.26548700  0.10487700  0.55414900  1
  C  2116  1  0.26165200  0.13473900  0.55276600  1
  C  2117  1  0.27774800  0.15480300  0.56100200  1
  C  2118  1  0.29778600  0.14370100  0.57100300  1
  C  2127  1  0.27416200  0.18448600  0.55908000  1
  C  2128  1  0.40277800  0.09482300  0.58416900  1
  C  2129  1  0.32792200  0.06300700  0.61766100  1
  C  2130  1  0.25161900  0.08487900  0.54512700  1
  C  2135  1  0.13658100  0.92113300  0.08279760  1
  C  2136  1  0.14413500  0.93569300  0.09564960  1
  C  2137  1  0.12361400  0.94790600  0.10500800  1
  C  2138  1  0.09446800  0.94479700  0.10127100  1
  C  2139  1  0.08596100  0.93077900  0.08835760  1
  C  2140  1  0.10731300  0.91930400  0.07918160  1
  C  2143  1  0.15815900  0.91082900  0.07303660  1
  C  2144  1  0.17422000  0.92986300  0.06439660  1
  C  2145  1  0.19466400  0.92022200  0.05414760  1
  C  2146  1  0.19849700  0.89036000  0.05276660  1
  C  2147  1  0.18239800  0.87029600  0.06100260  1
  C  2148  1  0.16235500  0.88139900  0.07099960  1
  C  2157  1  0.18598600  0.84061200  0.05908160  1
  C  2158  1  0.05736300  0.93027300  0.08416460  1
  C  2159  1  0.13222300  0.96207000  0.11766000  1
  C  2160  1  0.20853100  0.94021500  0.04512460  1
  C  2165  1  0.32123200  0.91885100  0.33261700  1
  C  2166  1  0.30674500  0.92634500  0.34551100  1
  C  2167  1  0.29454700  0.90586300  0.35487000  1
  C  2168  1  0.29759700  0.87681700  0.35109600  1
  C  2169  1  0.31154700  0.86837200  0.33814500  1
  C  2170  1  0.32300500  0.88968500  0.32896900  1
  C  2173  1  0.33157600  0.94040400  0.32288300  1
  C  2174  1  0.31250000  0.95655600  0.31429900  1
  C  2175  1  0.32219500  0.97700600  0.30408900  1
  C  2176  1  0.35215900  0.98072600  0.30268000  1
  C  2177  1  0.37226000  0.96453800  0.31085900  1
  C  2178  1  0.36110100  0.94451200  0.32082400  1
  C  2187  1  0.40203300  0.96800300  0.30890200  1
  C  2188  1  0.31199500  0.83987600  0.33392400  1
  C  2189  1  0.28047200  0.91440700  0.36756500  1
  C  2190  1  0.30215300  0.99097800  0.29511400  1
  C  2195  1  0.13890700  0.10623700  0.83261800  1
  C  2196  1  0.15339600  0.09874600  0.84551000  1
  C  2197  1  0.16559500  0.11922900  0.85486900  1
  C  2198  1  0.16254200  0.14827300  0.85109500  1
  C  2199  1  0.14858600  0.15671800  0.83814600  1
  C  2200  1  0.13713300  0.13540300  0.82897000  1
  C  2203  1  0.12856400  0.08468400  0.82288400  1
  C  2204  1  0.14764000  0.06853100  0.81430000  1
  C  2205  1  0.13794600  0.04808400  0.80408900  1
  C  2206  1  0.10798100  0.04436700  0.80267800  1
  C  2207  1  0.08788100  0.06054900  0.81086000  1
  C  2208  1  0.09904000  0.08057700  0.82082400  1
  C  2217  1  0.05810700  0.05708600  0.80890200  1
  C  2218  1  0.14814700  0.18521600  0.83392600  1
  C  2219  1  0.17967200  0.11068600  0.86756600  1
  C  2220  1  0.15798600  0.03410600  0.79511500  1
  C  2225  1  0.82148600  0.92214800  0.08218560  1
  C  2226  1  0.81447200  0.94147800  0.09338860  1
  C  2227  1  0.83500000  0.95277500  0.10303900  1
  C  2228  1  0.86377800  0.94450300  0.10107100  1
  C  2229  1  0.87197600  0.92553500  0.08985460  1
  C  2230  1  0.85051300  0.91442800  0.08061460  1
  C  2233  1  0.79993000  0.91176600  0.07233760  1
  C  2234  1  0.78409200  0.93056300  0.06342360  1
  C  2235  1  0.76348600  0.92072500  0.05330360  1
  C  2236  1  0.75934000  0.89086900  0.05221260  1
  C  2237  1  0.77518200  0.87098500  0.06067060  1
  C  2238  1  0.79514100  0.88230200  0.07064360  1
  C  2247  1  0.77140000  0.84126500  0.05900960  1
  C  2248  1  0.90009600  0.91596500  0.08866260  1
  C  2249  1  0.82679500  0.97215800  0.11383800  1
  C  2250  1  0.74973800  0.94046500  0.04409660  1
  C  2255  1  0.63865000  0.10294500  0.58218100  1
  C  2256  1  0.64566900  0.08361900  0.59338600  1
  C  2257  1  0.62513900  0.07232000  0.60303600  1
  C  2258  1  0.59636500  0.08060200  0.60107300  1
  C  2259  1  0.58816700  0.09957800  0.58986100  1
  C  2260  1  0.60962600  0.11067600  0.58061500  1
  C  2263  1  0.66020400  0.11333200  0.57233200  1
  C  2264  1  0.67605100  0.09453500  0.56342300  1
  C  2265  1  0.69666100  0.10437500  0.55330600  1
  C  2266  1  0.70080500  0.13423000  0.55221500  1
  C  2267  1  0.68495900  0.15411400  0.56067300  1
  C  2268  1  0.66499800  0.14279500  0.57064500  1
  C  2277  1  0.68874300  0.18383500  0.55901300  1
  C  2278  1  0.56004400  0.10914100  0.58866600  1
  C  2279  1  0.63334800  0.05294100  0.61383500  1
  C  2280  1  0.71040900  0.08463800  0.54409700  1
  C  2285  1  0.81969800  0.10596600  0.83182600  1
  C  2286  1  0.80237200  0.09846700  0.84378300  1
  C  2287  1  0.78949500  0.11890400  0.85293200  1
  C  2288  1  0.79407600  0.14797800  0.84968200  1
  C  2289  1  0.81095800  0.15652300  0.83768600  1
  C  2290  1  0.82350400  0.13524900  0.82885000  1
  C  2293  1  0.83045400  0.08446200  0.82213100  1
  C  2294  1  0.81169600  0.06816900  0.81341500  1
  C  2295  1  0.82172800  0.04765800  0.80332500  1
  C  2296  1  0.85172600  0.04400900  0.80213600  1
  C  2297  1  0.87154700  0.06031700  0.81042200  1
  C  2298  1  0.86005300  0.08036100  0.82028500  1
  C  2307  1  0.90137300  0.05690800  0.80865200  1
  C  2308  1  0.81261400  0.18513900  0.83374400  1
  C  2309  1  0.77112600  0.11023100  0.86409400  1
  C  2310  1  0.80199000  0.03356000  0.79422900  1
  C  2315  1  0.64044100  0.91912800  0.33182800  1
  C  2316  1  0.65776500  0.92662800  0.34378600  1
  C  2317  1  0.67064200  0.90619200  0.35293500  1
  C  2318  1  0.66606900  0.87711900  0.34968400  1
  C  2319  1  0.64917700  0.86857100  0.33769000  1
  C  2320  1  0.63663700  0.88984600  0.32885400  1
  C  2323  1  0.62968500  0.94063200  0.32213200  1
  C  2324  1  0.64844500  0.95692400  0.31341700  1
  C  2325  1  0.63841500  0.97743100  0.30332500  1
  C  2326  1  0.60841700  0.98107900  0.30213300  1
  C  2327  1  0.58859400  0.96477600  0.31042300  1
  C  2328  1  0.60008600  0.94473200  0.32028500  1
  C  2337  1  0.55876800  0.96818300  0.30865000  1
  C  2338  1  0.64753800  0.83995400  0.33374900  1
  C  2339  1  0.68901500  0.91486100  0.36409600  1
  C  2340  1  0.65815100  0.99153400  0.29423000  1
  C  2345  1  0.63821600  0.92013500  0.71361300  1
  C  2346  1  0.64584700  0.93702700  0.70153700  1
  C  2347  1  0.62554200  0.94755900  0.69155300  1
  C  2348  1  0.59654600  0.94041200  0.69382300  1
  C  2349  1  0.58778800  0.92406100  0.70595800  1
  C  2350  1  0.60894500  0.91398800  0.71568000  1
  C  2353  1  0.65956200  0.91022700  0.72365800  1
  C  2354  1  0.67538000  0.92943600  0.73232800  1
  C  2355  1  0.69578900  0.92002900  0.74265700  1
  C  2356  1  0.69962600  0.89019500  0.74423200  1
  C  2357  1  0.68425700  0.86997000  0.73576200  1
  C  2358  1  0.66430900  0.88085300  0.72566000  1
  C  2367  1  0.68844000  0.84033000  0.73752000  1
  C  2368  1  0.55947000  0.91535400  0.70748200  1
  C  2369  1  0.63440000  0.96289000  0.67932200  1
  C  2370  1  0.70959300  0.94018600  0.75160900  1
  C  2375  1  0.82193400  0.10495600  0.21361800  1
  C  2376  1  0.81430000  0.08806700  0.20154000  1
  C  2377  1  0.83460300  0.07755200  0.19155100  1
  C  2378  1  0.86360200  0.08468800  0.19382200  1
  C  2379  1  0.87235300  0.10105000  0.20595200  1
  C  2380  1  0.85120400  0.11111000  0.21568200  1
  C  2383  1  0.80059000  0.11486500  0.22366400  1
  C  2384  1  0.78476500  0.09565600  0.23233000  1
  C  2385  1  0.76435000  0.10506200  0.24265700  1
  C  2386  1  0.76051500  0.13489700  0.24423300  1
  C  2387  1  0.77588600  0.15512100  0.23576200  1
  C  2388  1  0.79583900  0.14423800  0.22566200  1
  C  2397  1  0.77170600  0.18476100  0.23751900  1
  C  2398  1  0.90067600  0.10974600  0.20748200  1
  C  2399  1  0.82574300  0.06220900  0.17932400  1
  C  2400  1  0.75054600  0.08490800  0.25161000  1
  C  2405  1  0.63819900  0.10597600  0.96395900  1
  C  2406  1  0.65280200  0.09847300  0.95110000  1
  C  2407  1  0.66507900  0.11894600  0.94175900  1
  C  2408  1  0.66198400  0.14799400  0.94551900  1
  C  2409  1  0.64792100  0.15645100  0.95843600  1
  C  2410  1  0.63639600  0.13514500  0.96759400  1
  C  2413  1  0.62788800  0.08445000  0.97372000  1
  C  2414  1  0.64700900  0.06838500  0.98231900  1
  C  2415  1  0.63736500  0.04801900  0.99258300  1
  C  2416  1  0.60739500  0.04453100  0.99415600  1
  C  2417  1  0.58726400  0.06021100  0.98575300  1
  C  2418  1  0.59837200  0.08018900  0.97574500  1
  C  2427  1  0.55750300  0.05628400  0.98752600  1
  C  2428  1  0.64744200  0.18495100  0.96265300  1
  C  2429  1  0.67928100  0.11038800  0.92909900  1
  C  2430  1  0.65744900  0.03396400  0.00149261  1
  C  2435  1  0.82194900  0.91912800  0.46395800  1
  C  2436  1  0.80734300  0.92663000  0.45110000  1
  C  2437  1  0.79506700  0.90615600  0.44176000  1
  C  2438  1  0.79816300  0.87710900  0.44551900  1
  C  2439  1  0.81223200  0.86865100  0.45843500  1
  C  2440  1  0.82375600  0.88996000  0.46759400  1
  C  2443  1  0.83225900  0.94065500  0.47372000  1
  C  2444  1  0.81313800  0.95671800  0.48231800  1
  C  2445  1  0.82278000  0.97708200  0.49258400  1
  C  2446  1  0.85275100  0.98057300  0.49415600  1
  C  2447  1  0.87288100  0.96489500  0.48575300  1
  C  2448  1  0.86177300  0.94491600  0.47574500  1
  C  2457  1  0.90264200  0.96882100  0.48752700  1
  C  2458  1  0.81270300  0.84015100  0.46265000  1
  C  2459  1  0.78086200  0.91471100  0.42909900  1
  C  2460  1  0.80269800  0.99114100  0.50149400  1
  C  2465  1  0.63847400  0.60260900  0.71488900  1
  C  2466  1  0.64603800  0.58523500  0.70297800  1
  C  2467  1  0.62557000  0.57232600  0.69384000  1
  C  2468  1  0.59639500  0.57691000  0.69705600  1
  C  2469  1  0.58778600  0.59382800  0.70901300  1
  C  2470  1  0.60909400  0.60639300  0.71784400  1
  C  2473  1  0.65998400  0.61329700  0.72462300  1
  C  2474  1  0.67607800  0.59455300  0.73342900  1
  C  2475  1  0.69654600  0.60450300  0.74358200  1
  C  2476  1  0.70039400  0.63438800  0.74473400  1
  C  2477  1  0.68426800  0.65419600  0.73635900  1
  C  2478  1  0.66422800  0.64279300  0.72644200  1
  C  2487  1  0.68785200  0.68392300  0.73809500  1
  C  2488  1  0.55908400  0.59544300  0.71294700  1
  C  2489  1  0.63429200  0.55389900  0.68273500  1
  C  2490  1  0.71041600  0.58479900  0.75275600  1
  C  2495  1  0.82167500  0.42249400  0.21489700  1
  C  2496  1  0.81410500  0.43985100  0.20298000  1
  C  2497  1  0.83457500  0.45276800  0.19384600  1
  C  2498  1  0.86374800  0.44817200  0.19705700  1
  C  2499  1  0.87235700  0.43127100  0.20902000  1
  C  2500  1  0.85105600  0.41869500  0.21785000  1
  C  2503  1  0.80016600  0.41179700  0.22462900  1
  C  2504  1  0.78406100  0.43054000  0.23343000  1
  C  2505  1  0.76358800  0.42058700  0.24358000  1
  C  2506  1  0.75974500  0.39070000  0.24473100  1
  C  2507  1  0.77587500  0.37089400  0.23635600  1
  C  2508  1  0.79591700  0.38229900  0.22644100  1
  C  2517  1  0.77228900  0.34116700  0.23809000  1
  C  2518  1  0.90106200  0.42964100  0.21294900  1
  C  2519  1  0.82584900  0.47118100  0.18273400  1
  C  2520  1  0.74971900  0.44028700  0.25275700  1
  C  2525  1  0.63950700  0.42018100  0.96473100  1
  C  2526  1  0.65888300  0.42714600  0.95351500  1
  C  2527  1  0.67019900  0.40666400  0.94387100  1
  C  2528  1  0.66189300  0.37798200  0.94585200  1
  C  2529  1  0.64286500  0.36983300  0.95707200  1
  C  2530  1  0.63174800  0.39124900  0.96631100  1
  C  2533  1  0.62907800  0.44171600  0.97455400  1
  C  2534  1  0.64792100  0.45765100  0.98340800  1
  C  2535  1  0.63803500  0.47829800  0.99347100  1
  C  2536  1  0.60808400  0.48236000  0.99457900  1
  C  2537  1  0.58816100  0.46644000  0.98617600  1
  C  2538  1  0.59951700  0.44646100  0.97624900  1
  C  2547  1  0.55836200  0.47020400  0.98785800  1
  C  2548  1  0.63324400  0.34180000  0.95827400  1
  C  2549  1  0.68962100  0.41483200  0.93306000  1
  C  2550  1  0.65780500  0.49220700  0.00261661  1
  C  2555  1  0.82063800  0.60491800  0.46472900  1
  C  2556  1  0.80126400  0.59795300  0.45351400  1
  C  2557  1  0.78995100  0.61843700  0.44386900  1
  C  2558  1  0.79825200  0.64711900  0.44585300  1
  C  2559  1  0.81727800  0.65526800  0.45707500  1
  C  2560  1  0.82839500  0.63385100  0.46631200  1
  C  2563  1  0.83106900  0.58338200  0.47455200  1
  C  2564  1  0.81222400  0.56744600  0.48340500  1
  C  2565  1  0.82210800  0.54680300  0.49347100  1
  C  2566  1  0.85205900  0.54274300  0.49458000  1
  C  2567  1  0.87198400  0.55865800  0.48617500  1
  C  2568  1  0.86062800  0.57863800  0.47624700  1
  C  2577  1  0.90178300  0.55489500  0.48785700  1
  C  2578  1  0.82689500  0.68330100  0.45827300  1
  C  2579  1  0.77052800  0.61027100  0.43305800  1
  C  2580  1  0.80234000  0.53288800  0.50261600  1
  C  2585  1  0.82174300  0.60457300  0.08318960  1
  C  2586  1  0.81416700  0.58993100  0.09601460  1
  C  2587  1  0.83467100  0.57762100  0.10535000  1
  C  2588  1  0.86382000  0.58070300  0.10161600  1
  C  2589  1  0.87234300  0.59479400  0.08872760  1
  C  2590  1  0.85100900  0.60634500  0.07956760  1
  C  2593  1  0.80021000  0.61479800  0.07338760  1
  C  2594  1  0.78435300  0.59568200  0.06470260  1
  C  2595  1  0.76405300  0.60523100  0.05436160  1
  C  2596  1  0.76038300  0.63508600  0.05280760  1
  C  2597  1  0.77587300  0.65521100  0.06129060  1
  C  2598  1  0.79582200  0.64420800  0.07136860  1
  C  2607  1  0.77179500  0.68486200  0.05952560  1
  C  2608  1  0.90092600  0.59523600  0.08452260  1
  C  2609  1  0.82605300  0.56336300  0.11797300  1
  C  2610  1  0.75023200  0.58516500  0.04537760  1
  C  2615  1  0.63839600  0.42053400  0.58318200  1
  C  2616  1  0.64597600  0.43515500  0.59601300  1
  C  2617  1  0.62547200  0.44746100  0.60534900  1
  C  2618  1  0.59632300  0.44438300  0.60161400  1
  C  2619  1  0.58780000  0.43030900  0.58872100  1
  C  2620  1  0.60913000  0.41875200  0.57956200  1
  C  2623  1  0.65992700  0.41030300  0.57338000  1
  C  2624  1  0.67579400  0.42941900  0.56470000  1
  C  2625  1  0.69609900  0.41986800  0.55436300  1
  C  2626  1  0.69976400  0.39001000  0.55281000  1
  C  2627  1  0.68427200  0.36988800  0.56129200  1
  C  2628  1  0.66432100  0.38089100  0.57136900  1
  C  2637  1  0.68835100  0.34023500  0.55952900  1
  C  2638  1  0.55921500  0.42985900  0.58452000  1
  C  2639  1  0.63409200  0.46171500  0.61797300  1
  C  2640  1  0.70992000  0.43993000  0.54537700  1
  C  2645  1  0.82273600  0.41995900  0.83326000  1
  C  2646  1  0.80578900  0.42751000  0.84534600  1
  C  2647  1  0.79523200  0.40722400  0.85530900  1
  C  2648  1  0.80239500  0.37832600  0.85300300  1
  C  2649  1  0.81881200  0.36965300  0.84086400  1
  C  2650  1  0.82891000  0.39078900  0.83116400  1
  C  2653  1  0.83270500  0.44131000  0.82325800  1
  C  2654  1  0.81346200  0.45722800  0.81464000  1
  C  2655  1  0.82293300  0.47771000  0.80438500  1
  C  2656  1  0.85286300  0.48149500  0.80282300  1
  C  2657  1  0.87311500  0.46606000  0.81125500  1
  C  2658  1  0.86217600  0.44605100  0.82128600  1
  C  2667  1  0.90283300  0.47029100  0.80952600  1
  C  2668  1  0.82754200  0.34141900  0.83930900  1
  C  2669  1  0.77986100  0.41601400  0.86755000  1
  C  2670  1  0.80276400  0.49167600  0.79548800  1
  C  2675  1  0.63741000  0.60512900  0.33326000  1
  C  2676  1  0.65435700  0.59758100  0.34534500  1
  C  2677  1  0.66491500  0.61786800  0.35530800  1
  C  2678  1  0.65774800  0.64676400  0.35300200  1
  C  2679  1  0.64133800  0.65543900  0.34086000  1
  C  2680  1  0.63123500  0.63430000  0.33116200  1
  C  2683  1  0.62743900  0.58377800  0.32325800  1
  C  2684  1  0.64667800  0.56786000  0.31464100  1
  C  2685  1  0.63721000  0.54738000  0.30438500  1
  C  2686  1  0.60727800  0.54359300  0.30282300  1
  C  2687  1  0.58702800  0.55902600  0.31125700  1
  C  2688  1  0.59796700  0.57903700  0.32128700  1
  C  2697  1  0.55730800  0.55479700  0.30952800  1
  C  2698  1  0.63260700  0.68367300  0.33931100  1
  C  2699  1  0.68028400  0.60908300  0.36755000  1
  C  2700  1  0.65737500  0.53341000  0.29548800  1
  C  2705  1  0.32335100  0.42175600  0.58236600  1
  C  2706  1  0.31632600  0.44109500  0.59356600  1
  C  2707  1  0.33684100  0.45241300  0.60322100  1
  C  2708  1  0.36561900  0.44412700  0.60126400  1
  C  2709  1  0.37383200  0.42514800  0.59005500  1
  C  2710  1  0.35238200  0.41404300  0.58080600  1
  C  2713  1  0.30181200  0.41136400  0.57250300  1
  C  2714  1  0.28592300  0.43016300  0.56361200  1
  C  2715  1  0.26534500  0.42032500  0.55347500  1
  C  2716  1  0.26129100  0.39046500  0.55233900  1
  C  2717  1  0.27718600  0.37057700  0.56076900  1
  C  2718  1  0.29710300  0.38189500  0.57076500  1
  C  2727  1  0.27347500  0.34085400  0.55906200  1
  C  2728  1  0.40195300  0.41557000  0.58886900  1
  C  2729  1  0.32861700  0.47183800  0.61400400  1
  C  2730  1  0.25150700  0.44008200  0.54430500  1
  C  2735  1  0.13678500  0.60333800  0.08236060  1
  C  2736  1  0.14381200  0.58400400  0.09356160  1
  C  2737  1  0.12329900  0.57268300  0.10321800  1
  C  2738  1  0.09452200  0.58097800  0.10126600  1
  C  2739  1  0.08631200  0.59996600  0.09006060  1
  C  2740  1  0.10775600  0.61106200  0.08080560  1
  C  2743  1  0.15832200  0.61373500  0.07249760  1
  C  2744  1  0.17422000  0.59493500  0.06361060  1
  C  2745  1  0.19480300  0.60477400  0.05347660  1
  C  2746  1  0.19885300  0.63463600  0.05234160  1
  C  2747  1  0.18295500  0.65452400  0.06077060  1
  C  2748  1  0.16303700  0.64320300  0.07076460  1
  C  2757  1  0.18667000  0.68424600  0.05906460  1
  C  2758  1  0.05818700  0.60953800  0.08887160  1
  C  2759  1  0.13152700  0.55326200  0.11400200  1
  C  2760  1  0.20864000  0.58502100  0.04430460  1
  C  2765  1  0.31948000  0.60463400  0.33185200  1
  C  2766  1  0.30023800  0.59771800  0.34312900  1
  C  2767  1  0.28910200  0.61824300  0.35280200  1
  C  2768  1  0.29743000  0.64690800  0.35078000  1
  C  2769  1  0.31632800  0.65500200  0.33949500  1
  C  2770  1  0.32728500  0.63354700  0.33023200  1
  C  2773  1  0.32983700  0.58304200  0.32204800  1
  C  2774  1  0.31096800  0.56708000  0.31322100  1
  C  2775  1  0.32082500  0.54636900  0.30318200  1
  C  2776  1  0.35077800  0.54226500  0.30208700  1
  C  2777  1  0.37072000  0.55820200  0.31047400  1
  C  2778  1  0.35938100  0.57824400  0.32036900  1
  C  2787  1  0.40052700  0.55443400  0.30882900  1
  C  2788  1  0.32600200  0.68300900  0.33825900  1
  C  2789  1  0.26985600  0.61012500  0.36369600  1
  C  2790  1  0.30101200  0.53246300  0.29404900  1
  C  2795  1  0.14066000  0.42046000  0.83185200  1
  C  2796  1  0.15990200  0.42737600  0.84313000  1
  C  2797  1  0.17103700  0.40685000  0.85280300  1
  C  2798  1  0.16271400  0.37818500  0.85077900  1
  C  2799  1  0.14381600  0.37009100  0.83949200  1
  C  2800  1  0.13285800  0.39154800  0.83023200  1
  C  2803  1  0.13030500  0.44205300  0.82205000  1
  C  2804  1  0.14917300  0.45801400  0.81322100  1
  C  2805  1  0.13931900  0.47872300  0.80318100  1
  C  2806  1  0.10936500  0.48282500  0.80208500  1
  C  2807  1  0.08942200  0.46689500  0.81047400  1
  C  2808  1  0.10076000  0.44685000  0.82037000  1
  C  2817  1  0.05961600  0.47066100  0.80882800  1
  C  2818  1  0.13414600  0.34208100  0.83825900  1
  C  2819  1  0.19028200  0.41496500  0.86369700  1
  C  2820  1  0.15912900  0.49263400  0.79405000  1
  C  2825  1  0.13652800  0.41957000  0.21353100  1
  C  2826  1  0.14413800  0.43656600  0.20148600  1
  C  2827  1  0.12382300  0.44717600  0.19152600  1
  C  2828  1  0.09483100  0.43999300  0.19379000  1
  C  2829  1  0.08609000  0.42354700  0.20589300  1
  C  2830  1  0.10726000  0.41340900  0.21559200  1
  C  2833  1  0.15788300  0.40960700  0.22356200  1
  C  2834  1  0.17373500  0.42878500  0.23223600  1
  C  2835  1  0.19415600  0.41934200  0.24255100  1
  C  2836  1  0.19796300  0.38950300  0.24411400  1
  C  2837  1  0.18256200  0.36930400  0.23564300  1
  C  2838  1  0.16260600  0.38022300  0.22555300  1
  C  2847  1  0.18676200  0.33966200  0.23738400  1
  C  2848  1  0.05777300  0.41482500  0.20741300  1
  C  2849  1  0.13266800  0.46262400  0.17932600  1
  C  2850  1  0.20801800  0.43946500  0.25149800  1
  C  2855  1  0.32362200  0.60552000  0.71353400  1
  C  2856  1  0.31601000  0.58852900  0.70148800  1
  C  2857  1  0.33632300  0.57793600  0.69152300  1
  C  2858  1  0.36531600  0.58510800  0.69378800  1
  C  2859  1  0.37405200  0.60156400  0.70588800  1
  C  2860  1  0.35288900  0.61169000  0.71559300  1
  C  2863  1  0.30226800  0.61548500  0.72356700  1
  C  2864  1  0.28641100  0.59630800  0.73223700  1
  C  2865  1  0.26598300  0.60575100  0.74254900  1
  C  2866  1  0.26218000  0.63558900  0.74411300  1
  C  2867  1  0.27758300  0.65578800  0.73564200  1
  C  2868  1  0.29754000  0.64487000  0.72555300  1
  C  2877  1  0.27338100  0.68543000  0.73738200  1
  C  2878  1  0.40237500  0.61027300  0.70741200  1
  C  2879  1  0.32747400  0.56247500  0.67932700  1
  C  2880  1  0.25212200  0.58563000  0.75149900  1
  C  2885  1  0.13855900  0.60500000  0.46401800  1
  C  2886  1  0.15534400  0.59745600  0.45187700  1
  C  2887  1  0.16569400  0.61775000  0.44186500  1
  C  2888  1  0.15849700  0.64663500  0.44417800  1
  C  2889  1  0.14224000  0.65529800  0.45637400  1
  C  2890  1  0.13233300  0.63415600  0.46612300  1
  C  2893  1  0.12866400  0.58362800  0.47401800  1
  C  2894  1  0.14792600  0.56771200  0.48262400  1
  C  2895  1  0.13847700  0.54718300  0.49286000  1
  C  2896  1  0.10854600  0.54334600  0.49440900  1
  C  2897  1  0.08828200  0.55878700  0.48598500  1
  C  2898  1  0.09920500  0.57883800  0.47597400  1
  C  2907  1  0.05855600  0.55457500  0.48768700  1
  C  2908  1  0.13344900  0.68350600  0.45794000  1
  C  2909  1  0.18087600  0.60896700  0.42956800  1
  C  2910  1  0.15867100  0.53325600  0.50176000  1
  C  2915  1  0.32158400  0.42010500  0.96401800  1
  C  2916  1  0.30479800  0.42764700  0.95187700  1
  C  2917  1  0.29444700  0.40735300  0.94186600  1
  C  2918  1  0.30164600  0.37846600  0.94418000  1
  C  2919  1  0.31790000  0.36980500  0.95637800  1
  C  2920  1  0.32780900  0.39094700  0.96612400  1
  C  2923  1  0.33148100  0.44147700  0.97401700  1
  C  2924  1  0.31222000  0.45739300  0.98262300  1
  C  2925  1  0.32166700  0.47791700  0.99286000  1
  C  2926  1  0.35159900  0.48175700  0.99440900  1
  C  2927  1  0.37186100  0.46631800  0.98598400  1
  C  2928  1  0.36094000  0.44626400  0.97597300  1
  C  2937  1  0.40158800  0.47052700  0.98768700  1
  C  2938  1  0.32668900  0.34159200  0.95793800  1
  C  2939  1  0.27926700  0.41612800  0.92956700  1
  C  2940  1  0.30147700  0.49185100  0.00176061  1
  C  2945  1  0.17229900  0.23120700  0.23077800  1
  C  2946  1  0.15359500  0.24604800  0.22139500  1
  C  2947  1  0.15354300  0.27640700  0.22134400  1
  C  2948  1  0.17223700  0.29143200  0.23065700  1
  C  2951  1  0.13471800  0.29081300  0.21191600  1
  C  2952  1  0.11635200  0.27585700  0.20273100  1
  C  2953  1  0.11640700  0.24621700  0.20278100  1
  C  2954  1  0.13482500  0.23145000  0.21201700  1
  C  2961  1  0.28784700  0.79388500  0.73077500  1
  C  2962  1  0.30655200  0.77904400  0.72139200  1
  C  2963  1  0.30660300  0.74868300  0.72134200  1
  C  2964  1  0.28790800  0.73366000  0.73065500  1
  C  2967  1  0.32543000  0.73428000  0.71191500  1
  C  2968  1  0.34379600  0.74923100  0.70273100  1
  C  2969  1  0.34374100  0.77887300  0.70277900  1
  C  2970  1  0.32532100  0.79364000  0.71201400  1
  C  2977  1  0.01134500  0.95449400  0.48081900  1
  C  2978  1  0.99647000  0.93597200  0.47136900  1
  C  2979  1  0.96601900  0.93592700  0.47130800  1
  C  2980  1  0.95094200  0.95444100  0.48068200  1
  C  2983  1  0.95157400  0.91729100  0.46181200  1
  C  2984  1  0.96658100  0.89909400  0.45257300  1
  C  2985  1  0.99631500  0.89913900  0.45263400  1
  C  2986  1  0.01112200  0.91737800  0.46193500  1
  C  2993  1  0.44880000  0.07060500  0.98081900  1
  C  2994  1  0.46367500  0.08912800  0.97136800  1
  C  2995  1  0.49412900  0.08917400  0.97130700  1
  C  2996  1  0.50920500  0.07066300  0.98068100  1
  C  2999  1  0.50857100  0.10781200  0.96181200  1
  C  3000  1  0.49356300  0.12600700  0.95257100  1
  C  3001  1  0.46382800  0.12596000  0.95263100  1
  C  3002  1  0.44902300  0.10772000  0.96193300  1
  C  3009  1  0.28796100  0.23262400  0.56627400  1
  C  3010  1  0.30646700  0.24764000  0.57568700  1
  C  3011  1  0.30641400  0.27799900  0.57564300  1
  C  3012  1  0.28783200  0.29284700  0.56619900  1
  C  3015  1  0.32503900  0.29258700  0.58510000  1
  C  3016  1  0.34331400  0.27780900  0.59440400  1
  C  3017  1  0.34336100  0.24816900  0.59445000  1
  C  3018  1  0.32513500  0.23322400  0.58518900  1
  C  3025  1  0.17218100  0.79247500  0.06627460  1
  C  3026  1  0.15367400  0.77746000  0.07568760  1
  C  3027  1  0.15372600  0.74709900  0.07564360  1
  C  3028  1  0.17230900  0.73225200  0.06620160  1
  C  3031  1  0.13510000  0.73251400  0.08509960  1
  C  3032  1  0.11682300  0.74729200  0.09440460  1
  C  3033  1  0.11677700  0.77693400  0.09444960  1
  C  3034  1  0.13500400  0.79187600  0.08518860  1
  C  3041  1  0.45028300  0.95429500  0.31615700  1
  C  3042  1  0.46532500  0.93603900  0.32567600  1
  C  3043  1  0.49577900  0.93605000  0.32562300  1
  C  3044  1  0.51068100  0.95432100  0.31605700  1
  C  3047  1  0.51039900  0.91768600  0.33518600  1
  C  3048  1  0.49556300  0.89969300  0.34459900  1
  C  3049  1  0.46582800  0.89968000  0.34465000  1
  C  3050  1  0.45085100  0.91766100  0.33528900  1
  C  3057  1  0.00985800  0.07079400  0.81615800  1
  C  3058  1  0.99481600  0.08905100  0.82567500  1
  C  3059  1  0.96436400  0.08904100  0.82562300  1
  C  3060  1  0.94946000  0.07077100  0.81605700  1
  C  3063  1  0.94974400  0.10740800  0.83518600  1
  C  3064  1  0.96458000  0.12540200  0.84459800  1
  C  3065  1  0.99431500  0.12541300  0.84464900  1
  C  3066  1  0.00929200  0.10742900  0.83528900  1
  C  3073  1  0.78576400  0.79329100  0.06622460  1
  C  3074  1  0.80441800  0.77852800  0.07566560  1
  C  3075  1  0.80455400  0.74816900  0.07573660  1
  C  3076  1  0.78602300  0.73307500  0.06637060  1
  C  3079  1  0.82329800  0.73383800  0.08523260  1
  C  3080  1  0.84151100  0.74886100  0.09446660  1
  C  3081  1  0.84138400  0.77850300  0.09439560  1
  C  3082  1  0.82304100  0.79319800  0.08509060  1
  C  3089  1  0.67437700  0.23180800  0.56622700  1
  C  3090  1  0.65572100  0.24657100  0.57566800  1
  C  3091  1  0.65558700  0.27692900  0.57573900  1
  C  3092  1  0.67412100  0.29202400  0.56637300  1
  C  3095  1  0.63684100  0.29126300  0.58523400  1
  C  3096  1  0.61862800  0.27624000  0.59446800  1
  C  3097  1  0.61875500  0.24659800  0.59439700  1
  C  3098  1  0.63709800  0.23190300  0.58509300  1
  C  3105  1  0.67402900  0.79212600  0.73066700  1
  C  3106  1  0.65552300  0.77716400  0.72123000  1
  C  3107  1  0.65553000  0.74680600  0.72125300  1
  C  3108  1  0.67400200  0.73190900  0.73073100  1
  C  3111  1  0.63694900  0.73226700  0.71175500  1
  C  3112  1  0.61876100  0.74709100  0.70242600  1
  C  3113  1  0.61875100  0.77673300  0.70240200  1
  C  3114  1  0.63693200  0.79162700  0.71170600  1
  C  3121  1  0.78611400  0.23296400  0.23066500  1
  C  3122  1  0.80462200  0.24792600  0.22122800  1
  C  3123  1  0.80461800  0.27828500  0.22125200  1
  C  3124  1  0.78614300  0.29318100  0.23072800  1
  C  3127  1  0.82319800  0.29282100  0.21175300  1
  C  3128  1  0.84138800  0.27799700  0.20242500  1
  C  3129  1  0.84139700  0.24835500  0.20240200  1
  C  3130  1  0.82321500  0.23346100  0.21170600  1
  C  3137  1  0.51023000  0.45600600  0.98074400  1
  C  3138  1  0.49523200  0.43737800  0.97140000  1
  C  3139  1  0.46478400  0.43738800  0.97142700  1
  C  3140  1  0.44985800  0.45604400  0.98078800  1
  C  3143  1  0.45020200  0.41866300  0.96203100  1
  C  3144  1  0.46507500  0.40033500  0.95280200  1
  C  3145  1  0.49481000  0.40032700  0.95277800  1
  C  3146  1  0.50975000  0.41864600  0.96198300  1
  C  3153  1  0.94991600  0.56909300  0.48074400  1
  C  3154  1  0.96491100  0.58772100  0.47139900  1
  C  3155  1  0.99536100  0.58771300  0.47142600  1
  C  3156  1  0.01028700  0.56905700  0.48078800  1
  C  3159  1  0.00994100  0.60643800  0.46203000  1
  C  3160  1  0.99506800  0.62476400  0.45280000  1
  C  3161  1  0.96533300  0.62477200  0.45277600  1
  C  3162  1  0.95039500  0.60645300  0.46198100  1
  C  3169  1  0.95118800  0.45595500  0.81625600  1
  C  3170  1  0.96635600  0.43736500  0.82555000  1
  C  3171  1  0.99680500  0.43753000  0.82546300  1
  C  3172  1  0.01156200  0.45626400  0.81607300  1
  C  3175  1  0.01155900  0.41886000  0.83481700  1
  C  3176  1  0.99685800  0.40043900  0.84406700  1
  C  3177  1  0.96712400  0.40028000  0.84415400  1
  C  3178  1  0.95201500  0.41854000  0.83499000  1
  C  3185  1  0.50895300  0.56913700  0.31625700  1
  C  3186  1  0.49378700  0.58772700  0.32555100  1
  C  3187  1  0.46333800  0.58756500  0.32546400  1
  C  3188  1  0.44858200  0.56883100  0.31607400  1
  C  3191  1  0.44858400  0.60623700  0.33481500  1
  C  3192  1  0.46328700  0.62465800  0.34406600  1
  C  3193  1  0.49302200  0.62481400  0.34415400  1
  C  3194  1  0.50813000  0.60655200  0.33499000  1
  C  3201  1  0.00942600  0.10220500  0.20439000  1
  C  3202  1  0.99361500  0.11521800  0.19314000  1
  C  3203  1  0.96328400  0.11355100  0.19337900  1
  C  3204  1  0.94977800  0.09902400  0.20494400  1
  C  3207  1  0.94769500  0.12582400  0.18187400  1
  C  3208  1  0.96152200  0.13981100  0.17048700  1
  C  3209  1  0.99120400  0.14165100  0.17032500  1
  C  3210  1  0.00713100  0.12940800  0.18152400  1
  C  3217  1  0.45072000  0.92288600  0.70439000  1
  C  3218  1  0.46653000  0.90988000  0.69313800  1
  C  3219  1  0.49686100  0.91154800  0.69337800  1
  C  3220  1  0.51036500  0.92607000  0.70494600  1
  C  3223  1  0.51245300  0.89928000  0.68187300  1
  C  3224  1  0.49862500  0.88530000  0.67048300  1
  C  3225  1  0.46894400  0.88346000  0.67031900  1
  C  3226  1  0.45301500  0.89569600  0.68151900  1
  C  3233  1  0.14079800  0.79195900  0.45469900  1
  C  3234  1  0.12769600  0.77613500  0.44348600  1
  C  3235  1  0.12938600  0.74590100  0.44376200  1
  C  3236  1  0.14403500  0.73249500  0.45532000  1
  C  3239  1  0.11701200  0.73029600  0.43229700  1
  C  3240  1  0.10291800  0.74401700  0.42091000  1
  C  3241  1  0.10106400  0.77360600  0.42071000  1
  C  3242  1  0.11339600  0.78954400  0.43187100  1
  C  3249  1  0.31934900  0.23314000  0.95469700  1
  C  3250  1  0.33245200  0.24896800  0.94348700  1
  C  3251  1  0.33075800  0.27920200  0.94376200  1
  C  3252  1  0.31610500  0.29260600  0.95532100  1
  C  3255  1  0.34313400  0.29481100  0.93229900  1
  C  3256  1  0.35723200  0.28109300  0.92091300  1
  C  3257  1  0.35909000  0.25150600  0.92071200  1
  C  3258  1  0.34675900  0.23556300  0.93187200  1
  C  3265  1  0.45108000  0.10268700  0.59222500  1
  C  3266  1  0.46734400  0.11560300  0.60333400  1
  C  3267  1  0.49765200  0.11371400  0.60284100  1
  C  3268  1  0.51065200  0.09917400  0.59112500  1
  C  3271  1  0.51367400  0.12574100  0.61426100  1
  C  3272  1  0.50030500  0.13973900  0.62578800  1
  C  3273  1  0.47065300  0.14185500  0.62617600  1
  C  3274  1  0.45429800  0.12983500  0.61507600  1
  C  3281  1  0.00906300  0.92241200  0.09222160  1
  C  3282  1  0.99279700  0.90950100  0.10333200  1
  C  3283  1  0.96248900  0.91139200  0.10283800  1
  C  3284  1  0.94949100  0.92592800  0.09112060  1
  C  3287  1  0.94646700  0.89936900  0.11426000  1
  C  3288  1  0.95983400  0.88537400  0.12578800  1
  C  3289  1  0.98948600  0.88325700  0.12617600  1
  C  3290  1  0.00584300  0.89527400  0.11507600  1
  C  3297  1  0.31984500  0.79167300  0.34192300  1
  C  3298  1  0.33286800  0.77539900  0.35299000  1
  C  3299  1  0.33091900  0.74519200  0.35247600  1
  C  3300  1  0.31620300  0.73228800  0.34078600  1
  C  3303  1  0.34306600  0.72916300  0.36385400  1
  C  3304  1  0.35722800  0.74243100  0.37535900  1
  C  3305  1  0.35939600  0.77198800  0.37576900  1
  C  3306  1  0.34726800  0.78834500  0.36471000  1
  C  3313  1  0.14029500  0.23341900  0.84192200  1
  C  3314  1  0.12727200  0.24969400  0.85298900  1
  C  3315  1  0.12922300  0.27990200  0.85247400  1
  C  3316  1  0.14394100  0.29280200  0.84078400  1
  C  3319  1  0.11707900  0.29593200  0.86385200  1
  C  3320  1  0.10291700  0.28266600  0.87535800  1
  C  3321  1  0.10074600  0.25310800  0.87576800  1
  C  3322  1  0.11287200  0.23674900  0.86471000  1
  C  3329  1  0.81993000  0.23296900  0.84240300  1
  C  3330  1  0.83296500  0.24872300  0.85366100  1
  C  3331  1  0.83132800  0.27896300  0.85341700  1
  C  3332  1  0.81680300  0.29244500  0.84184200  1
  C  3335  1  0.84362600  0.29449600  0.86492900  1
  C  3336  1  0.85760600  0.28070100  0.87632900  1
  C  3337  1  0.85941500  0.25111000  0.87649700  1
  C  3338  1  0.84714900  0.23524200  0.86529100  1
  C  3345  1  0.64021400  0.79212400  0.34240500  1
  C  3346  1  0.62717600  0.77636500  0.35366100  1
  C  3347  1  0.62881700  0.74612700  0.35341700  1
  C  3348  1  0.64334400  0.73264700  0.34184000  1
  C  3351  1  0.61651700  0.73059000  0.36492600  1
  C  3352  1  0.60253500  0.74438200  0.37632700  1
  C  3353  1  0.60072200  0.77397400  0.37649600  1
  C  3354  1  0.61298800  0.78984400  0.36529100  1
  C  3361  1  0.63961300  0.23314800  0.95463600  1
  C  3362  1  0.62665400  0.24940400  0.94354300  1
  C  3363  1  0.62856500  0.27961500  0.94405800  1
  C  3364  1  0.64317000  0.29254000  0.95577800  1
  C  3367  1  0.61649200  0.29562500  0.93265300  1
  C  3368  1  0.60243100  0.28233600  0.92112100  1
  C  3369  1  0.60029300  0.25277800  0.92071200  1
  C  3370  1  0.61235600  0.23643800  0.93179600  1
  C  3377  1  0.82053600  0.79195500  0.45463600  1
  C  3378  1  0.83349400  0.77569500  0.44354400  1
  C  3379  1  0.83158000  0.74548600  0.44405900  1
  C  3380  1  0.81697300  0.73256300  0.45577900  1
  C  3383  1  0.84365100  0.72947400  0.43265400  1
  C  3384  1  0.85771400  0.74276100  0.42112200  1
  C  3385  1  0.85985200  0.77231800  0.42071300  1
  C  3386  1  0.84779200  0.78866000  0.43179500  1
  C  3393  1  0.51113500  0.60276700  0.70429700  1
  C  3394  1  0.49530800  0.61590400  0.69309100  1
  C  3395  1  0.46497700  0.61422700  0.69333500  1
  C  3396  1  0.45148700  0.59957700  0.70486500  1
  C  3399  1  0.44937300  0.62661800  0.68186800  1
  C  3400  1  0.46318300  0.64074000  0.67052000  1
  C  3401  1  0.49286500  0.64259900  0.67035700  1
  C  3402  1  0.50880600  0.63023100  0.68151400  1
  C  3409  1  0.94901000  0.42232300  0.20429700  1
  C  3410  1  0.96483900  0.40919200  0.19309000  1
  C  3411  1  0.99517000  0.41086900  0.19333500  1
  C  3412  1  0.00865800  0.42551600  0.20486700  1
  C  3415  1  0.01077700  0.39848700  0.18186700  1
  C  3416  1  0.99696700  0.38437100  0.17051600  1
  C  3417  1  0.96728700  0.38251300  0.17035200  1
  C  3418  1  0.95134100  0.39487100  0.18151000  1
  C  3425  1  0.94922600  0.60317500  0.09252760  1
  C  3426  1  0.96553300  0.61630600  0.10355600  1
  C  3427  1  0.99583600  0.61439200  0.10304700  1
  C  3428  1  0.00879100  0.59962500  0.09139060  1
  C  3431  1  0.01189800  0.62662600  0.11439500  1
  C  3432  1  0.99857000  0.64086500  0.12585700  1
  C  3433  1  0.96892000  0.64301300  0.12625500  1
  C  3434  1  0.95252400  0.63077900  0.11523200  1
  C  3441  1  0.51091700  0.42192300  0.59252600  1
  C  3442  1  0.49460800  0.40879900  0.60355500  1
  C  3443  1  0.46430500  0.41071300  0.60304500  1
  C  3444  1  0.45135200  0.42547800  0.59138900  1
  C  3447  1  0.44824200  0.39848300  0.61439400  1
  C  3448  1  0.46156900  0.38424900  0.62585800  1
  C  3449  1  0.49121900  0.38210000  0.62625600  1
  C  3450  1  0.50761400  0.39432800  0.61523300  1
  C  3457  1  0.12062800  0.00220200  0.13350700  1
  C  3458  1  0.10398800  0.02724400  0.13353400  1
  C  3459  1  0.10403900  0.04496800  0.14607800  1
  C  3460  1  0.12067500  0.03708900  0.15823200  1
  C  3463  1  0.08734900  0.06993100  0.14604300  1
  C  3464  1  0.07094700  0.07735800  0.13395400  1
  C  3465  1  0.07083900  0.05995900  0.12168200  1
  C  3466  1  0.08716500  0.03512800  0.12147000  1
  C  3473  1  0.33952000  0.02287800  0.63350800  1
  C  3474  1  0.35616300  0.99784000  0.63353600  1
  C  3475  1  0.35611300  0.98011400  0.64608000  1
  C  3476  1  0.33947300  0.98799300  0.65823300  1
  C  3479  1  0.37280700  0.95515600  0.64604700  1
  C  3480  1  0.38921400  0.94773000  0.63395900  1
  C  3481  1  0.38932000  0.96512700  0.62168600  1
  C  3482  1  0.37299000  0.98995500  0.62147300  1
  C  3489  1  0.24031800  0.90288500  0.38347900  1
  C  3490  1  0.21512700  0.88640600  0.38353500  1
  C  3491  1  0.19747000  0.88643300  0.39612300  1
  C  3492  1  0.20556100  0.90289200  0.40828900  1
  C  3495  1  0.17235900  0.86989800  0.39611900  1
  C  3496  1  0.16471900  0.85368100  0.38401300  1
  C  3497  1  0.18204900  0.85360000  0.37169600  1
  C  3498  1  0.20702800  0.86976700  0.37145500  1
  C  3505  1  0.21982500  0.12221200  0.88347700  1
  C  3506  1  0.24501200  0.13869600  0.88353400  1
  C  3507  1  0.26267200  0.13867100  0.89612100  1
  C  3508  1  0.25458500  0.12220800  0.90828700  1
  C  3511  1  0.28777900  0.15521100  0.89611800  1
  C  3512  1  0.29541300  0.17143300  0.88401400  1
  C  3513  1  0.27808100  0.17151200  0.87169700  1
  C  3514  1  0.25310600  0.15533900  0.87145500  1
  C  3521  1  0.83810300  0.02285900  0.16332300  1
  C  3522  1  0.85384700  0.99726000  0.16342800  1
  C  3523  1  0.85332500  0.97939100  0.15093900  1
  C  3524  1  0.83738400  0.98783600  0.13863600  1
  C  3527  1  0.86890900  0.95373500  0.15118000  1
  C  3528  1  0.88478500  0.94584000  0.16337300  1
  C  3529  1  0.88544200  0.96344200  0.17556200  1
  C  3530  1  0.87012800  0.98891000  0.17560100  1
  C  3537  1  0.62204500  0.00224200  0.66332200  1
  C  3538  1  0.60629800  0.02784100  0.66342700  1
  C  3539  1  0.60682200  0.04570800  0.65093700  1
  C  3540  1  0.62276200  0.03726200  0.63863500  1
  C  3543  1  0.59123900  0.07136500  0.65117900  1
  C  3544  1  0.57536300  0.07926300  0.66337100  1
  C  3545  1  0.57470500  0.06166000  0.67556100  1
  C  3546  1  0.59001900  0.03619300  0.67559900  1
  C  3553  1  0.71955500  0.12194300  0.91325600  1
  C  3554  1  0.74471900  0.13846500  0.91325200  1
  C  3555  1  0.76250000  0.13844100  0.90070800  1
  C  3556  1  0.75456100  0.12194500  0.88852900  1
  C  3559  1  0.78758400  0.15501600  0.90076900  1
  C  3560  1  0.79507900  0.17127200  0.91288500  1
  C  3561  1  0.77762500  0.17135100  0.92515600  1
  C  3562  1  0.75267100  0.15514300  0.92534200  1
  C  3569  1  0.74059000  0.90315400  0.41325600  1
  C  3570  1  0.71543000  0.88662600  0.41325300  1
  C  3571  1  0.69764700  0.88664700  0.40071000  1
  C  3572  1  0.70558200  0.90314800  0.38853100  1
  C  3575  1  0.67256800  0.87006500  0.40077000  1
  C  3576  1  0.66507900  0.85380600  0.41288500  1
  C  3577  1  0.68253000  0.85372700  0.42515600  1
  C  3578  1  0.70748000  0.86994300  0.42534200  1
  C  3585  1  0.62265100  0.50210000  0.63367900  1
  C  3586  1  0.60629200  0.52732300  0.63357000  1
  C  3587  1  0.60631700  0.54516400  0.64607100  1
  C  3588  1  0.62265800  0.53722700  0.65831700  1
  C  3591  1  0.58989600  0.57030300  0.64590200  1
  C  3592  1  0.57379900  0.57779800  0.63371800  1
  C  3593  1  0.57372300  0.56029300  0.62148600  1
  C  3594  1  0.58977100  0.53527900  0.62140900  1
  C  3601  1  0.83749600  0.52298000  0.13367900  1
  C  3602  1  0.85386000  0.49775900  0.13357100  1
  C  3603  1  0.85383700  0.47992000  0.14607200  1
  C  3604  1  0.83749000  0.48785500  0.15831900  1
  C  3607  1  0.87026000  0.45478300  0.14590500  1
  C  3608  1  0.88636100  0.44728800  0.13372200  1
  C  3609  1  0.88643700  0.46479300  0.12149000  1
  C  3610  1  0.87038300  0.48980500  0.12141200  1
  C  3617  1  0.74043300  0.40361000  0.88356500  1
  C  3618  1  0.71481100  0.38782000  0.88348000  1
  C  3619  1  0.69690100  0.38831300  0.89597300  1
  C  3620  1  0.70533000  0.40426600  0.90826300  1
  C  3623  1  0.67121700  0.37268700  0.89575000  1
  C  3624  1  0.66334100  0.35679500  0.88357300  1
  C  3625  1  0.68098800  0.35616700  0.87137900  1
  C  3626  1  0.70647900  0.37152600  0.87132100  1
  C  3633  1  0.71971400  0.62148800  0.38356500  1
  C  3634  1  0.74533000  0.63728700  0.38347900  1
  C  3635  1  0.76324300  0.63679700  0.39597300  1
  C  3636  1  0.75481800  0.62083700  0.40826200  1
  C  3639  1  0.78892000  0.65243100  0.39575100  1
  C  3640  1  0.79679100  0.66832900  0.38357500  1
  C  3641  1  0.77914000  0.66895700  0.37138100  1
  C  3642  1  0.75365500  0.65358700  0.37132200  1
  C  3649  1  0.33998600  0.52308800  0.66335500  1
  C  3650  1  0.35598500  0.49764500  0.66346700  1
  C  3651  1  0.35548300  0.47966200  0.65102000  1
  C  3652  1  0.33932000  0.48784200  0.63874500  1
  C  3655  1  0.37130800  0.45415100  0.65127500  1
  C  3656  1  0.38741700  0.44652200  0.66343200  1
  C  3657  1  0.38806200  0.46424500  0.67557600  1
  C  3658  1  0.37249800  0.48956100  0.67560600  1
  C  3665  1  0.12016100  0.50201300  0.16335500  1
  C  3666  1  0.10416300  0.52745600  0.16346600  1
  C  3667  1  0.10466400  0.54543900  0.15101800  1
  C  3668  1  0.12082500  0.53725800  0.13874300  1
  C  3671  1  0.08884000  0.57095000  0.15127300  1
  C  3672  1  0.07273200  0.57858000  0.16343100  1
  C  3673  1  0.07208800  0.56085700  0.17557600  1
  C  3674  1  0.08765100  0.53554200  0.17560500  1
  C  3681  1  0.22004800  0.62136100  0.41341800  1
  C  3682  1  0.24568500  0.63712000  0.41339400  1
  C  3683  1  0.26337600  0.63661100  0.40082000  1
  C  3684  1  0.25470500  0.62067400  0.38857000  1
  C  3687  1  0.28908100  0.65220700  0.40092900  1
  C  3688  1  0.29718400  0.66809000  0.41307000  1
  C  3689  1  0.27974900  0.66873500  0.42534300  1
  C  3690  1  0.25424300  0.65340100  0.42551500  1
  C  3697  1  0.24009400  0.40373300  0.91341800  1
  C  3698  1  0.21446100  0.38796600  0.91339400  1
  C  3699  1  0.19676900  0.38847300  0.90082100  1
  C  3700  1  0.20543500  0.40441600  0.88857200  1
  C  3703  1  0.17107000  0.37286900  0.90092800  1
  C  3704  1  0.16297300  0.35697900  0.91306900  1
  C  3705  1  0.18041000  0.35633400  0.92534100  1
  C  3706  1  0.20590900  0.37167600  0.92551400  1
  C  3713  1  0.25226200  0.06930600  0.26518400  1
  C  3714  1  0.27953900  0.07900200  0.26947900  1
  C  3715  1  0.29724500  0.06130100  0.27828100  1
  C  3716  1  0.28754300  0.03403700  0.28247400  1
  C  3719  1  0.32425700  0.07147400  0.28257500  1
  C  3720  1  0.33380300  0.09832900  0.27831700  1
  C  3721  1  0.31656600  0.11556200  0.26966700  1
  C  3722  1  0.28970900  0.10600800  0.26529700  1
  C  3729  1  0.20787100  0.95578000  0.76518200  1
  C  3730  1  0.18059100  0.94608500  0.76947500  1
  C  3731  1  0.16288500  0.96378700  0.77827800  1
  C  3732  1  0.17258900  0.99104800  0.78247200  1
  C  3735  1  0.13587200  0.95361400  0.78256900  1
  C  3736  1  0.12632300  0.92676100  0.77830900  1
  C  3737  1  0.14356100  0.90953100  0.76965900  1
  C  3738  1  0.17041900  0.91908200  0.76529000  1
  C  3745  1  0.17340100  0.03462000  0.51520100  1
  C  3746  1  0.16350300  0.06176300  0.51947900  1
  C  3747  1  0.18113300  0.07953500  0.52828400  1
  C  3748  1  0.20853100  0.07003300  0.53249600  1
  C  3751  1  0.17076100  0.10640800  0.53256000  1
  C  3752  1  0.14377500  0.11576000  0.52828200  1
  C  3753  1  0.12661100  0.09845900  0.51963000  1
  C  3754  1  0.13636300  0.07173600  0.51527700  1
  C  3761  1  0.28675200  0.99047700  0.01519960  1
  C  3762  1  0.29665100  0.96333700  0.01947960  1
  C  3763  1  0.27902100  0.94556500  0.02828460  1
  C  3764  1  0.25162100  0.95506300  0.03249560  1
  C  3767  1  0.28939500  0.91869300  0.03256360  1
  C  3768  1  0.31638300  0.90934300  0.02828760  1
  C  3769  1  0.33354700  0.92664300  0.01963560  1
  C  3770  1  0.32379400  0.95336500  0.01527960  1
  C  3777  1  0.70653000  0.95554100  0.03167960  1
  C  3778  1  0.67895400  0.94626900  0.02762960  1
  C  3779  1  0.66136500  0.96409600  0.01883560  1
  C  3780  1  0.67152200  0.99102500  0.01437660  1
  C  3783  1  0.63400700  0.95441200  0.01481660  1
  C  3784  1  0.62405100  0.92785000  0.01931360  1
  C  3785  1  0.64119800  0.91046800  0.02793460  1
  C  3786  1  0.66836200  0.91957700  0.03205460  1
  C  3793  1  0.75362100  0.06956200  0.53168100  1
  C  3794  1  0.78119500  0.07883300  0.52763400  1
  C  3795  1  0.79878700  0.06100600  0.51883900  1
  C  3796  1  0.78862700  0.03407900  0.51437900  1
  C  3799  1  0.82614600  0.07069100  0.51482300  1
  C  3800  1  0.83610200  0.09724900  0.51932100  1
  C  3801  1  0.81895600  0.11463200  0.52794200  1
  C  3802  1  0.79179000  0.10552400  0.53206100  1
  C  3809  1  0.78759000  0.99031400  0.78173100  1
  C  3810  1  0.79729000  0.96295800  0.77769100  1
  C  3811  1  0.77965700  0.94514400  0.76891000  1
  C  3812  1  0.75249300  0.95486600  0.76444900  1
  C  3815  1  0.78976600  0.91800600  0.76490800  1
  C  3816  1  0.81655100  0.90847400  0.76941000  1
  C  3817  1  0.83374400  0.92583700  0.77801700  1
  C  3818  1  0.82421800  0.95279600  0.78211900  1
  C  3825  1  0.67254700  0.03477900  0.28172900  1
  C  3826  1  0.66284700  0.06213400  0.27768800  1
  C  3827  1  0.68048200  0.07994900  0.26890700  1
  C  3828  1  0.70764600  0.07022700  0.26444900  1
  C  3831  1  0.67037100  0.10708500  0.26490400  1
  C  3832  1  0.64358400  0.11661500  0.26940500  1
  C  3833  1  0.62639100  0.09925200  0.27801300  1
  C  3834  1  0.63591600  0.07229500  0.28211500  1
  C  3841  1  0.75357700  0.56998100  0.76526600  1
  C  3842  1  0.78109500  0.57934200  0.76935400  1
  C  3843  1  0.79870000  0.56155900  0.77816400  1
  C  3844  1  0.78859700  0.53459400  0.78260100  1
  C  3847  1  0.82600800  0.57132800  0.78221700  1
  C  3848  1  0.83590300  0.59792100  0.77773600  1
  C  3849  1  0.81874200  0.61526100  0.76910000  1
  C  3850  1  0.79162200  0.60607400  0.76494800  1
  C  3857  1  0.70655600  0.45510500  0.26526400  1
  C  3858  1  0.67903700  0.44574400  0.26935100  1
  C  3859  1  0.66143200  0.46352900  0.27816100  1
  C  3860  1  0.67153500  0.49049200  0.28260000  1
  C  3863  1  0.63412400  0.45376200  0.28221300  1
  C  3864  1  0.62422500  0.42716900  0.27772900  1
  C  3865  1  0.64138600  0.40982900  0.26909300  1
  C  3866  1  0.66850800  0.41901600  0.26494200  1
  C  3873  1  0.67233500  0.53542300  0.01510160  1
  C  3874  1  0.66268800  0.56280500  0.01912960  1
  C  3875  1  0.68030300  0.58053800  0.02795760  1
  C  3876  1  0.70739100  0.57070400  0.03246660  1
  C  3879  1  0.67025400  0.60769800  0.03195960  1
  C  3880  1  0.64353900  0.61732900  0.02740860  1
  C  3881  1  0.62636100  0.60004800  0.01875160  1
  C  3882  1  0.63583400  0.57307200  0.01464860  1
  C  3889  1  0.78781700  0.48967300  0.51510200  1
  C  3890  1  0.79746600  0.46229200  0.51913200  1
  C  3891  1  0.77985200  0.44456000  0.52796000  1
  C  3892  1  0.75276200  0.45439000  0.53246600  1
  C  3895  1  0.78990200  0.41740100  0.53196400  1
  C  3896  1  0.81662100  0.40776900  0.52741400  1
  C  3897  1  0.83379700  0.42505100  0.51875700  1
  C  3898  1  0.82432200  0.45202600  0.51465200  1
  C  3905  1  0.20828100  0.45492500  0.53181400  1
  C  3906  1  0.18084000  0.44543600  0.52766300  1
  C  3907  1  0.16315900  0.46320100  0.51888200  1
  C  3908  1  0.17309000  0.49028900  0.51454200  1
  C  3911  1  0.13594100  0.45329300  0.51476000  1
  C  3912  1  0.12620600  0.42657900  0.51914300  1
  C  3913  1  0.14343700  0.40925800  0.52775200  1
  C  3914  1  0.17046800  0.41858500  0.53197300  1
  C  3921  1  0.25187000  0.57017800  0.03181660  1
  C  3922  1  0.27931200  0.57966700  0.02766560  1
  C  3923  1  0.29699300  0.56190200  0.01888560  1
  C  3924  1  0.28706000  0.53481600  0.01454260  1
  C  3927  1  0.32421000  0.57180800  0.01476360  1
  C  3928  1  0.33394800  0.59852200  0.01914860  1
  C  3929  1  0.31671600  0.61584300  0.02775760  1
  C  3930  1  0.28968400  0.60651600  0.03197860  1
  C  3937  1  0.28629600  0.48926500  0.28158600  1
  C  3938  1  0.29589800  0.46190100  0.27749800  1
  C  3939  1  0.27817500  0.44418400  0.26871500  1
  C  3940  1  0.25101500  0.45400300  0.26430600  1
  C  3943  1  0.28819300  0.41704300  0.26465700  1
  C  3944  1  0.31497700  0.40741600  0.26910600  1
  C  3945  1  0.33225700  0.42468300  0.27772000  1
  C  3946  1  0.32281900  0.45163900  0.28187600  1
  C  3953  1  0.17384200  0.53582900  0.78158400  1
  C  3954  1  0.16424000  0.56319200  0.77749500  1
  C  3955  1  0.18196300  0.58091100  0.76871100  1
  C  3956  1  0.20912400  0.57109100  0.76430400  1
  C  3959  1  0.17194300  0.60804900  0.76465100  1
  C  3960  1  0.14515800  0.61767400  0.76910000  1
  C  3961  1  0.12787700  0.60040800  0.77771300  1
  C  3962  1  0.13731600  0.57345300  0.78187200  1
  N  965  1  0.18935900  0.27534100  0.08788500  1
  N  966  1  0.18938700  0.24747300  0.08793900  1
  N  975  1  0.17269000  0.20254200  0.07968700  1
  N  976  1  0.17246200  0.32009300  0.07950500  1
  N  981  1  0.27078500  0.74975100  0.58788200  1
  N  982  1  0.27075800  0.77761900  0.58793600  1
  N  991  1  0.28745600  0.82255000  0.57968400  1
  N  992  1  0.28768100  0.70499700  0.57950400  1
  N  997  1  0.96707500  0.97139500  0.33797300  1
  N  998  1  0.99502600  0.97142000  0.33803600  1
  N  1007  1  0.04009400  0.95489800  0.32973300  1
  N  1008  1  0.92219100  0.95471000  0.32950800  1
  N  1013  1  0.49307300  0.05370900  0.83797300  1
  N  1014  1  0.46511900  0.05368200  0.83803600  1
  N  1023  1  0.42005100  0.07020000  0.82973200  1
  N  1024  1  0.53795400  0.07039400  0.82950800  1
  N  1029  1  0.27091200  0.27659100  0.40623500  1
  N  1030  1  0.27097200  0.24872500  0.40627000  1
  N  1039  1  0.28760300  0.20395900  0.41477200  1
  N  1040  1  0.28741000  0.32151000  0.41459500  1
  N  1045  1  0.18923000  0.74850800  0.90623800  1
  N  1046  1  0.18917200  0.77637400  0.90627200  1
  N  1055  1  0.17254000  0.82114000  0.91477200  1
  N  1056  1  0.17273000  0.70359100  0.91459700  1
  N  1061  1  0.49439200  0.97101400  0.15599700  1
  N  1062  1  0.46644100  0.97100300  0.15604300  1
  N  1071  1  0.42153600  0.95471000  0.16466600  1
  N  1072  1  0.53943000  0.95474600  0.16446000  1
  N  1077  1  0.96574900  0.05407700  0.65599700  1
  N  1078  1  0.99370000  0.05408600  0.65604400  1
  N  1087  1  0.03860500  0.07037700  0.66466800  1
  N  1088  1  0.92071100  0.07034900  0.66446000  1
  N  1093  1  0.76894600  0.74909800  0.90637400  1
  N  1094  1  0.76882500  0.77696300  0.90630700  1
  N  1103  1  0.78533100  0.82194800  0.91456400  1
  N  1104  1  0.78587000  0.70441100  0.91482900  1
  N  1109  1  0.69119700  0.27600100  0.40637700  1
  N  1110  1  0.69131800  0.24813500  0.40631000  1
  N  1119  1  0.67481000  0.20315200  0.41456800  1
  N  1120  1  0.67427300  0.32068700  0.41483100  1
  N  1125  1  0.69092600  0.74812100  0.58800600  1
  N  1126  1  0.69094000  0.77598700  0.58797800  1
  N  1135  1  0.67428800  0.82078100  0.57954500  1
  N  1136  1  0.67433700  0.70324600  0.57962600  1
  N  1141  1  0.76922000  0.27697200  0.08800300  1
  N  1142  1  0.76920500  0.24910400  0.08797500  1
  N  1151  1  0.78585700  0.20431000  0.07954400  1
  N  1152  1  0.78581000  0.32184400  0.07962300  1
  N  1157  1  0.46609500  0.47308800  0.83797600  1
  N  1158  1  0.49404200  0.47306900  0.83795400  1
  N  1167  1  0.53896800  0.45631600  0.82961100  1
  N  1168  1  0.42113300  0.45631900  0.82972300  1
  N  1173  1  0.99404800  0.55201300  0.33797700  1
  N  1174  1  0.96610100  0.55203200  0.33795300  1
  N  1183  1  0.92117800  0.56878000  0.32960900  1
  N  1184  1  0.03901100  0.56878600  0.32972400  1
  N  1189  1  0.99516200  0.47325300  0.65622200  1
  N  1190  1  0.96721500  0.47310700  0.65630600  1
  N  1199  1  0.92245200  0.45606900  0.66471200  1
  N  1200  1  0.04028900  0.45672700  0.66439100  1
  N  1205  1  0.46498100  0.55184200  0.15622300  1
  N  1206  1  0.49292800  0.55198300  0.15630700  1
  N  1215  1  0.53769100  0.56902100  0.16471300  1
  N  1216  1  0.41985400  0.56836800  0.16439100  1
  N  1221  1  0.96678200  0.08660100  0.06360700  1
  N  1222  1  0.99455100  0.08817100  0.06340200  1
  N  1231  1  0.03779300  0.10092400  0.05248200  1
  N  1232  1  0.92200500  0.09317100  0.05395500  1
  N  1237  1  0.49336100  0.93848600  0.56361000  1
  N  1238  1  0.46559000  0.93691500  0.56340300  1
  N  1247  1  0.42235100  0.92416900  0.55248100  1
  N  1248  1  0.53813800  0.93192500  0.55396000  1
  N  1253  1  0.15654500  0.74950400  0.31394300  1
  N  1254  1  0.15494400  0.77718800  0.31370700  1
  N  1263  1  0.14206100  0.82024100  0.30275400  1
  N  1264  1  0.14997300  0.70481700  0.30433100  1
  N  1269  1  0.30359300  0.27559300  0.81394100  1
  N  1270  1  0.30519700  0.24791100  0.81370400  1
  N  1279  1  0.31808900  0.20485800  0.80275000  1
  N  1280  1  0.31016400  0.32028100  0.80433400  1
  N  1285  1  0.49322300  0.08684800  0.42991300  1
  N  1286  1  0.46548600  0.08857800  0.43036300  1
  N  1295  1  0.42273000  0.10180200  0.44163500  1
  N  1296  1  0.53830000  0.09293800  0.43909900  1
  N  1301  1  0.96692000  0.93825100  0.92990900  1
  N  1302  1  0.99465700  0.93651900  0.93035800  1
  N  1311  1  0.03741200  0.92329800  0.94163200  1
  N  1312  1  0.92184400  0.93216800  0.93909500  1
  N  1317  1  0.30377800  0.74971700  0.17961800  1
  N  1318  1  0.30557000  0.77736500  0.18008400  1
  N  1327  1  0.31900300  0.81993500  0.19136000  1
  N  1328  1  0.30985700  0.70474300  0.18877300  1
  N  1333  1  0.15636500  0.27537300  0.67961700  1
  N  1334  1  0.15457100  0.24772500  0.68008300  1
  N  1343  1  0.14113500  0.20515600  0.69135900  1
  N  1344  1  0.15029000  0.32034700  0.68877000  1
  N  1349  1  0.80435000  0.27549800  0.68046100  1
  N  1350  1  0.80589900  0.24781200  0.68066800  1
  N  1359  1  0.81862500  0.20468200  0.69159900  1
  N  1360  1  0.81093600  0.32014000  0.69012700  1
  N  1365  1  0.65579900  0.74959900  0.18046100  1
  N  1366  1  0.65424600  0.77728500  0.18067000  1
  N  1375  1  0.64151400  0.82041000  0.19160200  1
  N  1376  1  0.64921500  0.70495300  0.19012300  1
  N  1381  1  0.65553800  0.27512800  0.81426000  1
  N  1382  1  0.65378600  0.24747600  0.81379100  1
  N  1391  1  0.64048100  0.20488500  0.80249200  1
  N  1392  1  0.64945700  0.32009900  0.80509900  1
  N  1397  1  0.80460500  0.74997700  0.31426100  1
  N  1398  1  0.80636100  0.77762700  0.31379200  1
  N  1407  1  0.81966900  0.82021600  0.30249100  1
  N  1408  1  0.81068400  0.70500400  0.30510200  1
  N  1413  1  0.46850900  0.58704700  0.56348500  1
  N  1414  1  0.49627500  0.58862000  0.56327300  1
  N  1423  1  0.53950400  0.60149200  0.55237900  1
  N  1424  1  0.42371400  0.59371500  0.55388000  1
  N  1429  1  0.99163400  0.43804200  0.06348900  1
  N  1430  1  0.96386600  0.43646600  0.06327500  1
  N  1439  1  0.92063900  0.42360000  0.05237800  1
  N  1440  1  0.03642900  0.43138100  0.05388400  1
  N  1445  1  0.99132700  0.58711400  0.93025800  1
  N  1446  1  0.96359200  0.58885900  0.93072500  1
  N  1455  1  0.92088100  0.60230600  0.94196600  1
  N  1456  1  0.03643300  0.59337100  0.93936000  1
  N  1461  1  0.46881600  0.43798200  0.43025400  1
  N  1462  1  0.49655100  0.43623800  0.43072100  1
  N  1471  1  0.53926000  0.42279200  0.44196500  1
  N  1472  1  0.42371000  0.43173400  0.43935500  1
  N  1477  1  0.13577200  0.01261400  0.00585600  1
  N  1478  1  0.13577800  0.99636000  0.99432600  1
  N  1487  1  0.11929800  0.98431400  0.97093600  1
  N  1488  1  0.11916400  0.05205600  0.01916100  1
  N  1493  1  0.32437100  0.01246600  0.50585700  1
  N  1494  1  0.32436700  0.02871900  0.49432500  1
  N  1503  1  0.34085000  0.04076700  0.47093700  1
  N  1504  1  0.34098700  0.97303100  0.51916300  1
  N  1509  1  0.23016500  0.91784700  0.25588200  1
  N  1510  1  0.24636100  0.91787000  0.24431300  1
  N  1519  1  0.25815400  0.90156400  0.22086400  1
  N  1520  1  0.19065400  0.90136700  0.26925000  1
  N  1525  1  0.22998300  0.10724800  0.75588000  1
  N  1526  1  0.21378600  0.10722400  0.74431000  1
  N  1535  1  0.20198700  0.12353200  0.72086300  1
  N  1536  1  0.26948900  0.12373400  0.76924800  1
  N  1541  1  0.82319600  0.01286300  0.98816000  1
  N  1542  1  0.82349100  0.02915700  0.99967600  1
  N  1551  1  0.83989300  0.04091600  0.02310700  1
  N  1552  1  0.83866700  0.97270800  0.97503600  1
  N  1557  1  0.63694700  0.01223600  0.48815900  1
  N  1558  1  0.63665400  0.99594300  0.49967500  1
  N  1567  1  0.62025700  0.98418900  0.52310700  1
  N  1568  1  0.62147600  0.05239000  0.47503400  1
  N  1573  1  0.72997200  0.10694900  0.73817200  1
  N  1574  1  0.71366300  0.10692200  0.74970200  1
  N  1583  1  0.70160900  0.12325600  0.77311800  1
  N  1584  1  0.76958700  0.12347900  0.72489100  1
  N  1589  1  0.73016700  0.91814900  0.23817400  1
  N  1590  1  0.74647800  0.91817900  0.24970400  1
  N  1599  1  0.75853800  0.90184100  0.27311800  1
  N  1600  1  0.69055700  0.90161300  0.22489300  1
  N  1605  1  0.63750700  0.51258100  0.50606800  1
  N  1606  1  0.63752800  0.49621300  0.49458000  1
  N  1615  1  0.62127900  0.48409400  0.47115600  1
  N  1616  1  0.62108000  0.55231300  0.51920700  1
  N  1621  1  0.82263800  0.51249900  0.00606800  1
  N  1622  1  0.82261500  0.52886400  0.99457900  1
  N  1631  1  0.83886600  0.54098600  0.97115600  1
  N  1632  1  0.83907000  0.47277300  0.01920900  1
  N  1637  1  0.73038100  0.41849800  0.75600900  1
  N  1638  1  0.74671300  0.41823200  0.74448700  1
  N  1647  1  0.75852500  0.40187700  0.72105800  1
  N  1648  1  0.69016200  0.40298000  0.76915400  1
  N  1653  1  0.72977000  0.60659900  0.25600600  1
  N  1654  1  0.71343800  0.60686300  0.24448500  1
  N  1663  1  0.70162000  0.62322000  0.22105800  1
  N  1664  1  0.76998500  0.62212700  0.26915300  1
  N  1669  1  0.32490100  0.51274000  0.48825900  1
  N  1670  1  0.32516900  0.52913500  0.49974000  1
  N  1679  1  0.34171100  0.54123800  0.52310700  1
  N  1680  1  0.34059500  0.47260400  0.47517600  1
  N  1685  1  0.13524300  0.51236100  0.98825800  1
  N  1686  1  0.13497600  0.49596600  0.99973900  1
  N  1695  1  0.11843900  0.48386500  0.02310700  1
  N  1696  1  0.11954800  0.55249300  0.97517300  1
  N  1701  1  0.22965400  0.60647600  0.23822000  1
  N  1702  1  0.21352500  0.60675500  0.24981300  1
  N  1711  1  0.20214700  0.62311000  0.27328600  1
  N  1712  1  0.26964800  0.62194100  0.22490000  1
  N  1717  1  0.23048300  0.41862300  0.73822100  1
  N  1718  1  0.24660900  0.41834400  0.74981400  1
  N  1727  1  0.25799700  0.40198400  0.77328500  1
  N  1728  1  0.19049400  0.40314500  0.72490100  1
  N  1733  1  0.26114500  0.02659500  0.12642300  1
  N  1734  1  0.24481500  0.04292200  0.11843100  1
  N  1743  1  0.23515200  0.08556800  0.10548500  1
  N  1744  1  0.30387500  0.01689200  0.13940200  1
  N  1749  1  0.19898900  0.99848900  0.62642400  1
  N  1750  1  0.21532000  0.98216100  0.61843200  1
  N  1759  1  0.22498100  0.93952000  0.60548300  1
  N  1760  1  0.15625700  0.00819400  0.63940000  1
  N  1765  1  0.21616200  0.04375300  0.37646200  1
  N  1766  1  0.19990000  0.02736000  0.36846800  1
  N  1775  1  0.15719000  0.01743900  0.35551800  1
  N  1776  1  0.22559800  0.08641200  0.38944400  1
  N  1781  1  0.24398800  0.98134100  0.87646000  1
  N  1782  1  0.26025200  0.99773400  0.86846600  1
  N  1791  1  0.30296300  0.00765900  0.85551800  1
  N  1792  1  0.23455600  0.93868500  0.88944400  1
  N  1797  1  0.69818200  0.99807200  0.86748200  1
  N  1798  1  0.71438200  0.98164300  0.87548600  1
  N  1807  1  0.72352800  0.93921300  0.88868800  1
  N  1808  1  0.65532600  0.00824000  0.85472400  1
  N  1813  1  0.76196800  0.02703200  0.36748300  1
  N  1814  1  0.74576700  0.04346000  0.37548600  1
  N  1823  1  0.73662100  0.08588800  0.38869000  1
  N  1824  1  0.80482300  0.01686400  0.35472600  1
  N  1829  1  0.74504400  0.98134700  0.61754200  1
  N  1830  1  0.76129300  0.99775100  0.62553500  1
  N  1839  1  0.80376300  0.00753400  0.63869800  1
  N  1840  1  0.73546500  0.93847500  0.60478700  1
  N  1845  1  0.71509500  0.04374700  0.11754300  1
  N  1846  1  0.69884800  0.02734300  0.12553500  1
  N  1855  1  0.65637400  0.01755800  0.13869800  1
  N  1856  1  0.72467300  0.08661700  0.10478600  1
  N  1861  1  0.76198900  0.52746000  0.62674800  1
  N  1862  1  0.74578000  0.54384900  0.61872900  1
  N  1871  1  0.73656000  0.58626600  0.60553800  1
  N  1872  1  0.80481100  0.51740400  0.63954300  1
  N  1877  1  0.69814600  0.49762400  0.12674700  1
  N  1878  1  0.71435500  0.48123500  0.11872900  1
  N  1887  1  0.72357300  0.43882000  0.10553500  1
  N  1888  1  0.65532600  0.50768200  0.13954100  1
  N  1893  1  0.71479600  0.54420800  0.87666700  1
  N  1894  1  0.69856100  0.52787500  0.86863500  1
  N  1903  1  0.65618100  0.51826700  0.85539100  1
  N  1904  1  0.72440000  0.58701100  0.88945700  1
  N  1909  1  0.74535600  0.48088400  0.37666600  1
  N  1910  1  0.76158800  0.49722000  0.36863300  1
  N  1919  1  0.80397100  0.50683000  0.35539100  1
  N  1920  1  0.73575400  0.43808400  0.38945800  1
  N  1925  1  0.19963400  0.49753900  0.36773800  1
  N  1926  1  0.21592000  0.48116500  0.37572700  1
  N  1935  1  0.22535700  0.43865500  0.38881300  1
  N  1936  1  0.15679200  0.50746000  0.35491300  1
  N  1941  1  0.26051500  0.52756600  0.86773800  1
  N  1942  1  0.24422800  0.54394000  0.87572800  1
  N  1951  1  0.23479300  0.58644800  0.88881600  1
  N  1952  1  0.30335800  0.51764500  0.85491500  1
  N  1957  1  0.24365900  0.48048000  0.11744300  1
  N  1958  1  0.25999300  0.49680100  0.12543500  1
  N  1967  1  0.30254800  0.50639200  0.13856400  1
  N  1968  1  0.23390000  0.43769100  0.10465200  1
  N  1973  1  0.21648000  0.54461400  0.61744400  1
  N  1974  1  0.20014500  0.52829500  0.62543500  1
  N  1983  1  0.15759100  0.51870200  0.63856200  1
  N  1984  1  0.22623700  0.58740400  0.60465000  1
  N  2949  1  0.18935900  0.27534100  0.23924100  1
  N  2950  1  0.18938700  0.24747300  0.23929500  1
  N  2959  1  0.17269000  0.20254200  0.23104300  1
  N  2960  1  0.17246200  0.32009300  0.23086100  1
  N  2965  1  0.27078500  0.74975100  0.73923800  1
  N  2966  1  0.27075800  0.77761900  0.73929200  1
  N  2975  1  0.28745600  0.82255000  0.73104000  1
  N  2976  1  0.28768100  0.70499700  0.73086000  1
  N  2981  1  0.96707500  0.97139500  0.48932900  1
  N  2982  1  0.99502600  0.97142000  0.48939200  1
  N  2991  1  0.04009400  0.95489800  0.48108900  1
  N  2992  1  0.92219100  0.95471000  0.48086400  1
  N  2997  1  0.49307300  0.05370900  0.98932900  1
  N  2998  1  0.46511900  0.05368200  0.98939200  1
  N  3007  1  0.42005100  0.07020000  0.98108800  1
  N  3008  1  0.53795400  0.07039400  0.98086400  1
  N  3013  1  0.27091200  0.27659100  0.55759100  1
  N  3014  1  0.27097200  0.24872500  0.55762600  1
  N  3023  1  0.28760300  0.20395900  0.56612800  1
  N  3024  1  0.28741000  0.32151000  0.56595100  1
  N  3029  1  0.18923000  0.74850800  0.05759360  1
  N  3030  1  0.18917200  0.77637400  0.05762760  1
  N  3039  1  0.17254000  0.82114000  0.06612760  1
  N  3040  1  0.17273000  0.70359100  0.06595260  1
  N  3045  1  0.49439200  0.97101400  0.30735300  1
  N  3046  1  0.46644100  0.97100300  0.30739900  1
  N  3055  1  0.42153600  0.95471000  0.31602200  1
  N  3056  1  0.53943000  0.95474600  0.31581600  1
  N  3061  1  0.96574900  0.05407700  0.80735300  1
  N  3062  1  0.99370000  0.05408600  0.80740000  1
  N  3071  1  0.03860500  0.07037700  0.81602400  1
  N  3072  1  0.92071100  0.07034900  0.81581600  1
  N  3077  1  0.76894600  0.74909800  0.05772960  1
  N  3078  1  0.76882500  0.77696300  0.05766260  1
  N  3087  1  0.78533100  0.82194800  0.06591960  1
  N  3088  1  0.78587000  0.70441100  0.06618460  1
  N  3093  1  0.69119700  0.27600100  0.55773300  1
  N  3094  1  0.69131800  0.24813500  0.55766600  1
  N  3103  1  0.67481000  0.20315200  0.56592400  1
  N  3104  1  0.67427300  0.32068700  0.56618700  1
  N  3109  1  0.69092600  0.74812100  0.73936200  1
  N  3110  1  0.69094000  0.77598700  0.73933400  1
  N  3119  1  0.67428800  0.82078100  0.73090100  1
  N  3120  1  0.67433700  0.70324600  0.73098200  1
  N  3125  1  0.76922000  0.27697200  0.23935900  1
  N  3126  1  0.76920500  0.24910400  0.23933100  1
  N  3135  1  0.78585700  0.20431000  0.23090000  1
  N  3136  1  0.78581000  0.32184400  0.23097900  1
  N  3141  1  0.46609500  0.47308800  0.98933200  1
  N  3142  1  0.49404200  0.47306900  0.98931000  1
  N  3151  1  0.53896800  0.45631600  0.98096700  1
  N  3152  1  0.42113300  0.45631900  0.98107900  1
  N  3157  1  0.99404800  0.55201300  0.48933300  1
  N  3158  1  0.96610100  0.55203200  0.48930900  1
  N  3167  1  0.92117800  0.56878000  0.48096500  1
  N  3168  1  0.03901100  0.56878600  0.48108000  1
  N  3173  1  0.99516200  0.47325300  0.80757800  1
  N  3174  1  0.96721500  0.47310700  0.80766200  1
  N  3183  1  0.92245200  0.45606900  0.81606800  1
  N  3184  1  0.04028900  0.45672700  0.81574700  1
  N  3189  1  0.46498100  0.55184200  0.30757900  1
  N  3190  1  0.49292800  0.55198300  0.30766300  1
  N  3199  1  0.53769100  0.56902100  0.31606900  1
  N  3200  1  0.41985400  0.56836800  0.31574700  1
  N  3205  1  0.96678200  0.08660100  0.21496300  1
  N  3206  1  0.99455100  0.08817100  0.21475800  1
  N  3215  1  0.03779300  0.10092400  0.20383800  1
  N  3216  1  0.92200500  0.09317100  0.20531100  1
  N  3221  1  0.49336100  0.93848600  0.71496600  1
  N  3222  1  0.46559000  0.93691500  0.71475900  1
  N  3231  1  0.42235100  0.92416900  0.70383700  1
  N  3232  1  0.53813800  0.93192500  0.70531600  1
  N  3237  1  0.15654500  0.74950400  0.46529900  1
  N  3238  1  0.15494400  0.77718800  0.46506300  1
  N  3247  1  0.14206100  0.82024100  0.45411000  1
  N  3248  1  0.14997300  0.70481700  0.45568700  1
  N  3253  1  0.30359300  0.27559300  0.96529700  1
  N  3254  1  0.30519700  0.24791100  0.96506000  1
  N  3263  1  0.31808900  0.20485800  0.95410600  1
  N  3264  1  0.31016400  0.32028100  0.95569000  1
  N  3269  1  0.49322300  0.08684800  0.58126900  1
  N  3270  1  0.46548600  0.08857800  0.58171900  1
  N  3279  1  0.42273000  0.10180200  0.59299100  1
  N  3280  1  0.53830000  0.09293800  0.59045500  1
  N  3285  1  0.96692000  0.93825100  0.08126460  1
  N  3286  1  0.99465700  0.93651900  0.08171360  1
  N  3295  1  0.03741200  0.92329800  0.09298760  1
  N  3296  1  0.92184400  0.93216800  0.09045060  1
  N  3301  1  0.30377800  0.74971700  0.33097400  1
  N  3302  1  0.30557000  0.77736500  0.33144000  1
  N  3311  1  0.31900300  0.81993500  0.34271600  1
  N  3312  1  0.30985700  0.70474300  0.34012900  1
  N  3317  1  0.15636500  0.27537300  0.83097300  1
  N  3318  1  0.15457100  0.24772500  0.83143900  1
  N  3327  1  0.14113500  0.20515600  0.84271500  1
  N  3328  1  0.15029000  0.32034700  0.84012600  1
  N  3333  1  0.80435000  0.27549800  0.83181700  1
  N  3334  1  0.80589900  0.24781200  0.83202400  1
  N  3343  1  0.81862500  0.20468200  0.84295500  1
  N  3344  1  0.81093600  0.32014000  0.84148300  1
  N  3349  1  0.65579900  0.74959900  0.33181700  1
  N  3350  1  0.65424600  0.77728500  0.33202600  1
  N  3359  1  0.64151400  0.82041000  0.34295800  1
  N  3360  1  0.64921500  0.70495300  0.34147900  1
  N  3365  1  0.65553800  0.27512800  0.96561600  1
  N  3366  1  0.65378600  0.24747600  0.96514700  1
  N  3375  1  0.64048100  0.20488500  0.95384800  1
  N  3376  1  0.64945700  0.32009900  0.95645500  1
  N  3381  1  0.80460500  0.74997700  0.46561700  1
  N  3382  1  0.80636100  0.77762700  0.46514800  1
  N  3391  1  0.81966900  0.82021600  0.45384700  1
  N  3392  1  0.81068400  0.70500400  0.45645800  1
  N  3397  1  0.46850900  0.58704700  0.71484100  1
  N  3398  1  0.49627500  0.58862000  0.71462900  1
  N  3407  1  0.53950400  0.60149200  0.70373500  1
  N  3408  1  0.42371400  0.59371500  0.70523600  1
  N  3413  1  0.99163400  0.43804200  0.21484500  1
  N  3414  1  0.96386600  0.43646600  0.21463100  1
  N  3423  1  0.92063900  0.42360000  0.20373400  1
  N  3424  1  0.03642900  0.43138100  0.20524000  1
  N  3429  1  0.99132700  0.58711400  0.08161360  1
  N  3430  1  0.96359200  0.58885900  0.08208060  1
  N  3439  1  0.92088100  0.60230600  0.09332160  1
  N  3440  1  0.03643300  0.59337100  0.09071560  1
  N  3445  1  0.46881600  0.43798200  0.58161000  1
  N  3446  1  0.49655100  0.43623800  0.58207700  1
  N  3455  1  0.53926000  0.42279200  0.59332100  1
  N  3456  1  0.42371000  0.43173400  0.59071100  1
  N  3461  1  0.13577200  0.01261400  0.15721200  1
  N  3462  1  0.13577800  0.99636000  0.14568200  1
  N  3471  1  0.11929800  0.98431400  0.12229200  1
  N  3472  1  0.11916400  0.05205600  0.17051700  1
  N  3477  1  0.32437100  0.01246600  0.65721300  1
  N  3478  1  0.32436700  0.02871900  0.64568100  1
  N  3487  1  0.34085000  0.04076700  0.62229300  1
  N  3488  1  0.34098700  0.97303100  0.67051900  1
  N  3493  1  0.23016500  0.91784700  0.40723800  1
  N  3494  1  0.24636100  0.91787000  0.39566900  1
  N  3503  1  0.25815400  0.90156400  0.37222000  1
  N  3504  1  0.19065400  0.90136700  0.42060600  1
  N  3509  1  0.22998300  0.10724800  0.90723600  1
  N  3510  1  0.21378600  0.10722400  0.89566600  1
  N  3519  1  0.20198700  0.12353200  0.87221900  1
  N  3520  1  0.26948900  0.12373400  0.92060400  1
  N  3525  1  0.82319600  0.01286300  0.13951600  1
  N  3526  1  0.82349100  0.02915700  0.15103200  1
  N  3535  1  0.83989300  0.04091600  0.17446300  1
  N  3536  1  0.83866700  0.97270800  0.12639200  1
  N  3541  1  0.63694700  0.01223600  0.63951500  1
  N  3542  1  0.63665400  0.99594300  0.65103100  1
  N  3551  1  0.62025700  0.98418900  0.67446300  1
  N  3552  1  0.62147600  0.05239000  0.62639000  1
  N  3557  1  0.72997200  0.10694900  0.88952800  1
  N  3558  1  0.71366300  0.10692200  0.90105800  1
  N  3567  1  0.70160900  0.12325600  0.92447400  1
  N  3568  1  0.76958700  0.12347900  0.87624700  1
  N  3573  1  0.73016700  0.91814900  0.38953000  1
  N  3574  1  0.74647800  0.91817900  0.40106000  1
  N  3583  1  0.75853800  0.90184100  0.42447400  1
  N  3584  1  0.69055700  0.90161300  0.37624900  1
  N  3589  1  0.63750700  0.51258100  0.65742400  1
  N  3590  1  0.63752800  0.49621300  0.64593600  1
  N  3599  1  0.62127900  0.48409400  0.62251200  1
  N  3600  1  0.62108000  0.55231300  0.67056300  1
  N  3605  1  0.82263800  0.51249900  0.15742400  1
  N  3606  1  0.82261500  0.52886400  0.14593500  1
  N  3615  1  0.83886600  0.54098600  0.12251200  1
  N  3616  1  0.83907000  0.47277300  0.17056500  1
  N  3621  1  0.73038100  0.41849800  0.90736500  1
  N  3622  1  0.74671300  0.41823200  0.89584300  1
  N  3631  1  0.75852500  0.40187700  0.87241400  1
  N  3632  1  0.69016200  0.40298000  0.92051000  1
  N  3637  1  0.72977000  0.60659900  0.40736200  1
  N  3638  1  0.71343800  0.60686300  0.39584100  1
  N  3647  1  0.70162000  0.62322000  0.37241400  1
  N  3648  1  0.76998500  0.62212700  0.42050900  1
  N  3653  1  0.32490100  0.51274000  0.63961500  1
  N  3654  1  0.32516900  0.52913500  0.65109600  1
  N  3663  1  0.34171100  0.54123800  0.67446300  1
  N  3664  1  0.34059500  0.47260400  0.62653200  1
  N  3669  1  0.13524300  0.51236100  0.13961400  1
  N  3670  1  0.13497600  0.49596600  0.15109500  1
  N  3679  1  0.11843900  0.48386500  0.17446300  1
  N  3680  1  0.11954800  0.55249300  0.12652900  1
  N  3685  1  0.22965400  0.60647600  0.38957600  1
  N  3686  1  0.21352500  0.60675500  0.40116900  1
  N  3695  1  0.20214700  0.62311000  0.42464200  1
  N  3696  1  0.26964800  0.62194100  0.37625600  1
  N  3701  1  0.23048300  0.41862300  0.88957700  1
  N  3702  1  0.24660900  0.41834400  0.90117000  1
  N  3711  1  0.25799700  0.40198400  0.92464100  1
  N  3712  1  0.19049400  0.40314500  0.87625700  1
  N  3717  1  0.26114500  0.02659500  0.27777900  1
  N  3718  1  0.24481500  0.04292200  0.26978700  1
  N  3727  1  0.23515200  0.08556800  0.25684100  1
  N  3728  1  0.30387500  0.01689200  0.29075800  1
  N  3733  1  0.19898900  0.99848900  0.77778000  1
  N  3734  1  0.21532000  0.98216100  0.76978800  1
  N  3743  1  0.22498100  0.93952000  0.75683900  1
  N  3744  1  0.15625700  0.00819400  0.79075600  1
  N  3749  1  0.21616200  0.04375300  0.52781800  1
  N  3750  1  0.19990000  0.02736000  0.51982400  1
  N  3759  1  0.15719000  0.01743900  0.50687400  1
  N  3760  1  0.22559800  0.08641200  0.54080000  1
  N  3765  1  0.24398800  0.98134100  0.02781560  1
  N  3766  1  0.26025200  0.99773400  0.01982160  1
  N  3775  1  0.30296300  0.00765900  0.00687361  1
  N  3776  1  0.23455600  0.93868500  0.04079960  1
  N  3781  1  0.69818200  0.99807200  0.01883760  1
  N  3782  1  0.71438200  0.98164300  0.02684160  1
  N  3791  1  0.72352800  0.93921300  0.04004360  1
  N  3792  1  0.65532600  0.00824000  0.00607961  1
  N  3797  1  0.76196800  0.02703200  0.51883900  1
  N  3798  1  0.74576700  0.04346000  0.52684200  1
  N  3807  1  0.73662100  0.08588800  0.54004600  1
  N  3808  1  0.80482300  0.01686400  0.50608200  1
  N  3813  1  0.74504400  0.98134700  0.76889800  1
  N  3814  1  0.76129300  0.99775100  0.77689100  1
  N  3823  1  0.80376300  0.00753400  0.79005400  1
  N  3824  1  0.73546500  0.93847500  0.75614300  1
  N  3829  1  0.71509500  0.04374700  0.26889900  1
  N  3830  1  0.69884800  0.02734300  0.27689100  1
  N  3839  1  0.65637400  0.01755800  0.29005400  1
  N  3840  1  0.72467300  0.08661700  0.25614200  1
  N  3845  1  0.76198900  0.52746000  0.77810400  1
  N  3846  1  0.74578000  0.54384900  0.77008500  1
  N  3855  1  0.73656000  0.58626600  0.75689400  1
  N  3856  1  0.80481100  0.51740400  0.79089900  1
  N  3861  1  0.69814600  0.49762400  0.27810300  1
  N  3862  1  0.71435500  0.48123500  0.27008500  1
  N  3871  1  0.72357300  0.43882000  0.25689100  1
  N  3872  1  0.65532600  0.50768200  0.29089700  1
  N  3877  1  0.71479600  0.54420800  0.02802260  1
  N  3878  1  0.69856100  0.52787500  0.01999060  1
  N  3887  1  0.65618100  0.51826700  0.00674661  1
  N  3888  1  0.72440000  0.58701100  0.04081260  1
  N  3893  1  0.74535600  0.48088400  0.52802200  1
  N  3894  1  0.76158800  0.49722000  0.51998900  1
  N  3903  1  0.80397100  0.50683000  0.50674700  1
  N  3904  1  0.73575400  0.43808400  0.54081400  1
  N  3909  1  0.19963400  0.49753900  0.51909400  1
  N  3910  1  0.21592000  0.48116500  0.52708300  1
  N  3919  1  0.22535700  0.43865500  0.54016900  1
  N  3920  1  0.15679200  0.50746000  0.50626900  1
  N  3925  1  0.26051500  0.52756600  0.01909360  1
  N  3926  1  0.24422800  0.54394000  0.02708360  1
  N  3935  1  0.23479300  0.58644800  0.04017160  1
  N  3936  1  0.30335800  0.51764500  0.00627061  1
  N  3941  1  0.24365900  0.48048000  0.26879900  1
  N  3942  1  0.25999300  0.49680100  0.27679100  1
  N  3951  1  0.30254800  0.50639200  0.28992000  1
  N  3952  1  0.23390000  0.43769100  0.25600800  1
  N  3957  1  0.21648000  0.54461400  0.76880000  1
  N  3958  1  0.20014500  0.52829500  0.77679100  1
  N  3967  1  0.15759100  0.51870200  0.78991800  1
  N  3968  1  0.22623700  0.58740400  0.75600600  1
  O  8  1  0.07447400  0.06210000  0.03805600  1
  O  15  1  0.21763800  0.14342400  0.10341100  1
  O  17  1  0.09955700  0.12145700  0.07828500  1
  O  18  1  0.17015600  0.06541800  0.08059700  1
  O  38  1  0.38566900  0.96299000  0.53806000  1
  O  45  1  0.24249900  0.88166100  0.60340600  1
  O  47  1  0.36059200  0.90363200  0.57829000  1
  O  48  1  0.28998300  0.95967700  0.58060100  1
  O  68  1  0.18081500  0.85681000  0.28821000  1
  O  75  1  0.09931000  0.99988600  0.35341300  1
  O  77  1  0.12152900  0.88192700  0.32852800  1
  O  78  1  0.17762900  0.95249000  0.33068700  1
  O  98  1  0.27933300  0.16829200  0.78821000  1
  O  105  1  0.36083800  0.02520800  0.85340800  1
  O  107  1  0.33861600  0.14317300  0.82852400  1
  O  108  1  0.28251900  0.07260700  0.83068300  1
  O  128  1  0.38602800  0.06859300  0.45857600  1
  O  135  1  0.24303300  0.14425900  0.39122300  1
  O  137  1  0.36057100  0.11914700  0.41535700  1
  O  138  1  0.29024800  0.06686500  0.41479100  1
  O  158  1  0.07411600  0.95649600  0.95857400  1
  O  165  1  0.21711600  0.88083600  0.89122500  1
  O  167  1  0.09956800  0.90595600  0.91534800  1
  O  168  1  0.16989700  0.95823700  0.91478500  1
  O  188  1  0.28591500  0.85651200  0.20840700  1
  O  195  1  0.36174200  0.99935100  0.14117600  1
  O  197  1  0.33630200  0.88200300  0.16510300  1
  O  198  1  0.28403500  0.95232500  0.16471300  1
  O  218  1  0.17422500  0.16858000  0.70840600  1
  O  225  1  0.09839700  0.02573100  0.64118000  1
  O  227  1  0.12383600  0.14308600  0.66510300  1
  O  228  1  0.17610500  0.07276100  0.66471500  1
  O  248  1  0.88407600  0.95590400  0.95850100  1
  O  255  1  0.74071300  0.88114500  0.89072300  1
  O  257  1  0.85803800  0.89634600  0.91840800  1
  O  258  1  0.78893000  0.95895800  0.91327300  1
  O  278  1  0.57606700  0.06919900  0.45850300  1
  O  285  1  0.71943500  0.14395700  0.39072700  1
  O  287  1  0.60209600  0.12876100  0.41840900  1
  O  288  1  0.67121300  0.06614000  0.41327000  1
  O  308  1  0.77971000  0.16807000  0.70601700  1
  O  315  1  0.86161900  0.02534200  0.64072600  1
  O  317  1  0.83927300  0.14311600  0.66578400  1
  O  318  1  0.78315500  0.07239100  0.66350200  1
  O  338  1  0.68042900  0.85701900  0.20601800  1
  O  345  1  0.59852200  0.99975500  0.14072900  1
  O  347  1  0.62087000  0.88197600  0.16578700  1
  O  348  1  0.67698600  0.95270300  0.16350500  1
  O  368  1  0.57670300  0.94884900  0.53259600  1
  O  375  1  0.71861400  0.88075600  0.60291200  1
  O  377  1  0.60103400  0.89797800  0.57592600  1
  O  378  1  0.67081000  0.95776500  0.57922300  1
  O  398  1  0.88344200  0.07625600  0.03259200  1
  O  405  1  0.74152700  0.14433700  0.10291100  1
  O  407  1  0.85911800  0.12711800  0.07592800  1
  O  408  1  0.78933600  0.06732700  0.07922600  1
  O  428  1  0.67373900  0.16829500  0.78551900  1
  O  435  1  0.59773500  0.02557000  0.85277200  1
  O  437  1  0.62301000  0.14283900  0.82872400  1
  O  438  1  0.67546500  0.07257600  0.82912900  1
  O  458  1  0.78640900  0.85680600  0.28552000  1
  O  465  1  0.86241000  0.99953300  0.35277200  1
  O  467  1  0.83714000  0.88226600  0.32872300  1
  O  468  1  0.78468200  0.95252800  0.32912800  1
  O  488  1  0.57625300  0.56254700  0.53802000  1
  O  495  1  0.71903200  0.64418700  0.60349000  1
  O  497  1  0.60116300  0.62216700  0.57817300  1
  O  498  1  0.67170500  0.56611400  0.58066100  1
  O  518  1  0.88389000  0.46254300  0.03802400  1
  O  525  1  0.74110500  0.38089900  0.10348400  1
  O  527  1  0.85898400  0.40292100  0.07817900  1
  O  528  1  0.78843600  0.45897800  0.08066500  1
  O  548  1  0.67331900  0.35773400  0.78571300  1
  O  555  1  0.59830400  0.50101100  0.85331200  1
  O  557  1  0.61361100  0.38376900  0.82581100  1
  O  558  1  0.67641300  0.45287800  0.83084100  1
  O  578  1  0.78682900  0.66736700  0.28571400  1
  O  585  1  0.86184300  0.52408100  0.35330700  1
  O  587  1  0.84653400  0.64133000  0.32581000  1
  O  588  1  0.78373400  0.57221600  0.33083900  1
  O  608  1  0.88415700  0.56891300  0.95889700  1
  O  615  1  0.74145700  0.64463100  0.89141100  1
  O  617  1  0.85877200  0.61972100  0.91574300  1
  O  618  1  0.78868200  0.56732800  0.91516600  1
  O  638  1  0.57598600  0.45617500  0.45889500  1
  O  645  1  0.71869200  0.38046400  0.39141400  1
  O  647  1  0.60136500  0.40538000  0.41573500  1
  O  648  1  0.67146300  0.45777300  0.41516100  1
  O  668  1  0.79393400  0.35850600  0.71149900  1
  O  675  1  0.86238600  0.50051400  0.64148700  1
  O  677  1  0.84498500  0.38295900  0.66820200  1
  O  678  1  0.78504100  0.45269200  0.66501500  1
  O  698  1  0.66620900  0.66658500  0.21149800  1
  O  705  1  0.59775500  0.52457400  0.14148900  1
  O  707  1  0.61515800  0.64212900  0.16820200  1
  O  708  1  0.67510300  0.57239400  0.16501600  1
  O  728  1  0.38590900  0.45553600  0.45869700  1
  O  735  1  0.24269800  0.38074100  0.39083400  1
  O  737  1  0.35993000  0.39597100  0.41859800  1
  O  738  1  0.29068900  0.45856400  0.41349700  1
  O  758  1  0.07423300  0.56956900  0.95870000  1
  O  765  1  0.21744900  0.64436200  0.89083700  1
  O  767  1  0.10020500  0.62913400  0.91859800  1
  O  768  1  0.16945400  0.56653500  0.91349400  1
  O  788  1  0.28615400  0.66718500  0.20824100  1
  O  795  1  0.36055000  0.52354400  0.14067500  1
  O  797  1  0.34532900  0.64096000  0.16796900  1
  O  798  1  0.28248700  0.57189300  0.16308600  1
  O  818  1  0.17398600  0.35790500  0.70824000  1
  O  825  1  0.09959000  0.50155400  0.64067800  1
  O  827  1  0.11481200  0.38413400  0.66796800  1
  O  828  1  0.17765500  0.45320400  0.66308800  1
  O  848  1  0.07497900  0.44848900  0.03258100  1
  O  855  1  0.21695100  0.38003300  0.10278700  1
  O  857  1  0.09936000  0.39732200  0.07581200  1
  O  858  1  0.16918800  0.45712200  0.07915200  1
  O  878  1  0.38516700  0.57661600  0.53257600  1
  O  885  1  0.24319200  0.64506200  0.60278500  1
  O  887  1  0.36079200  0.62777400  0.57581300  1
  O  888  1  0.29095800  0.56797000  0.57915400  1
  O  908  1  0.16675600  0.66644700  0.28292200  1
  O  915  1  0.09903700  0.52427000  0.35300400  1
  O  917  1  0.11637100  0.64196200  0.32641700  1
  O  918  1  0.17634100  0.57228800  0.32953300  1
  O  938  1  0.29338700  0.35865400  0.78292300  1
  O  945  1  0.36110800  0.50083500  0.85300400  1
  O  947  1  0.34377200  0.38314100  0.82641700  1
  O  948  1  0.28380400  0.45281700  0.82953300  1
  O  1992  1  0.07447400  0.06210000  0.18941200  1
  O  1999  1  0.21763800  0.14342400  0.25476700  1
  O  2001  1  0.09955700  0.12145700  0.22964100  1
  O  2002  1  0.17015600  0.06541800  0.23195300  1
  O  2022  1  0.38566900  0.96299000  0.68941600  1
  O  2029  1  0.24249900  0.88166100  0.75476200  1
  O  2031  1  0.36059200  0.90363200  0.72964600  1
  O  2032  1  0.28998300  0.95967700  0.73195700  1
  O  2052  1  0.18081500  0.85681000  0.43956600  1
  O  2059  1  0.09931000  0.99988600  0.50476900  1
  O  2061  1  0.12152900  0.88192700  0.47988400  1
  O  2062  1  0.17762900  0.95249000  0.48204300  1
  O  2082  1  0.27933300  0.16829200  0.93956600  1
  O  2089  1  0.36083800  0.02520800  0.00476361  1
  O  2091  1  0.33861600  0.14317300  0.97988000  1
  O  2092  1  0.28251900  0.07260700  0.98203900  1
  O  2112  1  0.38602800  0.06859300  0.60993200  1
  O  2119  1  0.24303300  0.14425900  0.54257900  1
  O  2121  1  0.36057100  0.11914700  0.56671300  1
  O  2122  1  0.29024800  0.06686500  0.56614700  1
  O  2142  1  0.07411600  0.95649600  0.10993000  1
  O  2149  1  0.21711600  0.88083600  0.04258060  1
  O  2151  1  0.09956800  0.90595600  0.06670360  1
  O  2152  1  0.16989700  0.95823700  0.06614060  1
  O  2172  1  0.28591500  0.85651200  0.35976300  1
  O  2179  1  0.36174200  0.99935100  0.29253200  1
  O  2181  1  0.33630200  0.88200300  0.31645900  1
  O  2182  1  0.28403500  0.95232500  0.31606900  1
  O  2202  1  0.17422500  0.16858000  0.85976200  1
  O  2209  1  0.09839700  0.02573100  0.79253600  1
  O  2211  1  0.12383600  0.14308600  0.81645900  1
  O  2212  1  0.17610500  0.07276100  0.81607100  1
  O  2232  1  0.88407600  0.95590400  0.10985700  1
  O  2239  1  0.74071300  0.88114500  0.04207860  1
  O  2241  1  0.85803800  0.89634600  0.06976360  1
  O  2242  1  0.78893000  0.95895800  0.06462860  1
  O  2262  1  0.57606700  0.06919900  0.60985900  1
  O  2269  1  0.71943500  0.14395700  0.54208300  1
  O  2271  1  0.60209600  0.12876100  0.56976500  1
  O  2272  1  0.67121300  0.06614000  0.56462600  1
  O  2292  1  0.77971000  0.16807000  0.85737300  1
  O  2299  1  0.86161900  0.02534200  0.79208200  1
  O  2301  1  0.83927300  0.14311600  0.81714000  1
  O  2302  1  0.78315500  0.07239100  0.81485800  1
  O  2322  1  0.68042900  0.85701900  0.35737400  1
  O  2329  1  0.59852200  0.99975500  0.29208500  1
  O  2331  1  0.62087000  0.88197600  0.31714300  1
  O  2332  1  0.67698600  0.95270300  0.31486100  1
  O  2352  1  0.57670300  0.94884900  0.68395200  1
  O  2359  1  0.71861400  0.88075600  0.75426800  1
  O  2361  1  0.60103400  0.89797800  0.72728200  1
  O  2362  1  0.67081000  0.95776500  0.73057900  1
  O  2382  1  0.88344200  0.07625600  0.18394800  1
  O  2389  1  0.74152700  0.14433700  0.25426700  1
  O  2391  1  0.85911800  0.12711800  0.22728400  1
  O  2392  1  0.78933600  0.06732700  0.23058200  1
  O  2412  1  0.67373900  0.16829500  0.93687500  1
  O  2419  1  0.59773500  0.02557000  0.00412761  1
  O  2421  1  0.62301000  0.14283900  0.98008000  1
  O  2422  1  0.67546500  0.07257600  0.98048500  1
  O  2442  1  0.78640900  0.85680600  0.43687600  1
  O  2449  1  0.86241000  0.99953300  0.50412800  1
  O  2451  1  0.83714000  0.88226600  0.48007900  1
  O  2452  1  0.78468200  0.95252800  0.48048400  1
  O  2472  1  0.57625300  0.56254700  0.68937600  1
  O  2479  1  0.71903200  0.64418700  0.75484600  1
  O  2481  1  0.60116300  0.62216700  0.72952900  1
  O  2482  1  0.67170500  0.56611400  0.73201700  1
  O  2502  1  0.88389000  0.46254300  0.18938000  1
  O  2509  1  0.74110500  0.38089900  0.25484000  1
  O  2511  1  0.85898400  0.40292100  0.22953500  1
  O  2512  1  0.78843600  0.45897800  0.23202100  1
  O  2532  1  0.67331900  0.35773400  0.93706900  1
  O  2539  1  0.59830400  0.50101100  0.00466761  1
  O  2541  1  0.61361100  0.38376900  0.97716700  1
  O  2542  1  0.67641300  0.45287800  0.98219700  1
  O  2562  1  0.78682900  0.66736700  0.43707000  1
  O  2569  1  0.86184300  0.52408100  0.50466300  1
  O  2571  1  0.84653400  0.64133000  0.47716600  1
  O  2572  1  0.78373400  0.57221600  0.48219500  1
  O  2592  1  0.88415700  0.56891300  0.11025300  1
  O  2599  1  0.74145700  0.64463100  0.04276660  1
  O  2601  1  0.85877200  0.61972100  0.06709860  1
  O  2602  1  0.78868200  0.56732800  0.06652160  1
  O  2622  1  0.57598600  0.45617500  0.61025100  1
  O  2629  1  0.71869200  0.38046400  0.54277000  1
  O  2631  1  0.60136500  0.40538000  0.56709100  1
  O  2632  1  0.67146300  0.45777300  0.56651700  1
  O  2652  1  0.79393400  0.35850600  0.86285500  1
  O  2659  1  0.86238600  0.50051400  0.79284300  1
  O  2661  1  0.84498500  0.38295900  0.81955800  1
  O  2662  1  0.78504100  0.45269200  0.81637100  1
  O  2682  1  0.66620900  0.66658500  0.36285400  1
  O  2689  1  0.59775500  0.52457400  0.29284500  1
  O  2691  1  0.61515800  0.64212900  0.31955800  1
  O  2692  1  0.67510300  0.57239400  0.31637200  1
  O  2712  1  0.38590900  0.45553600  0.61005300  1
  O  2719  1  0.24269800  0.38074100  0.54219000  1
  O  2721  1  0.35993000  0.39597100  0.56995400  1
  O  2722  1  0.29068900  0.45856400  0.56485300  1
  O  2742  1  0.07423300  0.56956900  0.11005600  1
  O  2749  1  0.21744900  0.64436200  0.04219260  1
  O  2751  1  0.10020500  0.62913400  0.06995360  1
  O  2752  1  0.16945400  0.56653500  0.06484960  1
  O  2772  1  0.28615400  0.66718500  0.35959700  1
  O  2779  1  0.36055000  0.52354400  0.29203100  1
  O  2781  1  0.34532900  0.64096000  0.31932500  1
  O  2782  1  0.28248700  0.57189300  0.31444200  1
  O  2802  1  0.17398600  0.35790500  0.85959600  1
  O  2809  1  0.09959000  0.50155400  0.79203400  1
  O  2811  1  0.11481200  0.38413400  0.81932400  1
  O  2812  1  0.17765500  0.45320400  0.81444400  1
  O  2832  1  0.07497900  0.44848900  0.18393700  1
  O  2839  1  0.21695100  0.38003300  0.25414300  1
  O  2841  1  0.09936000  0.39732200  0.22716800  1
  O  2842  1  0.16918800  0.45712200  0.23050800  1
  O  2862  1  0.38516700  0.57661600  0.68393200  1
  O  2869  1  0.24319200  0.64506200  0.75414100  1
  O  2871  1  0.36079200  0.62777400  0.72716900  1
  O  2872  1  0.29095800  0.56797000  0.73051000  1
  O  2892  1  0.16675600  0.66644700  0.43427800  1
  O  2899  1  0.09903700  0.52427000  0.50436000  1
  O  2901  1  0.11637100  0.64196200  0.47777300  1
  O  2902  1  0.17634100  0.57228800  0.48088900  1
  O  2922  1  0.29338700  0.35865400  0.93427900  1
  O  2929  1  0.36110800  0.50083500  0.00435961  1
  O  2931  1  0.34377200  0.38314100  0.97777300  1
  O  2932  1  0.28380400  0.45281700  0.98088900  1
