# generated using pymatgen
data_H38(C16N)3
_symmetry_space_group_name_H-M   'P 1'
_cell_length_a   67.51090000
_cell_length_b   67.51140000
_cell_length_c   67.51180000
_cell_angle_alpha   90.00000000
_cell_angle_beta   90.00000000
_cell_angle_gamma   90.00000000
_symmetry_Int_Tables_number   1
_chemical_formula_structural   H38(C16N)3
_chemical_formula_sum   'H912 C1152 N72'
_cell_volume   307702.26927597
_cell_formula_units_Z   24
loop_
 _symmetry_equiv_pos_site_id
 _symmetry_equiv_pos_as_xyz
  1  'x, y, z'
loop_
 _atom_site_type_symbol
 _atom_site_label
 _atom_site_symmetry_multiplicity
 _atom_site_fract_x
 _atom_site_fract_y
 _atom_site_fract_z
 _atom_site_occupancy
  H  31  1  0.89100000  0.17389400  0.33640800  1
  H  32  1  0.92255200  0.16968100  0.35249900  1
  H  33  1  0.91861500  0.20530200  0.29006500  1
  H  34  1  0.95022900  0.20106200  0.30588900  1
  H  35  1  0.97245700  0.19170600  0.39335400  1
  H  36  1  0.99827900  0.19242800  0.33674100  1
  H  37  1  0.03452300  0.19234400  0.38740400  1
  H  38  1  0.05164200  0.17040500  0.31206700  1
  H  39  1  0.96603100  0.18960700  0.45154800  1
  H  40  1  0.96739700  0.19445000  0.48675400  1
  H  41  1  0.02908100  0.18511700  0.48586400  1
  H  42  1  0.02794300  0.18021700  0.45057200  1
  H  43  1  0.07775100  0.17300100  0.28815400  1
  H  44  1  0.11400000  0.20112200  0.33050200  1
  H  45  1  0.08800100  0.19836400  0.35467300  1
  H  46  1  0.98581200  0.17210600  0.42240000  1
  H  47  1  0.01563900  0.20263300  0.41901900  1
  H  48  1  0.96690800  0.17311800  0.33273500  1
  H  49  1  0.95415800  0.20190100  0.36185100  1
  H  50  1  0.05394000  0.17355700  0.36064400  1
  H  51  1  0.03385100  0.20227700  0.33600700  1
  H  53  1  0.00773300  0.20540100  0.51275700  1
  H  55  1  0.87375400  0.19892700  0.31120200  1
  H  57  1  0.10842800  0.18801100  0.27882000  1
  H  88  1  0.11208900  0.79040500  0.33633100  1
  H  89  1  0.08054700  0.79461100  0.35244700  1
  H  90  1  0.08444600  0.75897700  0.29001900  1
  H  91  1  0.05284400  0.76321400  0.30586500  1
  H  92  1  0.03061900  0.77264900  0.39334500  1
  H  93  1  0.00481700  0.77187200  0.33672700  1
  H  94  1  0.96855800  0.77198400  0.38737300  1
  H  95  1  0.95145600  0.79381000  0.31199600  1
  H  96  1  0.03704800  0.77471100  0.45153900  1
  H  97  1  0.03568600  0.76986500  0.48674500  1
  H  98  1  0.97400300  0.77920800  0.48586400  1
  H  99  1  0.97513600  0.78411000  0.45057200  1
  H  100  1  0.92537300  0.79116500  0.28806100  1
  H  101  1  0.88911200  0.76304800  0.33040300  1
  H  102  1  0.91508500  0.76585600  0.35459500  1
  H  103  1  0.01727500  0.79222400  0.42240300  1
  H  104  1  0.98742800  0.76171900  0.41899500  1
  H  105  1  0.03618700  0.79117600  0.33270500  1
  H  106  1  0.04892800  0.76242100  0.36185300  1
  H  107  1  0.94911400  0.79071300  0.36057300  1
  H  108  1  0.96926200  0.76199000  0.33598900  1
  H  110  1  0.99535200  0.75891400  0.51275200  1
  H  112  1  0.12932200  0.76535900  0.31112100  1
  H  114  1  0.89470800  0.77614600  0.27871100  1
  H  145  1  0.11137100  0.17389100  0.69587000  1
  H  146  1  0.07965600  0.16977400  0.68010400  1
  H  147  1  0.08437900  0.20574000  0.74227200  1
  H  148  1  0.05260500  0.20161800  0.72676700  1
  H  149  1  0.03073200  0.18401500  0.63885200  1
  H  150  1  0.00440400  0.19495500  0.69422000  1
  H  151  1  0.96862000  0.18697600  0.64382300  1
  H  152  1  0.95197700  0.17153400  0.72076800  1
  H  153  1  0.03717000  0.18238900  0.57978600  1
  H  154  1  0.03557500  0.17650200  0.54474700  1
  H  155  1  0.97390600  0.18591800  0.54575800  1
  H  156  1  0.97527400  0.19186700  0.58087500  1
  H  157  1  0.92575600  0.17479400  0.74447800  1
  H  158  1  0.88923300  0.20049400  0.70083600  1
  H  159  1  0.91534800  0.19702600  0.67687000  1
  H  160  1  0.01760500  0.20151000  0.60801300  1
  H  161  1  0.98755700  0.17154200  0.61381800  1
  H  162  1  0.03491500  0.17492200  0.70115600  1
  H  163  1  0.04920000  0.19896800  0.66867200  1
  H  164  1  0.95022500  0.17085400  0.67331400  1
  H  165  1  0.96836700  0.20418200  0.69324800  1
  H  167  1  0.99508100  0.16534100  0.51891400  1
  H  169  1  0.12901000  0.19897700  0.72080500  1
  H  171  1  0.89465000  0.18919600  0.75304700  1
  H  202  1  0.89172500  0.79041400  0.69595100  1
  H  203  1  0.92342600  0.79453700  0.68016000  1
  H  204  1  0.91875900  0.75856900  0.74233100  1
  H  205  1  0.95052000  0.76270000  0.72680200  1
  H  206  1  0.97236800  0.78031300  0.63887400  1
  H  207  1  0.99867900  0.76932400  0.69423900  1
  H  208  1  0.03447700  0.77727400  0.64384900  1
  H  209  1  0.05107900  0.79268900  0.72082600  1
  H  210  1  0.96592500  0.78193200  0.57980000  1
  H  211  1  0.96752000  0.78781400  0.54476000  1
  H  212  1  0.02918600  0.77837600  0.54577000  1
  H  213  1  0.02781700  0.77243000  0.58088700  1
  H  214  1  0.07727200  0.78940000  0.74456200  1
  H  215  1  0.11381000  0.76365800  0.70095900  1
  H  216  1  0.08772400  0.76715700  0.67696500  1
  H  217  1  0.98547100  0.76281400  0.60802700  1
  H  218  1  0.01556100  0.79273500  0.61384100  1
  H  219  1  0.96819400  0.78938300  0.70118700  1
  H  220  1  0.95388100  0.76536700  0.66869400  1
  H  221  1  0.05286600  0.79338800  0.67338900  1
  H  222  1  0.03469900  0.76003700  0.69326300  1
  H  224  1  0.00801400  0.79896600  0.51892700  1
  H  226  1  0.87411300  0.76531600  0.72089700  1
  H  228  1  0.10835900  0.77498400  0.75316700  1
  H  259  1  0.32200900  0.87161600  0.20765400  1
  H  260  1  0.33809700  0.90317400  0.20345000  1
  H  261  1  0.27567400  0.89921300  0.23909200  1
  H  262  1  0.29149500  0.93083100  0.23486100  1
  H  263  1  0.37895400  0.95306900  0.22548800  1
  H  264  1  0.32233900  0.97889300  0.22619900  1
  H  265  1  0.37300100  0.01513500  0.22608700  1
  H  266  1  0.29765700  0.03226000  0.20416600  1
  H  267  1  0.43713400  0.94664800  0.22337100  1
  H  268  1  0.47234000  0.94800800  0.22822700  1
  H  269  1  0.47146500  0.00969000  0.21887600  1
  H  270  1  0.43617400  0.00855700  0.21396300  1
  H  271  1  0.27375000  0.05837400  0.20676700  1
  H  272  1  0.31611400  0.09461400  0.23487900  1
  H  273  1  0.34027700  0.06861000  0.23211400  1
  H  274  1  0.40799800  0.96641400  0.20586800  1
  H  275  1  0.40461800  0.99625600  0.23638300  1
  H  276  1  0.31835600  0.94750900  0.20687800  1
  H  277  1  0.34743300  0.93478300  0.23571200  1
  H  278  1  0.34623600  0.03455300  0.20730200  1
  H  279  1  0.32160600  0.01446200  0.23602700  1
  H  281  1  0.49834600  0.98834000  0.23917600  1
  H  283  1  0.29681200  0.85435700  0.23269100  1
  H  285  1  0.26442400  0.08905500  0.22177600  1
  H  316  1  0.32153800  0.09195000  0.82419900  1
  H  317  1  0.33732400  0.06024400  0.82830800  1
  H  318  1  0.27516300  0.06494100  0.79232300  1
  H  319  1  0.29068700  0.03317600  0.79644100  1
  H  320  1  0.37861300  0.01131300  0.81408000  1
  H  321  1  0.32324700  0.98500000  0.80310000  1
  H  322  1  0.37363600  0.94920300  0.81106500  1
  H  323  1  0.29666000  0.93260000  0.82649000  1
  H  324  1  0.43768100  0.01775800  0.81571900  1
  H  325  1  0.47272200  0.01616900  0.82159300  1
  H  326  1  0.47172700  0.95450900  0.81212400  1
  H  327  1  0.43660800  0.95587200  0.80618700  1
  H  328  1  0.27291800  0.90641500  0.82319100  1
  H  329  1  0.31650500  0.86988200  0.79741800  1
  H  330  1  0.34050700  0.89596000  0.80092400  1
  H  331  1  0.40945700  0.99821300  0.79659000  1
  H  332  1  0.40364900  0.96812000  0.82650800  1
  H  333  1  0.31630200  0.01549300  0.82314800  1
  H  334  1  0.34879400  0.02979600  0.79912600  1
  H  335  1  0.34408800  0.93081500  0.82717700  1
  H  336  1  0.32422600  0.94897400  0.79381700  1
  H  338  1  0.49856900  0.97567600  0.83272000  1
  H  340  1  0.29660400  0.10958000  0.79909900  1
  H  342  1  0.26430100  0.87534000  0.80875400  1
  H  373  1  0.68148100  0.09197000  0.20760500  1
  H  374  1  0.66571800  0.06025200  0.20350500  1
  H  375  1  0.72786800  0.06500400  0.23950000  1
  H  376  1  0.71236500  0.03322600  0.23539300  1
  H  377  1  0.62445200  0.01136300  0.21777400  1
  H  378  1  0.67980900  0.98501900  0.22875100  1
  H  379  1  0.62939900  0.94925100  0.22077200  1
  H  380  1  0.70631900  0.93258700  0.20524600  1
  H  381  1  0.56537100  0.01779700  0.21616400  1
  H  382  1  0.53033200  0.01618900  0.21027200  1
  H  383  1  0.53136200  0.95452200  0.21970400  1
  H  384  1  0.56647600  0.95590400  0.22565800  1
  H  385  1  0.73004100  0.90637800  0.20851300  1
  H  386  1  0.68646900  0.86991400  0.23441500  1
  H  387  1  0.66248900  0.89601700  0.23094200  1
  H  388  1  0.59360700  0.99823800  0.23529100  1
  H  389  1  0.59940400  0.96819400  0.20531700  1
  H  390  1  0.68675300  0.01551700  0.20868400  1
  H  391  1  0.65427700  0.02982700  0.23272800  1
  H  392  1  0.65894100  0.93088500  0.20461600  1
  H  393  1  0.67878900  0.94896900  0.23802700  1
  H  395  1  0.50451400  0.97568600  0.19911900  1
  H  397  1  0.70639300  0.10962500  0.23270200  1
  H  399  1  0.73864900  0.87530500  0.22297200  1
  H  430  1  0.68114800  0.87163600  0.82414800  1
  H  431  1  0.66503700  0.90318000  0.82835800  1
  H  432  1  0.72747600  0.89927800  0.79274200  1
  H  433  1  0.71163200  0.93088200  0.79698000  1
  H  434  1  0.62415300  0.95310600  0.80639000  1
  H  435  1  0.68077200  0.97891400  0.80563900  1
  H  436  1  0.63012100  0.01517000  0.80576300  1
  H  437  1  0.70549700  0.03225800  0.82760500  1
  H  438  1  0.56596100  0.94667000  0.80845200  1
  H  439  1  0.53075600  0.94803000  0.80360400  1
  H  440  1  0.53162600  0.00970600  0.81298400  1
  H  441  1  0.56691900  0.00857500  0.81788700  1
  H  442  1  0.72943500  0.05834000  0.82497900  1
  H  443  1  0.68709200  0.09463300  0.79690600  1
  H  444  1  0.66289800  0.06866100  0.79969500  1
  H  445  1  0.59510100  0.96643100  0.82596600  1
  H  446  1  0.59849600  0.99630900  0.79549500  1
  H  447  1  0.68478300  0.94754300  0.82493600  1
  H  448  1  0.65565200  0.93480100  0.79616900  1
  H  449  1  0.65690900  0.03460900  0.82450100  1
  H  450  1  0.68151700  0.01447600  0.79579200  1
  H  452  1  0.50474000  0.98836400  0.79267700  1
  H  454  1  0.70636800  0.85440300  0.79911000  1
  H  456  1  0.73879100  0.08900700  0.80996000  1
  H  487  1  0.19334800  0.30255600  0.90535000  1
  H  488  1  0.18911800  0.31868400  0.93688300  1
  H  489  1  0.22472200  0.25623500  0.93304000  1
  H  490  1  0.22046400  0.27209500  0.96463300  1
  H  491  1  0.21109500  0.35958100  0.98680700  1
  H  492  1  0.21180600  0.30297100  0.01263700  1
  H  493  1  0.21171600  0.35363800  0.04887200  1
  H  494  1  0.18978600  0.27830900  0.06601200  1
  H  495  1  0.20900600  0.41778600  0.98037900  1
  H  496  1  0.21384700  0.45299200  0.98174700  1
  H  497  1  0.20449700  0.45210000  0.04342800  1
  H  498  1  0.19960000  0.41680700  0.04228800  1
  H  499  1  0.19237900  0.25440000  0.09212500  1
  H  500  1  0.22050800  0.29675200  0.12836400  1
  H  501  1  0.21775200  0.32091800  0.10236200  1
  H  502  1  0.19150100  0.38863700  0.00015000  1
  H  503  1  0.22201300  0.38524900  0.02999200  1
  H  504  1  0.19251700  0.29895100  0.98126300  1
  H  505  1  0.22129800  0.32807100  0.96851400  1
  H  506  1  0.19294800  0.32689200  0.06830700  1
  H  507  1  0.22164300  0.30223700  0.04820700  1
  H  509  1  0.22478800  0.47899500  0.02208600  1
  H  511  1  0.21838700  0.27732100  0.88814900  1
  H  513  1  0.20739200  0.24506800  0.12280200  1
  H  544  1  0.80979100  0.30257600  0.12651000  1
  H  545  1  0.81399900  0.31869900  0.09497200  1
  H  546  1  0.77835900  0.25627200  0.09885500  1
  H  547  1  0.78259700  0.27212800  0.06725700  1
  H  548  1  0.79201000  0.35960900  0.04506400  1
  H  549  1  0.79127100  0.30300100  0.01923600  1
  H  550  1  0.79137600  0.35366500  0.98300200  1
  H  551  1  0.81328400  0.27832800  0.96585000  1
  H  552  1  0.79408700  0.41781900  0.05149200  1
  H  553  1  0.78924000  0.45302400  0.05012100  1
  H  554  1  0.79858700  0.45212800  0.98844000  1
  H  555  1  0.80348900  0.41683700  0.98958300  1
  H  556  1  0.81066700  0.25441900  0.93973900  1
  H  557  1  0.78249800  0.29677100  0.90352700  1
  H  558  1  0.78528000  0.32093600  0.92952800  1
  H  559  1  0.81160300  0.38867500  0.03171900  1
  H  560  1  0.78108600  0.38527300  0.00188500  1
  H  561  1  0.81056900  0.29897900  0.05061300  1
  H  562  1  0.78179000  0.32810200  0.06335500  1
  H  563  1  0.81013800  0.32689800  0.96356400  1
  H  564  1  0.78141700  0.30227700  0.98367000  1
  H  566  1  0.77829400  0.47902200  0.00978200  1
  H  568  1  0.78474500  0.27736200  0.14373600  1
  H  570  1  0.79565300  0.24508900  0.90906500  1
  H  601  1  0.19323000  0.66210500  0.12572000  1
  H  602  1  0.18912200  0.64634300  0.09400200  1
  H  603  1  0.22511000  0.70849700  0.09874600  1
  H  604  1  0.22099400  0.69299600  0.06697000  1
  H  605  1  0.20338400  0.60509200  0.04506300  1
  H  606  1  0.21436400  0.66046800  0.01877000  1
  H  607  1  0.20641100  0.61008800  0.98295600  1
  H  608  1  0.19099100  0.68706100  0.96635600  1
  H  609  1  0.20176900  0.54603700  0.05150400  1
  H  610  1  0.19588600  0.51099700  0.04991400  1
  H  611  1  0.20531500  0.51200000  0.98824700  1
  H  612  1  0.21126200  0.54711500  0.98961100  1
  H  613  1  0.19428900  0.71079900  0.94016700  1
  H  614  1  0.22005200  0.66720200  0.90363700  1
  H  615  1  0.21654700  0.64320600  0.92972000  1
  H  616  1  0.22088600  0.57425900  0.03195100  1
  H  617  1  0.19095600  0.58007300  0.00186900  1
  H  618  1  0.19430100  0.66739900  0.04926400  1
  H  619  1  0.21832900  0.63490400  0.06355600  1
  H  620  1  0.19030600  0.63962300  0.96456500  1
  H  621  1  0.22364400  0.65950200  0.98274600  1
  H  623  1  0.18473300  0.48515700  0.00942400  1
  H  625  1  0.21832600  0.68702100  0.14337100  1
  H  627  1  0.20871600  0.71940600  0.90908500  1
  H  658  1  0.80980600  0.66212300  0.90614700  1
  H  659  1  0.81392700  0.64636700  0.93786600  1
  H  660  1  0.77796100  0.70853400  0.93313100  1
  H  661  1  0.78208900  0.69303900  0.96490700  1
  H  662  1  0.79969100  0.60512800  0.98680700  1
  H  663  1  0.78872800  0.66050200  0.01311000  1
  H  664  1  0.79667900  0.61011700  0.04891500  1
  H  665  1  0.81209600  0.68709300  0.06550100  1
  H  666  1  0.80130700  0.54607000  0.98036100  1
  H  667  1  0.80719000  0.51103000  0.98194900  1
  H  668  1  0.79776600  0.51202900  0.04361700  1
  H  669  1  0.79181900  0.54714600  0.04225500  1
  H  670  1  0.80881900  0.71083100  0.09169400  1
  H  671  1  0.78312400  0.66722100  0.12825700  1
  H  672  1  0.78661000  0.64322700  0.10217100  1
  H  673  1  0.78219100  0.57429300  0.99991800  1
  H  674  1  0.81212600  0.58010100  0.02999700  1
  H  675  1  0.80877800  0.66743300  0.98260800  1
  H  676  1  0.78474300  0.63494100  0.96832200  1
  H  677  1  0.81279800  0.63964200  0.06730000  1
  H  678  1  0.77946300  0.65954100  0.04913300  1
  H  680  1  0.81835000  0.48518900  0.02243700  1
  H  682  1  0.78471700  0.68705300  0.88850400  1
  H  684  1  0.79440600  0.71943300  0.12278500  1
  H  709  1  0.22728000  0.25128400  0.16668200  1
  H  710  1  0.23067300  0.22597400  0.19130900  1
  H  711  1  0.16726900  0.23566800  0.15890300  1
  H  712  1  0.17057800  0.21042500  0.18342100  1
  H  713  1  0.17693400  0.21129300  0.25972200  1
  H  714  1  0.15231000  0.20789800  0.28503300  1
  H  715  1  0.16904400  0.15120400  0.24416300  1
  H  716  1  0.14452700  0.14789100  0.26940900  1
  H  717  1  0.24534600  0.15756600  0.24504300  1
  H  718  1  0.27065300  0.13293600  0.24165100  1
  H  719  1  0.25502700  0.12514900  0.18164500  1
  H  720  1  0.22978800  0.14967300  0.18495400  1
  H  721  1  0.22825400  0.18730600  0.19197500  1
  H  722  1  0.17759700  0.20888200  0.22105000  1
  H  723  1  0.20667200  0.15822500  0.24262600  1
  H  725  1  0.29533800  0.11869400  0.21232600  1
  H  726  1  0.28177800  0.10579500  0.19412000  1
  H  728  1  0.19795600  0.27597700  0.15244900  1
  H  729  1  0.17974300  0.26242400  0.13955400  1
  H  731  1  0.13808000  0.17857000  0.30972200  1
  H  732  1  0.12518200  0.16036100  0.29616900  1
  H  757  1  0.77533900  0.71317500  0.16673500  1
  H  758  1  0.77210700  0.73840200  0.19147500  1
  H  759  1  0.83520000  0.72906200  0.15837400  1
  H  760  1  0.83205600  0.75419900  0.18302600  1
  H  761  1  0.82616000  0.75290700  0.25954000  1
  H  762  1  0.85082600  0.75623400  0.28482400  1
  H  763  1  0.83402600  0.81303900  0.24413800  1
  H  764  1  0.85858200  0.81628300  0.26935000  1
  H  765  1  0.75758800  0.80663300  0.24528900  1
  H  766  1  0.73235800  0.83137600  0.24208500  1
  H  767  1  0.74814000  0.83969400  0.18218900  1
  H  768  1  0.77327700  0.81503900  0.18530500  1
  H  769  1  0.77453300  0.77721100  0.19210700  1
  H  770  1  0.82531000  0.75544900  0.22084200  1
  H  771  1  0.79639600  0.80605100  0.24277400  1
  H  773  1  0.70777600  0.84592700  0.21271600  1
  H  774  1  0.72149300  0.85905800  0.19479900  1
  H  776  1  0.80476100  0.68863400  0.15219900  1
  H  777  1  0.82263400  0.70237500  0.13903700  1
  H  779  1  0.86501800  0.78552600  0.30959100  1
  H  780  1  0.87791900  0.80376700  0.29608500  1
  H  805  1  0.77572600  0.25126300  0.86520200  1
  H  806  1  0.77237900  0.22596300  0.84055600  1
  H  807  1  0.83577500  0.23577800  0.87294000  1
  H  808  1  0.83251300  0.21054800  0.84840300  1
  H  809  1  0.82599000  0.21149200  0.77197400  1
  H  810  1  0.85070900  0.20824500  0.74672900  1
  H  811  1  0.83445100  0.15155200  0.78779900  1
  H  812  1  0.85908400  0.14839300  0.76264600  1
  H  813  1  0.75793600  0.15754800  0.78670300  1
  H  814  1  0.73264400  0.13290100  0.79007700  1
  H  815  1  0.74823800  0.12512000  0.85009200  1
  H  816  1  0.77346400  0.14965800  0.84680100  1
  H  817  1  0.77491100  0.18728100  0.83981800  1
  H  818  1  0.82548200  0.20908900  0.81077000  1
  H  819  1  0.79662300  0.15833500  0.78914100  1
  H  821  1  0.70793200  0.11869800  0.81941100  1
  H  822  1  0.72147500  0.10578500  0.83761900  1
  H  824  1  0.80501000  0.27601700  0.87941600  1
  H  825  1  0.82326000  0.26250200  0.89229600  1
  H  827  1  0.86527900  0.17882900  0.72220900  1
  H  828  1  0.87843500  0.16096100  0.73596500  1
  H  853  1  0.22781800  0.71319100  0.86514700  1
  H  854  1  0.23100100  0.73840900  0.84039000  1
  H  855  1  0.16791700  0.72894700  0.87347300  1
  H  856  1  0.17101200  0.75407000  0.84880500  1
  H  857  1  0.17706200  0.75270600  0.77216500  1
  H  858  1  0.15230100  0.75588900  0.74695000  1
  H  859  1  0.16864200  0.81269300  0.78783000  1
  H  860  1  0.14397000  0.81578900  0.76271000  1
  H  861  1  0.24529100  0.80664500  0.78646000  1
  H  862  1  0.27050800  0.83140200  0.78964900  1
  H  863  1  0.25475200  0.83971900  0.84955000  1
  H  864  1  0.22962800  0.81505100  0.84645100  1
  H  865  1  0.22846300  0.77723200  0.83968600  1
  H  866  1  0.17776800  0.75523900  0.81098500  1
  H  867  1  0.20646500  0.80594000  0.78899700  1
  H  869  1  0.29511300  0.84591400  0.81903100  1
  H  870  1  0.28141100  0.85906400  0.83694200  1
  H  872  1  0.19843900  0.68858800  0.87966600  1
  H  873  1  0.18052800  0.70229100  0.89281600  1
  H  875  1  0.13777700  0.78526800  0.72235000  1
  H  876  1  0.12462500  0.80317600  0.73605400  1
  H  901  1  0.77481200  0.71770900  0.87043700  1
  H  902  1  0.77154000  0.74108300  0.84432600  1
  H  903  1  0.83659600  0.72724600  0.87133100  1
  H  904  1  0.83326300  0.75131500  0.84582200  1
  H  905  1  0.82997800  0.75211000  0.77495400  1
  H  906  1  0.85608000  0.75539700  0.75157100  1
  H  907  1  0.83143800  0.81383500  0.78518200  1
  H  908  1  0.85694200  0.81718100  0.76110600  1
  H  909  1  0.76059000  0.81054100  0.78593300  1
  H  910  1  0.73711000  0.83655300  0.78923600  1
  H  911  1  0.74650700  0.83728600  0.85104100  1
  H  912  1  0.77068200  0.81188400  0.84768200  1
  H  913  1  0.77468000  0.77698900  0.83965200  1
  H  914  1  0.82529500  0.75524900  0.81086800  1
  H  915  1  0.79648800  0.80584700  0.78910400  1
  H  917  1  0.71329600  0.85092200  0.83355400  1
  H  918  1  0.73310600  0.86792700  0.83116800  1
  H  920  1  0.81913300  0.69407400  0.88510800  1
  H  921  1  0.81663500  0.71398400  0.90197800  1
  H  923  1  0.87071000  0.79973100  0.72792700  1
  H  924  1  0.88759300  0.79723200  0.74782400  1
  H  949  1  0.22825700  0.24657900  0.87030600  1
  H  950  1  0.23156100  0.22309600  0.84429900  1
  H  951  1  0.16644700  0.23718700  0.87103500  1
  H  952  1  0.16981000  0.21300700  0.84563800  1
  H  953  1  0.17318300  0.21214100  0.77483800  1
  H  954  1  0.14707500  0.20887400  0.75145900  1
  H  955  1  0.17166300  0.15041900  0.78507800  1
  H  956  1  0.14615500  0.14709300  0.76100500  1
  H  957  1  0.24253600  0.15370200  0.78588100  1
  H  958  1  0.26592300  0.12760400  0.78917100  1
  H  959  1  0.25638200  0.12674500  0.85095400  1
  H  960  1  0.23230500  0.15224500  0.84760300  1
  H  961  1  0.22838400  0.18719800  0.83960800  1
  H  962  1  0.17784000  0.20900500  0.81074500  1
  H  963  1  0.20662000  0.15838200  0.78901700  1
  H  965  1  0.28955900  0.11297400  0.83351000  1
  H  966  1  0.26966500  0.09608700  0.83100200  1
  H  968  1  0.18393800  0.27040200  0.88466100  1
  H  969  1  0.18631500  0.25059600  0.90167100  1
  H  971  1  0.13239400  0.16455700  0.72782400  1
  H  972  1  0.11552300  0.16706200  0.74773200  1
  H  997  1  0.22825200  0.71767300  0.16142400  1
  H  998  1  0.23154500  0.74105500  0.18752300  1
  H  999  1  0.16647500  0.72725800  0.16052900  1
  H  1000  1  0.16982900  0.75133400  0.18603100  1
  H  1001  1  0.17315400  0.75214200  0.25689200  1
  H  1002  1  0.14715600  0.75546500  0.28038100  1
  H  1003  1  0.17181400  0.81388400  0.24675100  1
  H  1004  1  0.14642400  0.81726700  0.27093900  1
  H  1005  1  0.24260700  0.81048400  0.24587700  1
  H  1006  1  0.26609100  0.83648900  0.24256800  1
  H  1007  1  0.25664500  0.83725900  0.18077000  1
  H  1008  1  0.23246000  0.81186300  0.18413700  1
  H  1009  1  0.22843300  0.77696400  0.19216400  1
  H  1010  1  0.17781400  0.75528500  0.22099000  1
  H  1011  1  0.20671200  0.80583900  0.24273400  1
  H  1013  1  0.28987300  0.85088500  0.19824800  1
  H  1014  1  0.27006000  0.86788400  0.20064400  1
  H  1016  1  0.18391400  0.69406800  0.14675800  1
  H  1017  1  0.18643100  0.71397200  0.12988300  1
  H  1019  1  0.13280200  0.79980000  0.30417500  1
  H  1020  1  0.11579300  0.79740500  0.28437100  1
  H  1045  1  0.77485200  0.24662400  0.16156400  1
  H  1046  1  0.77152800  0.22313300  0.18756100  1
  H  1047  1  0.83665200  0.23718100  0.16083100  1
  H  1048  1  0.83327000  0.21299200  0.18621900  1
  H  1049  1  0.82987100  0.21210800  0.25701000  1
  H  1050  1  0.85587700  0.20879900  0.28049000  1
  H  1051  1  0.83125600  0.15036900  0.24685500  1
  H  1052  1  0.85665200  0.14700000  0.27103700  1
  H  1053  1  0.76044100  0.15375900  0.24593200  1
  H  1054  1  0.73705000  0.12766800  0.24263500  1
  H  1055  1  0.74664100  0.12677700  0.18085900  1
  H  1056  1  0.77072600  0.15227200  0.18421800  1
  H  1057  1  0.77467500  0.18722900  0.19221200  1
  H  1058  1  0.82522600  0.20897200  0.22111900  1
  H  1059  1  0.79635300  0.15839100  0.24282600  1
  H  1061  1  0.71344800  0.11301200  0.19829400  1
  H  1062  1  0.73334600  0.09613100  0.20081100  1
  H  1064  1  0.81918700  0.27041400  0.14720900  1
  H  1065  1  0.81678900  0.25061300  0.13019600  1
  H  1067  1  0.87027600  0.16448000  0.30427300  1
  H  1068  1  0.88726900  0.16687100  0.28445600  1
  H  1099  1  0.08356150  0.36645400  0.52896700  1
  H  1100  1  0.11511300  0.36224100  0.54505800  1
  H  1101  1  0.11117600  0.39786200  0.48262400  1
  H  1102  1  0.14279000  0.39362200  0.49844800  1
  H  1103  1  0.16501800  0.38426600  0.58591300  1
  H  1104  1  0.19084000  0.38498800  0.52930000  1
  H  1105  1  0.22708400  0.38490400  0.57996300  1
  H  1106  1  0.24420300  0.36296500  0.50462600  1
  H  1107  1  0.15859200  0.38216700  0.64410700  1
  H  1108  1  0.15995800  0.38701000  0.67931300  1
  H  1109  1  0.22164200  0.37767700  0.67842300  1
  H  1110  1  0.22050400  0.37277700  0.64313100  1
  H  1111  1  0.27031200  0.36556100  0.48071300  1
  H  1112  1  0.30656100  0.39368200  0.52306100  1
  H  1113  1  0.28056200  0.39092400  0.54723200  1
  H  1114  1  0.17837300  0.36466600  0.61495900  1
  H  1115  1  0.20820000  0.39519300  0.61157800  1
  H  1116  1  0.15946900  0.36567800  0.52529400  1
  H  1117  1  0.14671900  0.39446100  0.55441000  1
  H  1118  1  0.24650100  0.36611700  0.55320300  1
  H  1119  1  0.22641200  0.39483700  0.52856600  1
  H  1121  1  0.20029400  0.39796100  0.70531600  1
  H  1123  1  0.06631550  0.39148700  0.50376100  1
  H  1125  1  0.30098900  0.38057100  0.47137900  1
  H  1156  1  0.30465000  0.98296500  0.52889000  1
  H  1157  1  0.27310800  0.98717100  0.54500600  1
  H  1158  1  0.27700700  0.95153700  0.48257800  1
  H  1159  1  0.24540500  0.95577400  0.49842400  1
  H  1160  1  0.22318000  0.96520900  0.58590400  1
  H  1161  1  0.19737800  0.96443200  0.52928600  1
  H  1162  1  0.16111900  0.96454400  0.57993200  1
  H  1163  1  0.14401700  0.98637000  0.50455500  1
  H  1164  1  0.22960900  0.96727100  0.64409800  1
  H  1165  1  0.22824700  0.96242500  0.67930400  1
  H  1166  1  0.16656400  0.97176800  0.67842300  1
  H  1167  1  0.16769700  0.97667000  0.64313100  1
  H  1168  1  0.11793400  0.98372500  0.48062000  1
  H  1169  1  0.08167350  0.95560800  0.52296200  1
  H  1170  1  0.10764600  0.95841600  0.54715400  1
  H  1171  1  0.20983600  0.98478400  0.61496200  1
  H  1172  1  0.17998900  0.95427900  0.61155400  1
  H  1173  1  0.22874800  0.98373600  0.52526400  1
  H  1174  1  0.24148900  0.95498100  0.55441200  1
  H  1175  1  0.14167500  0.98327300  0.55313200  1
  H  1176  1  0.16182300  0.95455000  0.52854800  1
  H  1178  1  0.18791300  0.95147400  0.70531100  1
  H  1180  1  0.32188300  0.95791900  0.50368000  1
  H  1182  1  0.08726950  0.96870600  0.47127000  1
  H  1213  1  0.30393200  0.36645100  0.88842900  1
  H  1214  1  0.27221700  0.36233400  0.87266300  1
  H  1215  1  0.27694000  0.39830000  0.93483100  1
  H  1216  1  0.24516600  0.39417800  0.91932600  1
  H  1217  1  0.22329300  0.37657500  0.83141100  1
  H  1218  1  0.19696500  0.38751500  0.88677900  1
  H  1219  1  0.16118100  0.37953600  0.83638200  1
  H  1220  1  0.14453800  0.36409400  0.91332700  1
  H  1221  1  0.22973100  0.37494900  0.77234500  1
  H  1222  1  0.22813600  0.36906200  0.73730600  1
  H  1223  1  0.16646700  0.37847800  0.73831700  1
  H  1224  1  0.16783500  0.38442700  0.77343400  1
  H  1225  1  0.11831700  0.36735400  0.93703700  1
  H  1226  1  0.08179450  0.39305400  0.89339500  1
  H  1227  1  0.10790900  0.38958600  0.86942900  1
  H  1228  1  0.21016600  0.39407000  0.80057200  1
  H  1229  1  0.18011800  0.36410200  0.80637700  1
  H  1230  1  0.22747600  0.36748200  0.89371500  1
  H  1231  1  0.24176100  0.39152800  0.86123100  1
  H  1232  1  0.14278600  0.36341400  0.86587300  1
  H  1233  1  0.16092800  0.39674200  0.88580700  1
  H  1235  1  0.18764200  0.35790100  0.71147300  1
  H  1237  1  0.32157100  0.39153700  0.91336400  1
  H  1239  1  0.08721150  0.38175600  0.94560600  1
  H  1270  1  0.08428650  0.98297400  0.88851000  1
  H  1271  1  0.11598700  0.98709700  0.87271900  1
  H  1272  1  0.11132000  0.95112900  0.93489000  1
  H  1273  1  0.14308100  0.95526000  0.91936100  1
  H  1274  1  0.16492900  0.97287300  0.83143300  1
  H  1275  1  0.19124000  0.96188400  0.88679800  1
  H  1276  1  0.22703800  0.96983400  0.83640800  1
  H  1277  1  0.24364000  0.98524900  0.91338500  1
  H  1278  1  0.15848600  0.97449200  0.77235900  1
  H  1279  1  0.16008100  0.98037400  0.73731900  1
  H  1280  1  0.22174700  0.97093600  0.73832900  1
  H  1281  1  0.22037800  0.96499000  0.77344600  1
  H  1282  1  0.26983300  0.98196000  0.93712100  1
  H  1283  1  0.30637100  0.95621800  0.89351800  1
  H  1284  1  0.28028500  0.95971700  0.86952400  1
  H  1285  1  0.17803200  0.95537400  0.80058600  1
  H  1286  1  0.20812200  0.98529500  0.80640000  1
  H  1287  1  0.16075500  0.98194300  0.89374600  1
  H  1288  1  0.14644200  0.95792700  0.86125300  1
  H  1289  1  0.24542700  0.98594800  0.86594800  1
  H  1290  1  0.22726000  0.95259700  0.88582200  1
  H  1292  1  0.20057500  0.99152600  0.71148600  1
  H  1294  1  0.06667450  0.95787600  0.91345600  1
  H  1296  1  0.30092000  0.96754400  0.94572600  1
  H  1327  1  0.51457000  0.06417610  0.40021300  1
  H  1328  1  0.53065800  0.09573410  0.39600900  1
  H  1329  1  0.46823500  0.09177310  0.43165100  1
  H  1330  1  0.48405600  0.12339100  0.42742000  1
  H  1331  1  0.57151500  0.14562900  0.41804700  1
  H  1332  1  0.51490000  0.17145300  0.41875800  1
  H  1333  1  0.56556200  0.20769500  0.41864600  1
  H  1334  1  0.49021800  0.22482000  0.39672500  1
  H  1335  1  0.62969500  0.13920800  0.41593000  1
  H  1336  1  0.66490100  0.14056800  0.42078600  1
  H  1337  1  0.66402600  0.20225000  0.41143500  1
  H  1338  1  0.62873500  0.20111700  0.40652200  1
  H  1339  1  0.46631100  0.25093400  0.39932600  1
  H  1340  1  0.50867500  0.28717400  0.42743800  1
  H  1341  1  0.53283800  0.26117000  0.42467300  1
  H  1342  1  0.60055900  0.15897400  0.39842700  1
  H  1343  1  0.59717900  0.18881600  0.42894200  1
  H  1344  1  0.51091700  0.14006900  0.39943700  1
  H  1345  1  0.53999400  0.12734300  0.42827100  1
  H  1346  1  0.53879700  0.22711300  0.39986100  1
  H  1347  1  0.51416700  0.20702200  0.42858600  1
  H  1349  1  0.69090700  0.18090000  0.43173500  1
  H  1351  1  0.48937300  0.04691710  0.42525000  1
  H  1353  1  0.45698500  0.28161500  0.41433500  1
  H  1384  1  0.51409900  0.28451000  0.01675790  1
  H  1385  1  0.52988500  0.25280400  0.02086690  1
  H  1386  1  0.46772400  0.25750100  0.98488200  1
  H  1387  1  0.48324800  0.22573600  0.98900000  1
  H  1388  1  0.57117400  0.20387300  0.00663893  1
  H  1389  1  0.51580800  0.17756000  0.99565900  1
  H  1390  1  0.56619700  0.14176300  0.00362393  1
  H  1391  1  0.48922100  0.12516000  0.01904890  1
  H  1392  1  0.63024200  0.21031800  0.00827793  1
  H  1393  1  0.66528300  0.20872900  0.01415190  1
  H  1394  1  0.66428800  0.14706900  0.00468293  1
  H  1395  1  0.62916900  0.14843200  0.99874600  1
  H  1396  1  0.46547900  0.09897510  0.01574990  1
  H  1397  1  0.50906600  0.06244210  0.98997700  1
  H  1398  1  0.53306800  0.08852010  0.99348300  1
  H  1399  1  0.60201800  0.19077300  0.98914900  1
  H  1400  1  0.59621000  0.16068000  0.01906690  1
  H  1401  1  0.50886300  0.20805300  0.01570690  1
  H  1402  1  0.54135500  0.22235600  0.99168500  1
  H  1403  1  0.53664900  0.12337500  0.01973590  1
  H  1404  1  0.51678700  0.14153400  0.98637600  1
  H  1406  1  0.69113000  0.16823600  0.02527890  1
  H  1408  1  0.48916500  0.30214000  0.99165800  1
  H  1410  1  0.45686200  0.06790010  0.00131293  1
  H  1441  1  0.87404200  0.28453000  0.40016400  1
  H  1442  1  0.85827900  0.25281200  0.39606400  1
  H  1443  1  0.92042900  0.25756400  0.43205900  1
  H  1444  1  0.90492600  0.22578600  0.42795200  1
  H  1445  1  0.81701300  0.20392300  0.41033300  1
  H  1446  1  0.87237000  0.17757900  0.42131000  1
  H  1447  1  0.82196000  0.14181100  0.41333100  1
  H  1448  1  0.89888000  0.12514700  0.39780500  1
  H  1449  1  0.75793200  0.21035700  0.40872300  1
  H  1450  1  0.72289300  0.20874900  0.40283100  1
  H  1451  1  0.72392300  0.14708200  0.41226300  1
  H  1452  1  0.75903700  0.14846400  0.41821700  1
  H  1453  1  0.92260200  0.09893810  0.40107200  1
  H  1454  1  0.87903000  0.06247410  0.42697400  1
  H  1455  1  0.85505000  0.08857710  0.42350100  1
  H  1456  1  0.78616800  0.19079800  0.42785000  1
  H  1457  1  0.79196500  0.16075400  0.39787600  1
  H  1458  1  0.87931400  0.20807700  0.40124300  1
  H  1459  1  0.84683800  0.22238700  0.42528700  1
  H  1460  1  0.85150200  0.12344500  0.39717500  1
  H  1461  1  0.87135000  0.14152900  0.43058600  1
  H  1463  1  0.69707500  0.16824600  0.39167800  1
  H  1465  1  0.89895400  0.30218500  0.42526100  1
  H  1467  1  0.93121000  0.06786510  0.41553100  1
  H  1498  1  0.87370900  0.06419610  0.01670690  1
  H  1499  1  0.85759800  0.09574010  0.02091690  1
  H  1500  1  0.92003700  0.09183810  0.98530100  1
  H  1501  1  0.90419300  0.12344200  0.98953900  1
  H  1502  1  0.81671400  0.14566600  0.99894900  1
  H  1503  1  0.87333300  0.17147400  0.99819800  1
  H  1504  1  0.82268200  0.20773000  0.99832200  1
  H  1505  1  0.89805800  0.22481800  0.02016390  1
  H  1506  1  0.75852200  0.13923000  0.00101093  1
  H  1507  1  0.72331700  0.14059000  0.99616300  1
  H  1508  1  0.72418700  0.20226600  0.00554293  1
  H  1509  1  0.75948000  0.20113500  0.01044590  1
  H  1510  1  0.92199600  0.25090000  0.01753790  1
  H  1511  1  0.87965300  0.28719300  0.98946500  1
  H  1512  1  0.85545900  0.26122100  0.99225400  1
  H  1513  1  0.78766200  0.15899100  0.01852490  1
  H  1514  1  0.79105700  0.18886900  0.98805400  1
  H  1515  1  0.87734400  0.14010300  0.01749490  1
  H  1516  1  0.84821300  0.12736100  0.98872800  1
  H  1517  1  0.84947000  0.22716900  0.01705990  1
  H  1518  1  0.87407800  0.20703600  0.98835100  1
  H  1520  1  0.69730100  0.18092400  0.98523600  1
  H  1522  1  0.89892900  0.04696310  0.99166900  1
  H  1524  1  0.93135200  0.28156700  0.00251893  1
  H  1555  1  0.38590900  0.49511600  0.09790890  1
  H  1556  1  0.38167900  0.51124400  0.12944200  1
  H  1557  1  0.41728300  0.44879500  0.12559900  1
  H  1558  1  0.41302500  0.46465500  0.15719200  1
  H  1559  1  0.40365600  0.55214100  0.17936600  1
  H  1560  1  0.40436700  0.49553100  0.20519600  1
  H  1561  1  0.40427700  0.54619800  0.24143100  1
  H  1562  1  0.38234700  0.47086900  0.25857100  1
  H  1563  1  0.40156700  0.61034600  0.17293800  1
  H  1564  1  0.40640800  0.64555200  0.17430600  1
  H  1565  1  0.39705800  0.64466000  0.23598700  1
  H  1566  1  0.39216100  0.60936700  0.23484700  1
  H  1567  1  0.38494000  0.44696000  0.28468400  1
  H  1568  1  0.41306900  0.48931200  0.32092300  1
  H  1569  1  0.41031300  0.51347800  0.29492100  1
  H  1570  1  0.38406200  0.58119700  0.19270900  1
  H  1571  1  0.41457400  0.57780900  0.22255100  1
  H  1572  1  0.38507800  0.49151100  0.17382200  1
  H  1573  1  0.41385900  0.52063100  0.16107300  1
  H  1574  1  0.38550900  0.51945200  0.26086600  1
  H  1575  1  0.41420400  0.49479700  0.24076600  1
  H  1577  1  0.41734900  0.67155500  0.21464500  1
  H  1579  1  0.41094800  0.46988100  0.08070790  1
  H  1581  1  0.39995300  0.43762800  0.31536100  1
  H  1612  1  0.00235250  0.49513600  0.31906900  1
  H  1613  1  0.00656050  0.51125900  0.28753100  1
  H  1614  1  0.97092000  0.44883200  0.29141400  1
  H  1615  1  0.97515800  0.46468800  0.25981600  1
  H  1616  1  0.98457100  0.55216900  0.23762300  1
  H  1617  1  0.98383200  0.49556100  0.21179500  1
  H  1618  1  0.98393700  0.54622500  0.17556100  1
  H  1619  1  0.00584550  0.47088800  0.15840900  1
  H  1620  1  0.98664800  0.61037900  0.24405100  1
  H  1621  1  0.98180100  0.64558400  0.24268000  1
  H  1622  1  0.99114800  0.64468800  0.18099900  1
  H  1623  1  0.99605000  0.60939700  0.18214200  1
  H  1624  1  0.00322850  0.44697900  0.13229800  1
  H  1625  1  0.97505900  0.48933100  0.09608590  1
  H  1626  1  0.97784100  0.51349600  0.12208700  1
  H  1627  1  0.00416450  0.58123500  0.22427800  1
  H  1628  1  0.97364700  0.57783300  0.19444400  1
  H  1629  1  0.00313050  0.49153900  0.24317200  1
  H  1630  1  0.97435100  0.52066200  0.25591400  1
  H  1631  1  0.00269950  0.51945800  0.15612300  1
  H  1632  1  0.97397800  0.49483700  0.17622900  1
  H  1634  1  0.97085500  0.67158200  0.20234100  1
  H  1636  1  0.97730600  0.46992200  0.33629500  1
  H  1638  1  0.98821400  0.43764900  0.10162400  1
  H  1669  1  0.38579100  0.85466500  0.31827900  1
  H  1670  1  0.38168300  0.83890300  0.28656100  1
  H  1671  1  0.41767100  0.90105700  0.29130500  1
  H  1672  1  0.41355500  0.88555600  0.25952900  1
  H  1673  1  0.39594500  0.79765200  0.23762200  1
  H  1674  1  0.40692500  0.85302800  0.21132900  1
  H  1675  1  0.39897200  0.80264800  0.17551500  1
  H  1676  1  0.38355200  0.87962100  0.15891500  1
  H  1677  1  0.39433000  0.73859700  0.24406300  1
  H  1678  1  0.38844700  0.70355700  0.24247300  1
  H  1679  1  0.39787600  0.70456000  0.18080600  1
  H  1680  1  0.40382300  0.73967500  0.18217000  1
  H  1681  1  0.38685000  0.90335900  0.13272600  1
  H  1682  1  0.41261300  0.85976200  0.09619590  1
  H  1683  1  0.40910800  0.83576600  0.12227900  1
  H  1684  1  0.41344700  0.76681900  0.22451000  1
  H  1685  1  0.38351700  0.77263300  0.19442800  1
  H  1686  1  0.38686200  0.85995900  0.24182300  1
  H  1687  1  0.41089000  0.82746400  0.25611500  1
  H  1688  1  0.38286700  0.83218300  0.15712400  1
  H  1689  1  0.41620500  0.85206200  0.17530500  1
  H  1691  1  0.37729400  0.67771700  0.20198300  1
  H  1693  1  0.41088700  0.87958100  0.33593000  1
  H  1695  1  0.40127700  0.91196600  0.10164400  1
  H  1726  1  0.00236750  0.85468300  0.09870590  1
  H  1727  1  0.00648850  0.83892700  0.13042500  1
  H  1728  1  0.97052200  0.90109400  0.12569000  1
  H  1729  1  0.97465000  0.88559900  0.15746600  1
  H  1730  1  0.99225200  0.79768800  0.17936600  1
  H  1731  1  0.98128900  0.85306200  0.20566900  1
  H  1732  1  0.98924000  0.80267700  0.24147400  1
  H  1733  1  0.00465750  0.87965300  0.25806000  1
  H  1734  1  0.99386800  0.73863000  0.17292000  1
  H  1735  1  0.99975100  0.70359000  0.17450800  1
  H  1736  1  0.99032700  0.70458900  0.23617600  1
  H  1737  1  0.98438000  0.73970600  0.23481400  1
  H  1738  1  0.00138050  0.90339100  0.28425300  1
  H  1739  1  0.97568500  0.85978100  0.32081600  1
  H  1740  1  0.97917100  0.83578700  0.29473000  1
  H  1741  1  0.97475200  0.76685300  0.19247700  1
  H  1742  1  0.00468750  0.77266100  0.22255600  1
  H  1743  1  0.00133950  0.85999300  0.17516700  1
  H  1744  1  0.97730400  0.82750100  0.16088100  1
  H  1745  1  0.00535950  0.83220200  0.25985900  1
  H  1746  1  0.97202400  0.85210100  0.24169200  1
  H  1748  1  0.01091150  0.67774900  0.21499600  1
  H  1750  1  0.97727800  0.87961300  0.08106290  1
  H  1752  1  0.98696700  0.91199300  0.31534400  1
  H  1777  1  0.41984100  0.44384400  0.35924100  1
  H  1778  1  0.42323400  0.41853400  0.38386800  1
  H  1779  1  0.35983000  0.42822800  0.35146200  1
  H  1780  1  0.36313900  0.40298500  0.37598000  1
  H  1781  1  0.36949500  0.40385300  0.45228100  1
  H  1782  1  0.34487100  0.40045800  0.47759200  1
  H  1783  1  0.36160500  0.34376400  0.43672200  1
  H  1784  1  0.33708800  0.34045100  0.46196800  1
  H  1785  1  0.43790700  0.35012600  0.43760200  1
  H  1786  1  0.46321400  0.32549600  0.43421000  1
  H  1787  1  0.44758800  0.31770900  0.37420400  1
  H  1788  1  0.42234900  0.34223300  0.37751300  1
  H  1789  1  0.42081500  0.37986600  0.38453400  1
  H  1790  1  0.37015800  0.40144200  0.41360900  1
  H  1791  1  0.39923300  0.35078500  0.43518500  1
  H  1793  1  0.48789900  0.31125400  0.40488500  1
  H  1794  1  0.47433900  0.29835500  0.38667900  1
  H  1796  1  0.39051700  0.46853700  0.34500800  1
  H  1797  1  0.37230400  0.45498400  0.33211300  1
  H  1799  1  0.33064100  0.37113000  0.50228100  1
  H  1800  1  0.31774300  0.35292100  0.48872800  1
  H  1825  1  0.96790000  0.90573500  0.35929400  1
  H  1826  1  0.96466800  0.93096200  0.38403400  1
  H  1827  1  0.02776150  0.92162200  0.35093300  1
  H  1828  1  0.02461750  0.94675900  0.37558500  1
  H  1829  1  0.01872150  0.94546700  0.45209900  1
  H  1830  1  0.04338750  0.94879400  0.47738300  1
  H  1831  1  0.02658750  0.00559907  0.43669700  1
  H  1832  1  0.05114350  0.00884307  0.46190900  1
  H  1833  1  0.95014900  0.99919300  0.43784800  1
  H  1834  1  0.92491900  0.02393610  0.43464400  1
  H  1835  1  0.94070100  0.03225410  0.37474800  1
  H  1836  1  0.96583800  0.00759907  0.37786400  1
  H  1837  1  0.96709400  0.96977100  0.38466600  1
  H  1838  1  0.01787150  0.94800900  0.41340100  1
  H  1839  1  0.98895700  0.99861100  0.43533300  1
  H  1841  1  0.90033700  0.03848710  0.40527500  1
  H  1842  1  0.91405400  0.05161810  0.38735800  1
  H  1844  1  0.99732200  0.88119400  0.34475800  1
  H  1845  1  0.01519550  0.89493500  0.33159600  1
  H  1847  1  0.05757950  0.97808600  0.50215000  1
  H  1848  1  0.07048050  0.99632700  0.48864400  1
  H  1873  1  0.96828700  0.44382300  0.05776090  1
  H  1874  1  0.96494000  0.41852300  0.03311490  1
  H  1875  1  0.02833650  0.42833800  0.06549890  1
  H  1876  1  0.02507450  0.40310800  0.04096190  1
  H  1877  1  0.01855150  0.40405200  0.96453300  1
  H  1878  1  0.04327050  0.40080500  0.93928800  1
  H  1879  1  0.02701250  0.34411200  0.98035800  1
  H  1880  1  0.05164550  0.34095300  0.95520500  1
  H  1881  1  0.95049700  0.35010800  0.97926200  1
  H  1882  1  0.92520500  0.32546100  0.98263600  1
  H  1883  1  0.94079900  0.31768000  0.04265090  1
  H  1884  1  0.96602500  0.34221800  0.03935990  1
  H  1885  1  0.96747200  0.37984100  0.03237690  1
  H  1886  1  0.01804350  0.40164900  0.00332893  1
  H  1887  1  0.98918400  0.35089500  0.98170000  1
  H  1889  1  0.90049300  0.31125800  0.01196990  1
  H  1890  1  0.91403600  0.29834500  0.03017790  1
  H  1892  1  0.99757100  0.46857700  0.07197490  1
  H  1893  1  0.01582150  0.45506200  0.08485490  1
  H  1895  1  0.05784050  0.37138900  0.91476800  1
  H  1896  1  0.07099650  0.35352100  0.92852400  1
  H  1921  1  0.42037900  0.90575100  0.05770590  1
  H  1922  1  0.42356200  0.93096900  0.03294890  1
  H  1923  1  0.36047800  0.92150700  0.06603190  1
  H  1924  1  0.36357300  0.94663000  0.04136390  1
  H  1925  1  0.36962300  0.94526600  0.96472400  1
  H  1926  1  0.34486200  0.94844900  0.93950900  1
  H  1927  1  0.36120300  0.00525307  0.98038900  1
  H  1928  1  0.33653100  0.00834907  0.95526900  1
  H  1929  1  0.43785200  0.99920500  0.97901900  1
  H  1930  1  0.46306900  0.02396210  0.98220800  1
  H  1931  1  0.44731300  0.03227910  0.04210890  1
  H  1932  1  0.42218900  0.00761107  0.03900990  1
  H  1933  1  0.42102400  0.96979200  0.03224490  1
  H  1934  1  0.37032900  0.94779900  0.00354393  1
  H  1935  1  0.39902600  0.99850000  0.98155600  1
  H  1937  1  0.48767400  0.03847410  0.01158990  1
  H  1938  1  0.47397200  0.05162410  0.02950090  1
  H  1940  1  0.39100000  0.88114800  0.07222490  1
  H  1941  1  0.37308900  0.89485100  0.08537490  1
  H  1943  1  0.33033800  0.97782800  0.91490900  1
  H  1944  1  0.31718600  0.99573600  0.92861300  1
  H  1969  1  0.96737300  0.91026900  0.06299590  1
  H  1970  1  0.96410100  0.93364300  0.03688490  1
  H  1971  1  0.02915750  0.91980600  0.06388990  1
  H  1972  1  0.02582450  0.94387500  0.03838090  1
  H  1973  1  0.02253950  0.94467000  0.96751300  1
  H  1974  1  0.04864150  0.94795700  0.94413000  1
  H  1975  1  0.02399950  0.00639507  0.97774100  1
  H  1976  1  0.04950350  0.00974107  0.95366500  1
  H  1977  1  0.95315100  0.00310107  0.97849200  1
  H  1978  1  0.92967100  0.02911310  0.98179500  1
  H  1979  1  0.93906800  0.02984610  0.04359990  1
  H  1980  1  0.96324300  0.00444407  0.04024090  1
  H  1981  1  0.96724100  0.96954900  0.03221090  1
  H  1982  1  0.01785650  0.94780900  0.00342693  1
  H  1983  1  0.98904900  0.99840700  0.98166300  1
  H  1985  1  0.90585700  0.04348210  0.02611290  1
  H  1986  1  0.92566700  0.06048710  0.02372690  1
  H  1988  1  0.01169450  0.88663400  0.07766690  1
  H  1989  1  0.00919650  0.90654400  0.09453690  1
  H  1991  1  0.06327150  0.99229100  0.92048600  1
  H  1992  1  0.08015450  0.98979200  0.94038300  1
  H  2017  1  0.42081800  0.43913900  0.06286490  1
  H  2018  1  0.42412200  0.41565600  0.03685790  1
  H  2019  1  0.35900800  0.42974700  0.06359390  1
  H  2020  1  0.36237100  0.40556700  0.03819690  1
  H  2021  1  0.36574400  0.40470100  0.96739700  1
  H  2022  1  0.33963600  0.40143400  0.94401800  1
  H  2023  1  0.36422400  0.34297900  0.97763700  1
  H  2024  1  0.33871600  0.33965300  0.95356400  1
  H  2025  1  0.43509700  0.34626200  0.97844000  1
  H  2026  1  0.45848400  0.32016400  0.98173000  1
  H  2027  1  0.44894300  0.31930500  0.04351290  1
  H  2028  1  0.42486600  0.34480500  0.04016190  1
  H  2029  1  0.42094500  0.37975800  0.03216690  1
  H  2030  1  0.37040100  0.40156500  0.00330393  1
  H  2031  1  0.39918100  0.35094200  0.98157600  1
  H  2033  1  0.48212000  0.30553400  0.02606890  1
  H  2034  1  0.46222600  0.28864700  0.02356090  1
  H  2036  1  0.37649900  0.46296200  0.07721990  1
  H  2037  1  0.37887600  0.44315600  0.09422990  1
  H  2039  1  0.32495500  0.35711700  0.92038300  1
  H  2040  1  0.30808400  0.35962200  0.94029100  1
  H  2065  1  0.42081300  0.91023300  0.35398300  1
  H  2066  1  0.42410600  0.93361500  0.38008200  1
  H  2067  1  0.35903600  0.91981800  0.35308800  1
  H  2068  1  0.36239000  0.94389400  0.37859000  1
  H  2069  1  0.36571500  0.94470200  0.44945100  1
  H  2070  1  0.33971700  0.94802500  0.47294000  1
  H  2071  1  0.36437500  0.00644407  0.43931000  1
  H  2072  1  0.33898500  0.00982707  0.46349800  1
  H  2073  1  0.43516800  0.00304407  0.43843600  1
  H  2074  1  0.45865200  0.02904910  0.43512700  1
  H  2075  1  0.44920600  0.02981910  0.37332900  1
  H  2076  1  0.42502100  0.00442307  0.37669600  1
  H  2077  1  0.42099400  0.96952400  0.38472300  1
  H  2078  1  0.37037500  0.94784500  0.41354900  1
  H  2079  1  0.39927300  0.99839900  0.43529300  1
  H  2081  1  0.48243400  0.04344510  0.39080700  1
  H  2082  1  0.46262100  0.06044410  0.39320300  1
  H  2084  1  0.37647500  0.88662800  0.33931700  1
  H  2085  1  0.37899200  0.90653200  0.32244200  1
  H  2087  1  0.32536300  0.99236000  0.49673400  1
  H  2088  1  0.30835400  0.98996500  0.47693000  1
  H  2113  1  0.96741300  0.43918400  0.35412300  1
  H  2114  1  0.96408900  0.41569300  0.38012000  1
  H  2115  1  0.02921350  0.42974100  0.35339000  1
  H  2116  1  0.02583150  0.40555200  0.37877800  1
  H  2117  1  0.02243250  0.40466800  0.44956900  1
  H  2118  1  0.04843850  0.40135900  0.47304900  1
  H  2119  1  0.02381750  0.34292900  0.43941400  1
  H  2120  1  0.04921350  0.33956000  0.46359600  1
  H  2121  1  0.95300200  0.34631900  0.43849100  1
  H  2122  1  0.92961100  0.32022800  0.43519400  1
  H  2123  1  0.93920200  0.31933700  0.37341800  1
  H  2124  1  0.96328700  0.34483200  0.37677700  1
  H  2125  1  0.96723600  0.37978900  0.38477100  1
  H  2126  1  0.01778750  0.40153200  0.41367800  1
  H  2127  1  0.98891400  0.35095100  0.43538500  1
  H  2129  1  0.90600900  0.30557200  0.39085300  1
  H  2130  1  0.92590700  0.28869100  0.39337000  1
  H  2132  1  0.01174850  0.46297400  0.33976800  1
  H  2133  1  0.00935050  0.44317300  0.32275500  1
  H  2135  1  0.06283750  0.35704000  0.49683200  1
  H  2136  1  0.07983050  0.35943100  0.47701500  1
  C  1  1  0.90201800  0.18995900  0.31178900  1
  C  2  1  0.90343200  0.17967900  0.32997700  1
  C  3  1  0.92188900  0.17729900  0.33940200  1
  C  4  1  0.93927300  0.18512300  0.33074700  1
  C  5  1  0.93784800  0.19534200  0.31253200  1
  C  6  1  0.91935100  0.19788100  0.30325800  1
  C  7  1  0.95762400  0.18237800  0.33944800  1
  C  8  1  0.96364600  0.19256000  0.35548300  1
  C  9  1  0.98251700  0.19114700  0.36375400  1
  C  10  1  0.99975200  0.19162700  0.35184100  1
  C  11  1  0.01895800  0.19168500  0.36021600  1
  C  12  1  0.02072300  0.19158300  0.38111600  1
  C  13  1  0.00381400  0.19114300  0.39352100  1
  C  14  1  0.98483600  0.19117500  0.38456900  1
  C  15  1  0.00600600  0.19264500  0.41401500  1
  C  16  1  0.99570500  0.18188500  0.42728000  1
  C  17  1  0.99689400  0.18463000  0.44765100  1
  C  18  1  0.97943800  0.18854200  0.45856900  1
  C  19  1  0.01507500  0.18324000  0.45800200  1
  C  20  1  0.01577400  0.18599700  0.47867800  1
  C  21  1  0.99831800  0.19015600  0.48946900  1
  C  22  1  0.98018000  0.19139300  0.47921300  1
  C  23  1  0.03527400  0.19331400  0.34765800  1
  C  24  1  0.05217100  0.18289400  0.34939400  1
  C  25  1  0.06736200  0.18418700  0.33561700  1
  C  26  1  0.06475400  0.17682700  0.31618600  1
  C  27  1  0.08571400  0.19285200  0.34072900  1
  C  28  1  0.10097500  0.19445500  0.32657700  1
  C  29  1  0.09842800  0.18714600  0.30713000  1
  C  30  1  0.08007500  0.17834200  0.30213700  1
  C  58  1  0.10105700  0.77432700  0.31172600  1
  C  59  1  0.09965400  0.78461200  0.32991300  1
  C  60  1  0.08120300  0.78698900  0.33935300  1
  C  61  1  0.06381500  0.77915500  0.33071600  1
  C  62  1  0.06523100  0.76893600  0.31250000  1
  C  63  1  0.08371900  0.76639500  0.30321400  1
  C  64  1  0.04546500  0.78190800  0.33941800  1
  C  65  1  0.03944300  0.77176000  0.35547400  1
  C  66  1  0.02056900  0.77318700  0.36374300  1
  C  67  1  0.00334000  0.77269100  0.35182500  1
  C  68  1  0.98412900  0.77263900  0.36019100  1
  C  69  1  0.98235900  0.77275900  0.38109100  1
  C  70  1  0.99926100  0.77321800  0.39350600  1
  C  71  1  0.01824300  0.77317700  0.38455500  1
  C  72  1  0.99706300  0.77170900  0.41399900  1
  C  73  1  0.00737300  0.78244800  0.42727200  1
  C  74  1  0.00618400  0.77969500  0.44764600  1
  C  75  1  0.02364200  0.77578800  0.45856300  1
  C  76  1  0.98800700  0.78108500  0.45800000  1
  C  77  1  0.98730900  0.77832800  0.47867800  1
  C  78  1  0.00476600  0.77416600  0.48946600  1
  C  79  1  0.02290200  0.77292800  0.47920700  1
  C  80  1  0.96782100  0.77097100  0.34762500  1
  C  81  1  0.95090500  0.78136300  0.34933600  1
  C  82  1  0.93572900  0.78003500  0.33554500  1
  C  83  1  0.93834700  0.78737700  0.31610900  1
  C  84  1  0.91738000  0.77135600  0.34064600  1
  C  85  1  0.90213500  0.76972200  0.32648100  1
  C  86  1  0.90469100  0.77701400  0.30702800  1
  C  87  1  0.92304100  0.78583100  0.30204500  1
  C  115  1  0.10068400  0.19018300  0.72048500  1
  C  116  1  0.09903900  0.17981400  0.70236900  1
  C  117  1  0.08048100  0.17750300  0.69312700  1
  C  118  1  0.06320700  0.18549300  0.70187300  1
  C  119  1  0.06488500  0.19578800  0.72003000  1
  C  120  1  0.08347900  0.19826600  0.72912000  1
  C  121  1  0.04471200  0.18275600  0.69342600  1
  C  122  1  0.03924300  0.19104900  0.67614900  1
  C  123  1  0.02039400  0.18933700  0.66789300  1
  C  124  1  0.00306800  0.19203100  0.67937200  1
  C  125  1  0.98394700  0.19079900  0.67089200  1
  C  126  1  0.98236900  0.18743700  0.65024800  1
  C  127  1  0.99940200  0.18524000  0.63821800  1
  C  128  1  0.01828400  0.18598600  0.64733200  1
  C  129  1  0.99736100  0.18174700  0.61796300  1
  C  130  1  0.00771000  0.19138100  0.60389600  1
  C  131  1  0.00632100  0.18739700  0.58375000  1
  C  132  1  0.02369800  0.18310800  0.57284700  1
  C  133  1  0.98806900  0.18845300  0.57348800  1
  C  134  1  0.98723500  0.18508600  0.55290700  1
  C  135  1  0.00462900  0.18066700  0.54211900  1
  C  136  1  0.02282100  0.17964700  0.55230100  1
  C  137  1  0.96746500  0.19357600  0.68301400  1
  C  138  1  0.95127100  0.18196800  0.68292300  1
  C  139  1  0.93612900  0.18406500  0.69661900  1
  C  140  1  0.93880700  0.17764000  0.71636000  1
  C  141  1  0.91769200  0.19226100  0.69107700  1
  C  142  1  0.90236300  0.19425900  0.70510700  1
  C  143  1  0.90493100  0.18780100  0.72485400  1
  C  144  1  0.92341700  0.17954600  0.73028600  1
  C  172  1  0.90243400  0.77412600  0.72055900  1
  C  173  1  0.90406300  0.78449500  0.70244200  1
  C  174  1  0.92261500  0.78680800  0.69318400  1
  C  175  1  0.93989800  0.77882600  0.70191900  1
  C  176  1  0.93823400  0.76852800  0.72007500  1
  C  177  1  0.91964800  0.76604600  0.72918000  1
  C  178  1  0.95838700  0.78156200  0.69345500  1
  C  179  1  0.96384500  0.77327600  0.67617100  1
  C  180  1  0.98269500  0.77497200  0.66791500  1
  C  181  1  0.00001800  0.77225200  0.67939300  1
  C  182  1  0.01914200  0.77346100  0.67091400  1
  C  183  1  0.02072500  0.77682300  0.65027200  1
  C  184  1  0.00369600  0.77904800  0.63823800  1
  C  185  1  0.98481300  0.77832400  0.64735200  1
  C  186  1  0.00574300  0.78254100  0.61798600  1
  C  187  1  0.99538100  0.77292800  0.60391400  1
  C  188  1  0.99677300  0.77691200  0.58376500  1
  C  189  1  0.97939700  0.78120500  0.57286000  1
  C  190  1  0.01502200  0.77584900  0.57350000  1
  C  191  1  0.01585600  0.77921100  0.55291700  1
  C  192  1  0.99846500  0.78363600  0.54212900  1
  C  193  1  0.98027300  0.78466200  0.55231400  1
  C  194  1  0.03561900  0.77064800  0.68303700  1
  C  195  1  0.05181200  0.78225900  0.68297900  1
  C  196  1  0.06693800  0.78014400  0.69669200  1
  C  197  1  0.06424700  0.78657000  0.71643100  1
  C  198  1  0.08537400  0.77193200  0.69116800  1
  C  199  1  0.10068400  0.76991000  0.70521600  1
  C  200  1  0.09810300  0.77636900  0.72496300  1
  C  201  1  0.07962000  0.78464700  0.73037400  1
  C  229  1  0.29739400  0.88262500  0.22373400  1
  C  230  1  0.31557900  0.88404500  0.21344900  1
  C  231  1  0.32500000  0.90250600  0.21107000  1
  C  232  1  0.31634800  0.91988400  0.21890900  1
  C  233  1  0.29813700  0.91845100  0.22913500  1
  C  234  1  0.28886500  0.89995500  0.23166600  1
  C  235  1  0.32504400  0.93823600  0.21617000  1
  C  236  1  0.34107500  0.94426300  0.22635500  1
  C  237  1  0.34935400  0.96313100  0.22493300  1
  C  238  1  0.33743800  0.98036500  0.22537900  1
  C  239  1  0.34581400  0.99957100  0.22542000  1
  C  240  1  0.36671400  0.00133500  0.22532400  1
  C  241  1  0.37912000  0.98442500  0.22490000  1
  C  242  1  0.37016900  0.96544800  0.22495300  1
  C  243  1  0.39961300  0.98661900  0.22639800  1
  C  244  1  0.41287400  0.97632900  0.21562600  1
  C  245  1  0.43324600  0.97751100  0.21838400  1
  C  246  1  0.44415800  0.96005300  0.22230200  1
  C  247  1  0.44360000  0.99568700  0.21699500  1
  C  248  1  0.46427600  0.99638500  0.21976000  1
  C  249  1  0.47506100  0.97892900  0.22392700  1
  C  250  1  0.46480200  0.96079200  0.22516500  1
  C  251  1  0.33325600  0.01588700  0.22706400  1
  C  252  1  0.33498800  0.03278400  0.21664200  1
  C  253  1  0.32121400  0.04797600  0.21794100  1
  C  254  1  0.30178000  0.04537100  0.21058700  1
  C  255  1  0.32633300  0.06632800  0.22660200  1
  C  256  1  0.31218200  0.08159100  0.22821100  1
  C  257  1  0.29273200  0.07904500  0.22091300  1
  C  258  1  0.28773400  0.06069400  0.21210700  1
  C  286  1  0.29693300  0.08125400  0.80789800  1
  C  287  1  0.31504700  0.07961600  0.81827200  1
  C  288  1  0.32430000  0.06106200  0.82058000  1
  C  289  1  0.31556700  0.04378600  0.81258100  1
  C  290  1  0.29741400  0.04545700  0.80227800  1
  C  291  1  0.28831200  0.06404700  0.79980400  1
  C  292  1  0.32402200  0.02529200  0.81530700  1
  C  293  1  0.34131500  0.01983400  0.80703700  1
  C  294  1  0.34957300  0.00098400  0.80874200  1
  C  295  1  0.33809400  0.98366000  0.80602800  1
  C  296  1  0.34657100  0.96453800  0.80724600  1
  C  297  1  0.36721500  0.96295500  0.81060200  1
  C  298  1  0.37924900  0.97998500  0.81282700  1
  C  299  1  0.37013500  0.99886700  0.81209400  1
  C  300  1  0.39950300  0.97793900  0.81631600  1
  C  301  1  0.41357300  0.98830300  0.80670200  1
  C  302  1  0.43372300  0.98691200  0.81068500  1
  C  303  1  0.44462300  0.00428900  0.81498200  1
  C  304  1  0.44399400  0.96866700  0.80960600  1
  C  305  1  0.46457700  0.96783700  0.81296400  1
  C  306  1  0.47536200  0.98522800  0.81739500  1
  C  307  1  0.46517300  0.00341600  0.81843500  1
  C  308  1  0.33444500  0.94806400  0.80443800  1
  C  309  1  0.33450300  0.93186800  0.81604500  1
  C  310  1  0.32078800  0.91674300  0.81392800  1
  C  311  1  0.30105100  0.91943600  0.82036100  1
  C  312  1  0.32630500  0.89831400  0.80569800  1
  C  313  1  0.31225200  0.88300700  0.80367600  1
  C  314  1  0.29250800  0.88558900  0.81013700  1
  C  315  1  0.28710300  0.90406700  0.81843100  1
  C  343  1  0.70608800  0.08129600  0.22391800  1
  C  344  1  0.68798000  0.07964200  0.21353800  1
  C  345  1  0.67874300  0.06108100  0.21123000  1
  C  346  1  0.68748500  0.04381500  0.21924000  1
  C  347  1  0.70563300  0.04550100  0.22954700  1
  C  348  1  0.71471900  0.06409800  0.23202200  1
  C  349  1  0.67903400  0.02531900  0.21652500  1
  C  350  1  0.66175100  0.01986300  0.22481400  1
  C  351  1  0.65348900  0.00101700  0.22311200  1
  C  352  1  0.66496100  0.98368800  0.22582300  1
  C  353  1  0.65647200  0.96457200  0.22460100  1
  C  354  1  0.63583000  0.96299900  0.22122700  1
  C  355  1  0.62380800  0.98003500  0.21901200  1
  C  356  1  0.63292600  0.99891300  0.21975600  1
  C  357  1  0.60355300  0.97799800  0.21552200  1
  C  358  1  0.58949000  0.98834500  0.22516200  1
  C  359  1  0.56934100  0.98695100  0.22118700  1
  C  360  1  0.55843500  0.00432300  0.21689000  1
  C  361  1  0.55908600  0.96869600  0.22224000  1
  C  362  1  0.53850400  0.96785500  0.21887400  1
  C  363  1  0.52771200  0.98524300  0.21445000  1
  C  364  1  0.53789000  0.00344000  0.21342800  1
  C  365  1  0.66858300  0.94808600  0.22739100  1
  C  366  1  0.66849800  0.93189600  0.21577600  1
  C  367  1  0.68220400  0.91676400  0.21787300  1
  C  368  1  0.70192900  0.91943200  0.21139600  1
  C  369  1  0.67668400  0.89835000  0.22613400  1
  C  370  1  0.69072100  0.88302900  0.22813800  1
  C  371  1  0.71045300  0.88558600  0.22162800  1
  C  372  1  0.71586300  0.90404900  0.21330800  1
  C  400  1  0.70576200  0.88266600  0.80808300  1
  C  401  1  0.68757100  0.88407200  0.81836100  1
  C  402  1  0.67813700  0.90252500  0.82074400  1
  C  403  1  0.68677800  0.91991300  0.81291600  1
  C  404  1  0.70499500  0.91849600  0.80269900  1
  C  405  1  0.71427900  0.90000600  0.80015700  1
  C  406  1  0.67807600  0.93826300  0.81566700  1
  C  407  1  0.66202400  0.94428600  0.80551000  1
  C  408  1  0.65375600  0.96316100  0.80692900  1
  C  409  1  0.66567400  0.98039100  0.80645500  1
  C  410  1  0.65730500  0.99959900  0.80640800  1
  C  411  1  0.63640300  0.00136900  0.80653800  1
  C  412  1  0.62399300  0.98446200  0.80696900  1
  C  413  1  0.63294100  0.96548200  0.80692500  1
  C  414  1  0.60349700  0.98666100  0.80546900  1
  C  415  1  0.59022500  0.97634200  0.81620300  1
  C  416  1  0.56985100  0.97753200  0.81345200  1
  C  417  1  0.55893700  0.96007500  0.80952600  1
  C  418  1  0.55949400  0.99570700  0.81485200  1
  C  419  1  0.53881400  0.99640100  0.81209600  1
  C  420  1  0.52802900  0.97894600  0.80792000  1
  C  421  1  0.53829300  0.96081300  0.80667000  1
  C  422  1  0.66987300  0.01590900  0.80476400  1
  C  423  1  0.66815500  0.03282200  0.81516000  1
  C  424  1  0.68194800  0.04800000  0.81384800  1
  C  425  1  0.70138500  0.04537300  0.82118400  1
  C  426  1  0.67684500  0.06635800  0.80519000  1
  C  427  1  0.69101300  0.08160400  0.80356800  1
  C  428  1  0.71046800  0.07903600  0.81084800  1
  C  429  1  0.71544900  0.06067900  0.81965100  1
  C  457  1  0.20939900  0.27794400  0.91640600  1
  C  458  1  0.19912500  0.29613800  0.91779300  1
  C  459  1  0.19673300  0.30558400  0.93623800  1
  C  460  1  0.20454200  0.29694700  0.95363800  1
  C  461  1  0.21475500  0.27872600  0.95223900  1
  C  462  1  0.21730600  0.26943000  0.93375600  1
  C  463  1  0.20178100  0.30566300  0.97197900  1
  C  464  1  0.21195100  0.32170600  0.97800000  1
  C  465  1  0.21053100  0.32998200  0.99687100  1
  C  466  1  0.21100500  0.31807100  0.01410600  1
  C  467  1  0.21105900  0.32644900  0.03331100  1
  C  468  1  0.21095700  0.34734900  0.03507300  1
  C  469  1  0.21052300  0.35975300  0.01816300  1
  C  470  1  0.21055900  0.35079700  0.99918600  1
  C  471  1  0.21202800  0.38024700  0.02035400  1
  C  472  1  0.20127600  0.39351500  0.01005000  1
  C  473  1  0.20402200  0.41388700  0.01124200  1
  C  474  1  0.20793700  0.42480600  0.99378700  1
  C  475  1  0.20262700  0.42423700  0.02942100  1
  C  476  1  0.20538000  0.44491600  0.03012100  1
  C  477  1  0.20954400  0.45570700  0.01266800  1
  C  478  1  0.21078500  0.44545100  0.99453000  1
  C  479  1  0.21268100  0.31388900  0.04962900  1
  C  480  1  0.20227700  0.31563600  0.06653400  1
  C  481  1  0.20357200  0.30186000  0.08172600  1
  C  482  1  0.19620800  0.28243000  0.07912300  1
  C  483  1  0.21223700  0.30697400  0.10007700  1
  C  484  1  0.21384000  0.29282300  0.11534100  1
  C  485  1  0.20653000  0.27337800  0.11279700  1
  C  486  1  0.19772400  0.26838300  0.09444600  1
  C  514  1  0.79371100  0.27797400  0.11547200  1
  C  515  1  0.80399700  0.29616100  0.11407300  1
  C  516  1  0.80637500  0.30560500  0.09562500  1
  C  517  1  0.79854000  0.29697400  0.07823500  1
  C  518  1  0.78831900  0.27875800  0.07964600  1
  C  519  1  0.78577900  0.26946700  0.09813200  1
  C  520  1  0.80129200  0.30568200  0.05989000  1
  C  521  1  0.79113500  0.32173400  0.05387100  1
  C  522  1  0.79256400  0.33001100  0.03500200  1
  C  523  1  0.79208300  0.31809900  0.01776700  1
  C  524  1  0.79203800  0.32647500  0.99856100  1
  C  525  1  0.79214700  0.34737700  0.99680000  1
  C  526  1  0.79259200  0.35978200  0.01370900  1
  C  527  1  0.79254500  0.35082500  0.03268600  1
  C  528  1  0.79107700  0.38027500  0.01151700  1
  C  529  1  0.80182200  0.39354600  0.02182300  1
  C  530  1  0.79907400  0.41392000  0.02063000  1
  C  531  1  0.79516500  0.42484000  0.03808600  1
  C  532  1  0.80046400  0.42426800  0.00245000  1
  C  533  1  0.79770700  0.44494600  0.00174800  1
  C  534  1  0.79354300  0.45573700  0.01920100  1
  C  535  1  0.79230500  0.44548200  0.03733900  1
  C  536  1  0.79039000  0.31391900  0.98224500  1
  C  537  1  0.80079600  0.31565200  0.96533800  1
  C  538  1  0.79948200  0.30187800  0.95014900  1
  C  539  1  0.80684600  0.28244700  0.95274500  1
  C  540  1  0.79079600  0.30699100  0.93180700  1
  C  541  1  0.78917800  0.29284100  0.91654600  1
  C  542  1  0.79649300  0.27339500  0.91908000  1
  C  543  1  0.80531600  0.26840100  0.93742300  1
  C  571  1  0.20953800  0.68671400  0.11504300  1
  C  572  1  0.19916200  0.66860300  0.11339100  1
  C  573  1  0.19685600  0.65936300  0.09483100  1
  C  574  1  0.20485600  0.66810800  0.07756200  1
  C  575  1  0.21515800  0.68625900  0.07924600  1
  C  576  1  0.21763600  0.69534500  0.09784300  1
  C  577  1  0.20212600  0.65966200  0.05906500  1
  C  578  1  0.21041900  0.64238500  0.05359700  1
  C  579  1  0.20872200  0.63413600  0.03474400  1
  C  580  1  0.21143700  0.64562300  0.01742500  1
  C  581  1  0.21022400  0.63715100  0.99830000  1
  C  582  1  0.20685700  0.61650800  0.99670900  1
  C  583  1  0.20464300  0.60446900  0.01373500  1
  C  584  1  0.20537000  0.61357700  0.03262100  1
  C  585  1  0.20115100  0.58421600  0.01168500  1
  C  586  1  0.21077100  0.57014600  0.02204400  1
  C  587  1  0.20678300  0.54999800  0.02065500  1
  C  588  1  0.20249200  0.53909600  0.03803200  1
  C  589  1  0.20784400  0.53973100  0.00240700  1
  C  590  1  0.20448000  0.51914800  0.00157600  1
  C  591  1  0.20005800  0.50836300  0.01896900  1
  C  592  1  0.19903300  0.51855000  0.03715900  1
  C  593  1  0.21302800  0.64928000  0.98182700  1
  C  594  1  0.20143100  0.64921700  0.96562600  1
  C  595  1  0.20355100  0.66293000  0.95050100  1
  C  596  1  0.19711900  0.68266700  0.95319100  1
  C  597  1  0.21177800  0.65741100  0.93207200  1
  C  598  1  0.21379800  0.67145700  0.91676200  1
  C  599  1  0.20733400  0.69120200  0.91934100  1
  C  600  1  0.19904800  0.69661200  0.93782000  1
  C  628  1  0.79351800  0.68674200  0.91683000  1
  C  629  1  0.80388500  0.66862700  0.91847900  1
  C  630  1  0.80619900  0.65939000  0.93704000  1
  C  631  1  0.79821700  0.66814400  0.95431200  1
  C  632  1  0.78791800  0.68629800  0.95263000  1
  C  633  1  0.78543800  0.69538400  0.93403300  1
  C  634  1  0.80095000  0.65969800  0.97280800  1
  C  635  1  0.79265600  0.64242100  0.97828000  1
  C  636  1  0.79435800  0.63417200  0.99713100  1
  C  637  1  0.79165000  0.64565600  0.01445300  1
  C  638  1  0.79286800  0.63718000  0.03357700  1
  C  639  1  0.79622400  0.61653600  0.03516300  1
  C  640  1  0.79843900  0.60450000  0.01813600  1
  C  641  1  0.79770900  0.61360900  0.99925100  1
  C  642  1  0.80192700  0.58424500  0.02018300  1
  C  643  1  0.79230800  0.57017700  0.00982300  1
  C  644  1  0.79629400  0.55002900  0.01121100  1
  C  645  1  0.80058400  0.53912900  0.99383300  1
  C  646  1  0.79523500  0.53976200  0.02945900  1
  C  647  1  0.79859900  0.51917900  0.03028900  1
  C  648  1  0.80302000  0.50839400  0.01289500  1
  C  649  1  0.80404100  0.51858100  0.99470400  1
  C  650  1  0.79006700  0.64930700  0.05005300  1
  C  651  1  0.80167800  0.64924200  0.06624500  1
  C  652  1  0.79957400  0.66295500  0.08137200  1
  C  653  1  0.80599000  0.68269500  0.07867400  1
  C  654  1  0.79137900  0.65743000  0.09981600  1
  C  655  1  0.78936500  0.67147800  0.11512500  1
  C  656  1  0.79581400  0.69122600  0.11253800  1
  C  657  1  0.80407500  0.69664000  0.09404800  1
  C  685  1  0.20283400  0.20055700  0.20451400  1
  C  686  1  0.21823500  0.18639500  0.20333600  1
  C  687  1  0.21992500  0.17076700  0.21720800  1
  C  688  1  0.20575900  0.16958600  0.23260700  1
  C  689  1  0.19013400  0.18345900  0.23429800  1
  C  690  1  0.18895600  0.19886300  0.22013600  1
  C  691  1  0.23509300  0.15614400  0.21531200  1
  C  692  1  0.23838700  0.14645300  0.19701800  1
  C  693  1  0.25316200  0.13187600  0.19509300  1
  C  694  1  0.26527100  0.12662100  0.21135100  1
  C  695  1  0.26207800  0.13633500  0.22962400  1
  C  696  1  0.24712000  0.15074800  0.23161900  1
  C  697  1  0.20093800  0.21572700  0.18989300  1
  C  698  1  0.21724500  0.22775600  0.18449700  1
  C  699  1  0.21525100  0.24271200  0.17008100  1
  C  700  1  0.19697700  0.24590800  0.16037200  1
  C  701  1  0.18071900  0.23380100  0.16562700  1
  C  702  1  0.18264300  0.21902400  0.18020300  1
  C  703  1  0.17551300  0.18156400  0.24946800  1
  C  704  1  0.17011800  0.19786900  0.26149800  1
  C  705  1  0.15570700  0.19587200  0.27645700  1
  C  706  1  0.14599700  0.17759700  0.27965200  1
  C  707  1  0.15125000  0.16134200  0.26754000  1
  C  708  1  0.16581800  0.16327000  0.25275900  1
  C  724  1  0.28118300  0.11142500  0.20932400  1
  C  727  1  0.19494900  0.26182300  0.14517800  1
  C  730  1  0.13080700  0.17556600  0.29556900  1
  C  733  1  0.79998800  0.76386600  0.20447800  1
  C  734  1  0.78460400  0.77805600  0.20342800  1
  C  735  1  0.78301200  0.79362800  0.21737100  1
  C  736  1  0.79724800  0.79472700  0.23270600  1
  C  737  1  0.81286900  0.78083200  0.23426000  1
  C  738  1  0.81395500  0.76548300  0.22003300  1
  C  739  1  0.76788800  0.80830400  0.21558900  1
  C  740  1  0.76466800  0.81818100  0.19738300  1
  C  741  1  0.74995800  0.83283500  0.19557600  1
  C  742  1  0.73783200  0.83797700  0.21186100  1
  C  743  1  0.74094700  0.82806700  0.23004300  1
  C  744  1  0.75585500  0.81358600  0.23192800  1
  C  745  1  0.80178500  0.74876000  0.18978300  1
  C  746  1  0.78546600  0.73669200  0.18451500  1
  C  747  1  0.78736700  0.72179000  0.17003100  1
  C  748  1  0.80554700  0.71870100  0.16011100  1
  C  749  1  0.82181300  0.73085900  0.16523800  1
  C  750  1  0.81999000  0.74557100  0.17989200  1
  C  751  1  0.82756800  0.78266500  0.24936400  1
  C  752  1  0.83298900  0.76632300  0.26133400  1
  C  753  1  0.84742400  0.76828100  0.27627800  1
  C  754  1  0.85713200  0.78654900  0.27951600  1
  C  755  1  0.85186700  0.80283500  0.26744700  1
  C  756  1  0.83727600  0.80094500  0.25268500  1
  C  772  1  0.72195900  0.85322800  0.20993200  1
  C  775  1  0.80750100  0.70281200  0.14487600  1
  C  778  1  0.87230600  0.78855800  0.29545100  1
  C  781  1  0.80028200  0.20064000  0.82730000  1
  C  782  1  0.78493300  0.18641900  0.82845700  1
  C  783  1  0.78330400  0.17079900  0.81456600  1
  C  784  1  0.79747900  0.16969100  0.79916900  1
  C  785  1  0.81304300  0.18363700  0.79749500  1
  C  786  1  0.81415900  0.19902600  0.81167200  1
  C  787  1  0.76817700  0.15612900  0.81643900  1
  C  788  1  0.76488000  0.14642700  0.83472700  1
  C  789  1  0.75011300  0.13184200  0.83664200  1
  C  790  1  0.73801200  0.12658300  0.82038000  1
  C  791  1  0.74121600  0.13629700  0.80210800  1
  C  792  1  0.75616600  0.15072000  0.80012300  1
  C  793  1  0.80213800  0.21578600  0.84195100  1
  C  794  1  0.78580400  0.22776900  0.84736500  1
  C  795  1  0.78777100  0.24271800  0.86179200  1
  C  796  1  0.80604400  0.24595300  0.87149300  1
  C  797  1  0.82232700  0.23388200  0.86622200  1
  C  798  1  0.82042800  0.21911400  0.85163800  1
  C  799  1  0.82768900  0.18181800  0.78234500  1
  C  800  1  0.83294600  0.19813100  0.77026300  1
  C  801  1  0.84741500  0.19622000  0.75534800  1
  C  802  1  0.85733800  0.17804000  0.75227000  1
  C  803  1  0.85221700  0.16178000  0.76443700  1
  C  804  1  0.83757300  0.16361100  0.77915800  1
  C  820  1  0.72207800  0.11140800  0.82241100  1
  C  823  1  0.80805100  0.26187000  0.88668400  1
  C  826  1  0.87258700  0.17609000  0.73639600  1
  C  829  1  0.20305300  0.76378100  0.82734000  1
  C  830  1  0.21838700  0.77802800  0.82836700  1
  C  831  1  0.21991700  0.79359100  0.81440500  1
  C  832  1  0.20566900  0.79462000  0.79907400  1
  C  833  1  0.19011000  0.78065400  0.79753800  1
  C  834  1  0.18908500  0.76531900  0.81178200  1
  C  835  1  0.23500100  0.80831600  0.81616300  1
  C  836  1  0.23822100  0.81820300  0.83436300  1
  C  837  1  0.25292500  0.83286600  0.83616100  1
  C  838  1  0.26504500  0.83800900  0.81987200  1
  C  839  1  0.26191900  0.82809800  0.80169300  1
  C  840  1  0.24701800  0.81360800  0.79981600  1
  C  841  1  0.20129800  0.74869600  0.84206200  1
  C  842  1  0.21764500  0.73667600  0.84734900  1
  C  843  1  0.21577300  0.72177800  0.86184200  1
  C  844  1  0.19759300  0.71865400  0.87175600  1
  C  845  1  0.18130400  0.73077200  0.86661600  1
  C  846  1  0.18309900  0.74547600  0.85195400  1
  C  847  1  0.17538700  0.78240900  0.78245500  1
  C  848  1  0.17009700  0.76606100  0.77043600  1
  C  849  1  0.15560300  0.76793300  0.75553800  1
  C  850  1  0.14568800  0.78611100  0.75241600  1
  C  851  1  0.15082600  0.80240000  0.76453600  1
  C  852  1  0.16549200  0.80060600  0.77923800  1
  C  868  1  0.28094100  0.85323700  0.82180600  1
  C  871  1  0.19566300  0.70276000  0.88698800  1
  C  874  1  0.13045500  0.78804200  0.73652200  1
  C  877  1  0.80003600  0.76354600  0.82727800  1
  C  878  1  0.78467400  0.77778300  0.82828200  1
  C  879  1  0.78301300  0.79344100  0.81443100  1
  C  880  1  0.79726700  0.79446300  0.79908400  1
  C  881  1  0.81291400  0.78059900  0.79741500  1
  C  882  1  0.81391600  0.76523300  0.81164800  1
  C  883  1  0.76806500  0.80839100  0.81645800  1
  C  884  1  0.76338400  0.81650700  0.83523200  1
  C  885  1  0.74923400  0.83166700  0.83722500  1
  C  886  1  0.73929400  0.83948100  0.82053300  1
  C  887  1  0.74385200  0.83136800  0.80175200  1
  C  888  1  0.75789900  0.81607300  0.79978400  1
  C  889  1  0.80205600  0.74861300  0.84224300  1
  C  890  1  0.78538200  0.73843400  0.84990400  1
  C  891  1  0.78733100  0.72445300  0.86526000  1
  C  892  1  0.80609400  0.71997700  0.87345700  1
  C  893  1  0.82279200  0.72991300  0.86564900  1
  C  894  1  0.82081600  0.74399900  0.85042700  1
  C  895  1  0.82788200  0.78262700  0.78248600  1
  C  896  1  0.83555000  0.76595600  0.77230500  1
  C  897  1  0.85089900  0.76791400  0.75831800  1
  C  898  1  0.85907800  0.78668200  0.75383000  1
  C  899  1  0.85126200  0.80337600  0.76376600  1
  C  900  1  0.83606100  0.80139000  0.77787500  1
  C  916  1  0.72501700  0.85607200  0.82360600  1
  C  919  1  0.80913800  0.70580600  0.89014400  1
  C  922  1  0.87575800  0.78973400  0.73965000  1
  C  925  1  0.20306100  0.20067400  0.82719800  1
  C  926  1  0.21840800  0.18642000  0.82822300  1
  C  927  1  0.22007600  0.17077000  0.81436300  1
  C  928  1  0.20584100  0.16976400  0.79899900  1
  C  929  1  0.19020900  0.18364200  0.79731300  1
  C  930  1  0.18920500  0.19900700  0.81154500  1
  C  931  1  0.23500200  0.15580000  0.81639400  1
  C  932  1  0.23961900  0.14763100  0.83516000  1
  C  933  1  0.25371200  0.13241500  0.83714600  1
  C  934  1  0.26365500  0.12460200  0.82045400  1
  C  935  1  0.25917500  0.13278500  0.80168700  1
  C  936  1  0.24518400  0.14813200  0.79972600  1
  C  937  1  0.20103400  0.21562400  0.84214700  1
  C  938  1  0.21770900  0.22578900  0.84983000  1
  C  939  1  0.21574000  0.23983500  0.86512300  1
  C  940  1  0.19695800  0.24439700  0.87323000  1
  C  941  1  0.18026600  0.23446000  0.86541700  1
  C  942  1  0.18226000  0.22030500  0.85026100  1
  C  943  1  0.17525000  0.18162400  0.78237300  1
  C  944  1  0.16760000  0.19830000  0.77219000  1
  C  945  1  0.15224500  0.19635500  0.75820600  1
  C  946  1  0.14404700  0.17759200  0.75372500  1
  C  947  1  0.15185100  0.16089300  0.76366100  1
  C  948  1  0.16705300  0.16286900  0.77776800  1
  C  964  1  0.27783800  0.10792600  0.82350800  1
  C  967  1  0.19388100  0.25867900  0.88981700  1
  C  970  1  0.12735900  0.17455400  0.73955400  1
  C  973  1  0.20307100  0.76355000  0.20456000  1
  C  974  1  0.21844900  0.77777000  0.20354100  1
  C  975  1  0.22014100  0.79342500  0.21739200  1
  C  976  1  0.20590300  0.79446200  0.23275100  1
  C  977  1  0.19023800  0.78062000  0.23443200  1
  C  978  1  0.18920400  0.76525600  0.22019900  1
  C  979  1  0.23510400  0.80835600  0.21535700  1
  C  980  1  0.23977300  0.81647600  0.19658200  1
  C  981  1  0.25392800  0.83163200  0.19458500  1
  C  982  1  0.26387900  0.83943500  0.21127400  1
  C  983  1  0.25933800  0.83131300  0.23005500  1
  C  984  1  0.24528800  0.81602300  0.23202600  1
  C  985  1  0.20103400  0.74861000  0.18960400  1
  C  986  1  0.21770000  0.73841500  0.18194800  1
  C  987  1  0.21573900  0.72442900  0.16659800  1
  C  988  1  0.19697100  0.71996300  0.15840500  1
  C  989  1  0.18028200  0.72991600  0.16621000  1
  C  990  1  0.18226800  0.74400700  0.18142600  1
  C  991  1  0.17530100  0.78266100  0.24939100  1
  C  992  1  0.16762500  0.76599700  0.25957400  1
  C  993  1  0.15233800  0.76797700  0.27362600  1
  C  994  1  0.14423500  0.78676200  0.27818000  1
  C  995  1  0.15205100  0.80344800  0.26823000  1
  C  996  1  0.16718300  0.80143800  0.25405400  1
  C  1012  1  0.27815400  0.85602900  0.20820100  1
  C  1015  1  0.19391800  0.70579100  0.14171900  1
  C  1018  1  0.12764800  0.78984600  0.29246000  1
  C  1021  1  0.80000500  0.20067400  0.20464600  1
  C  1022  1  0.78464300  0.18644000  0.20360600  1
  C  1023  1  0.78294400  0.17079200  0.21746400  1
  C  1024  1  0.79716200  0.16976800  0.23284100  1
  C  1025  1  0.81281400  0.18362100  0.23453800  1
  C  1026  1  0.81385000  0.19898700  0.22030800  1
  C  1027  1  0.76800100  0.15584000  0.21542300  1
  C  1028  1  0.76339700  0.14766700  0.19665600  1
  C  1029  1  0.74930200  0.13245400  0.19466500  1
  C  1030  1  0.73934500  0.12465000  0.21135300  1
  C  1031  1  0.74380900  0.13284200  0.23012100  1
  C  1032  1  0.75780100  0.14818500  0.23208700  1
  C  1033  1  0.80204700  0.21563300  0.18970800  1
  C  1034  1  0.78538300  0.22581500  0.18203200  1
  C  1035  1  0.78736200  0.23986800  0.16674600  1
  C  1036  1  0.80614700  0.24441700  0.15863800  1
  C  1037  1  0.82283200  0.23446300  0.16644800  1
  C  1038  1  0.82082600  0.22030200  0.18159800  1
  C  1039  1  0.82774200  0.18158900  0.24950600  1
  C  1040  1  0.83540800  0.19825700  0.25969100  1
  C  1041  1  0.85070000  0.19628500  0.27373700  1
  C  1042  1  0.85882000  0.17750500  0.27828200  1
  C  1043  1  0.85101100  0.16081400  0.26833500  1
  C  1044  1  0.83586800  0.16281400  0.25416900  1
  C  1060  1  0.72516800  0.10797000  0.20829900  1
  C  1063  1  0.80923100  0.25870000  0.14205400  1
  C  1066  1  0.87541900  0.17443000  0.29255100  1
  C  1069  1  0.09457950  0.38251900  0.50434800  1
  C  1070  1  0.09599350  0.37223900  0.52253600  1
  C  1071  1  0.11445000  0.36985900  0.53196100  1
  C  1072  1  0.13183400  0.37768300  0.52330600  1
  C  1073  1  0.13040900  0.38790200  0.50509100  1
  C  1074  1  0.11191200  0.39044100  0.49581700  1
  C  1075  1  0.15018500  0.37493800  0.53200700  1
  C  1076  1  0.15620700  0.38512000  0.54804200  1
  C  1077  1  0.17507800  0.38370700  0.55631300  1
  C  1078  1  0.19231300  0.38418700  0.54440000  1
  C  1079  1  0.21151900  0.38424500  0.55277500  1
  C  1080  1  0.21328400  0.38414300  0.57367500  1
  C  1081  1  0.19637500  0.38370300  0.58608000  1
  C  1082  1  0.17739700  0.38373500  0.57712800  1
  C  1083  1  0.19856700  0.38520500  0.60657400  1
  C  1084  1  0.18826600  0.37444500  0.61983900  1
  C  1085  1  0.18945500  0.37719000  0.64021000  1
  C  1086  1  0.17199900  0.38110200  0.65112800  1
  C  1087  1  0.20763600  0.37580000  0.65056100  1
  C  1088  1  0.20833500  0.37855700  0.67123700  1
  C  1089  1  0.19087900  0.38271600  0.68202800  1
  C  1090  1  0.17274100  0.38395300  0.67177200  1
  C  1091  1  0.22783500  0.38587400  0.54021700  1
  C  1092  1  0.24473200  0.37545400  0.54195300  1
  C  1093  1  0.25992300  0.37674700  0.52817600  1
  C  1094  1  0.25731500  0.36938700  0.50874500  1
  C  1095  1  0.27827500  0.38541200  0.53328800  1
  C  1096  1  0.29353600  0.38701500  0.51913600  1
  C  1097  1  0.29098900  0.37970600  0.49968900  1
  C  1098  1  0.27263600  0.37090200  0.49469600  1
  C  1126  1  0.29361800  0.96688700  0.50428500  1
  C  1127  1  0.29221500  0.97717200  0.52247200  1
  C  1128  1  0.27376400  0.97954900  0.53191200  1
  C  1129  1  0.25637600  0.97171500  0.52327500  1
  C  1130  1  0.25779200  0.96149600  0.50505900  1
  C  1131  1  0.27628000  0.95895500  0.49577300  1
  C  1132  1  0.23802600  0.97446800  0.53197700  1
  C  1133  1  0.23200400  0.96432000  0.54803300  1
  C  1134  1  0.21313000  0.96574700  0.55630200  1
  C  1135  1  0.19590100  0.96525100  0.54438400  1
  C  1136  1  0.17669000  0.96519900  0.55275000  1
  C  1137  1  0.17492000  0.96531900  0.57365000  1
  C  1138  1  0.19182200  0.96577800  0.58606500  1
  C  1139  1  0.21080400  0.96573700  0.57711400  1
  C  1140  1  0.18962400  0.96426900  0.60655800  1
  C  1141  1  0.19993400  0.97500800  0.61983100  1
  C  1142  1  0.19874500  0.97225500  0.64020500  1
  C  1143  1  0.21620300  0.96834800  0.65112200  1
  C  1144  1  0.18056800  0.97364500  0.65055900  1
  C  1145  1  0.17987000  0.97088800  0.67123700  1
  C  1146  1  0.19732700  0.96672600  0.68202500  1
  C  1147  1  0.21546300  0.96548800  0.67176600  1
  C  1148  1  0.16038200  0.96353100  0.54018400  1
  C  1149  1  0.14346600  0.97392300  0.54189500  1
  C  1150  1  0.12829000  0.97259500  0.52810400  1
  C  1151  1  0.13090800  0.97993700  0.50866800  1
  C  1152  1  0.10994100  0.96391600  0.53320500  1
  C  1153  1  0.09469650  0.96228200  0.51904000  1
  C  1154  1  0.09725250  0.96957400  0.49958700  1
  C  1155  1  0.11560200  0.97839100  0.49460400  1
  C  1183  1  0.29324500  0.38274300  0.91304400  1
  C  1184  1  0.29160000  0.37237400  0.89492800  1
  C  1185  1  0.27304200  0.37006300  0.88568600  1
  C  1186  1  0.25576800  0.37805300  0.89443200  1
  C  1187  1  0.25744600  0.38834800  0.91258900  1
  C  1188  1  0.27604000  0.39082600  0.92167900  1
  C  1189  1  0.23727300  0.37531600  0.88598500  1
  C  1190  1  0.23180400  0.38360900  0.86870800  1
  C  1191  1  0.21295500  0.38189700  0.86045200  1
  C  1192  1  0.19562900  0.38459100  0.87193100  1
  C  1193  1  0.17650800  0.38335900  0.86345100  1
  C  1194  1  0.17493000  0.37999700  0.84280700  1
  C  1195  1  0.19196300  0.37780000  0.83077700  1
  C  1196  1  0.21084500  0.37854600  0.83989100  1
  C  1197  1  0.18992200  0.37430700  0.81052200  1
  C  1198  1  0.20027100  0.38394100  0.79645500  1
  C  1199  1  0.19888200  0.37995700  0.77630900  1
  C  1200  1  0.21625900  0.37566800  0.76540600  1
  C  1201  1  0.18063000  0.38101300  0.76604700  1
  C  1202  1  0.17979600  0.37764600  0.74546600  1
  C  1203  1  0.19719000  0.37322700  0.73467800  1
  C  1204  1  0.21538200  0.37220700  0.74486000  1
  C  1205  1  0.16002600  0.38613600  0.87557300  1
  C  1206  1  0.14383200  0.37452800  0.87548200  1
  C  1207  1  0.12869000  0.37662500  0.88917800  1
  C  1208  1  0.13136800  0.37020000  0.90891900  1
  C  1209  1  0.11025300  0.38482100  0.88363600  1
  C  1210  1  0.09492450  0.38681900  0.89766600  1
  C  1211  1  0.09749250  0.38036100  0.91741300  1
  C  1212  1  0.11597800  0.37210600  0.92284500  1
  C  1240  1  0.09499550  0.96668600  0.91311800  1
  C  1241  1  0.09662450  0.97705500  0.89500100  1
  C  1242  1  0.11517600  0.97936800  0.88574300  1
  C  1243  1  0.13245900  0.97138600  0.89447800  1
  C  1244  1  0.13079500  0.96108800  0.91263400  1
  C  1245  1  0.11220900  0.95860600  0.92173900  1
  C  1246  1  0.15094800  0.97412200  0.88601400  1
  C  1247  1  0.15640600  0.96583600  0.86873000  1
  C  1248  1  0.17525600  0.96753200  0.86047400  1
  C  1249  1  0.19257900  0.96481200  0.87195200  1
  C  1250  1  0.21170300  0.96602100  0.86347300  1
  C  1251  1  0.21328600  0.96938300  0.84283100  1
  C  1252  1  0.19625700  0.97160800  0.83079700  1
  C  1253  1  0.17737400  0.97088400  0.83991100  1
  C  1254  1  0.19830400  0.97510100  0.81054500  1
  C  1255  1  0.18794200  0.96548800  0.79647300  1
  C  1256  1  0.18933400  0.96947200  0.77632400  1
  C  1257  1  0.17195800  0.97376500  0.76541900  1
  C  1258  1  0.20758300  0.96840900  0.76605900  1
  C  1259  1  0.20841700  0.97177100  0.74547600  1
  C  1260  1  0.19102600  0.97619600  0.73468800  1
  C  1261  1  0.17283400  0.97722200  0.74487300  1
  C  1262  1  0.22818000  0.96320800  0.87559600  1
  C  1263  1  0.24437300  0.97481900  0.87553800  1
  C  1264  1  0.25949900  0.97270400  0.88925100  1
  C  1265  1  0.25680800  0.97913000  0.90899000  1
  C  1266  1  0.27793500  0.96449200  0.88372700  1
  C  1267  1  0.29324500  0.96247000  0.89777500  1
  C  1268  1  0.29066400  0.96892900  0.91752200  1
  C  1269  1  0.27218100  0.97720700  0.92293300  1
  C  1297  1  0.48995500  0.07518510  0.41629300  1
  C  1298  1  0.50814000  0.07660510  0.40600800  1
  C  1299  1  0.51756100  0.09506610  0.40362900  1
  C  1300  1  0.50890900  0.11244400  0.41146800  1
  C  1301  1  0.49069800  0.11101100  0.42169400  1
  C  1302  1  0.48142600  0.09251510  0.42422500  1
  C  1303  1  0.51760500  0.13079600  0.40872900  1
  C  1304  1  0.53363600  0.13682300  0.41891400  1
  C  1305  1  0.54191500  0.15569100  0.41749200  1
  C  1306  1  0.52999900  0.17292500  0.41793800  1
  C  1307  1  0.53837500  0.19213100  0.41797900  1
  C  1308  1  0.55927500  0.19389500  0.41788300  1
  C  1309  1  0.57168100  0.17698500  0.41745900  1
  C  1310  1  0.56273000  0.15800800  0.41751200  1
  C  1311  1  0.59217400  0.17917900  0.41895700  1
  C  1312  1  0.60543500  0.16888900  0.40818500  1
  C  1313  1  0.62580700  0.17007100  0.41094300  1
  C  1314  1  0.63671900  0.15261300  0.41486100  1
  C  1315  1  0.63616100  0.18824700  0.40955400  1
  C  1316  1  0.65683700  0.18894500  0.41231900  1
  C  1317  1  0.66762200  0.17148900  0.41648600  1
  C  1318  1  0.65736300  0.15335200  0.41772400  1
  C  1319  1  0.52581700  0.20844700  0.41962300  1
  C  1320  1  0.52754900  0.22534400  0.40920100  1
  C  1321  1  0.51377500  0.24053600  0.41050000  1
  C  1322  1  0.49434100  0.23793100  0.40314600  1
  C  1323  1  0.51889400  0.25888800  0.41916100  1
  C  1324  1  0.50474300  0.27415100  0.42077000  1
  C  1325  1  0.48529300  0.27160500  0.41347200  1
  C  1326  1  0.48029500  0.25325400  0.40466600  1
  C  1354  1  0.48949400  0.27381400  0.00045693  1
  C  1355  1  0.50760800  0.27217600  0.01083090  1
  C  1356  1  0.51686100  0.25362200  0.01313890  1
  C  1357  1  0.50812800  0.23634600  0.00513993  1
  C  1358  1  0.48997500  0.23801700  0.99483700  1
  C  1359  1  0.48087300  0.25660700  0.99236300  1
  C  1360  1  0.51658300  0.21785200  0.00786593  1
  C  1361  1  0.53387600  0.21239400  0.99959600  1
  C  1362  1  0.54213400  0.19354400  0.00130093  1
  C  1363  1  0.53065500  0.17622000  0.99858700  1
  C  1364  1  0.53913200  0.15709800  0.99980500  1
  C  1365  1  0.55977600  0.15551500  0.00316093  1
  C  1366  1  0.57181000  0.17254500  0.00538593  1
  C  1367  1  0.56269600  0.19142700  0.00465293  1
  C  1368  1  0.59206400  0.17049900  0.00887493  1
  C  1369  1  0.60613400  0.18086300  0.99926100  1
  C  1370  1  0.62628400  0.17947200  0.00324393  1
  C  1371  1  0.63718400  0.19684900  0.00754093  1
  C  1372  1  0.63655500  0.16122700  0.00216493  1
  C  1373  1  0.65713800  0.16039700  0.00552293  1
  C  1374  1  0.66792300  0.17778800  0.00995393  1
  C  1375  1  0.65773400  0.19597600  0.01099390  1
  C  1376  1  0.52700600  0.14062400  0.99699700  1
  C  1377  1  0.52706400  0.12442800  0.00860393  1
  C  1378  1  0.51334900  0.10930300  0.00648693  1
  C  1379  1  0.49361200  0.11199600  0.01291990  1
  C  1380  1  0.51886600  0.09087410  0.99825700  1
  C  1381  1  0.50481300  0.07556710  0.99623500  1
  C  1382  1  0.48506900  0.07814910  0.00269593  1
  C  1383  1  0.47966400  0.09662710  0.01098990  1
  C  1411  1  0.89864900  0.27385600  0.41647700  1
  C  1412  1  0.88054100  0.27220200  0.40609700  1
  C  1413  1  0.87130400  0.25364100  0.40378900  1
  C  1414  1  0.88004600  0.23637500  0.41179900  1
  C  1415  1  0.89819400  0.23806100  0.42210600  1
  C  1416  1  0.90728000  0.25665800  0.42458100  1
  C  1417  1  0.87159500  0.21787900  0.40908400  1
  C  1418  1  0.85431200  0.21242300  0.41737300  1
  C  1419  1  0.84605000  0.19357700  0.41567100  1
  C  1420  1  0.85752200  0.17624800  0.41838200  1
  C  1421  1  0.84903300  0.15713200  0.41716000  1
  C  1422  1  0.82839100  0.15555900  0.41378600  1
  C  1423  1  0.81636900  0.17259500  0.41157100  1
  C  1424  1  0.82548700  0.19147300  0.41231500  1
  C  1425  1  0.79611400  0.17055800  0.40808100  1
  C  1426  1  0.78205100  0.18090500  0.41772100  1
  C  1427  1  0.76190200  0.17951100  0.41374600  1
  C  1428  1  0.75099600  0.19688300  0.40944900  1
  C  1429  1  0.75164700  0.16125600  0.41479900  1
  C  1430  1  0.73106500  0.16041500  0.41143300  1
  C  1431  1  0.72027300  0.17780300  0.40700900  1
  C  1432  1  0.73045100  0.19600000  0.40598700  1
  C  1433  1  0.86114400  0.14064600  0.41995000  1
  C  1434  1  0.86105900  0.12445600  0.40833500  1
  C  1435  1  0.87476500  0.10932400  0.41043200  1
  C  1436  1  0.89449000  0.11199200  0.40395500  1
  C  1437  1  0.86924500  0.09091010  0.41869300  1
  C  1438  1  0.88328200  0.07558910  0.42069700  1
  C  1439  1  0.90301400  0.07814610  0.41418700  1
  C  1440  1  0.90842400  0.09660910  0.40586700  1
  C  1468  1  0.89832300  0.07522610  0.00064193  1
  C  1469  1  0.88013200  0.07663210  0.01091990  1
  C  1470  1  0.87069800  0.09508510  0.01330290  1
  C  1471  1  0.87933900  0.11247300  0.00547493  1
  C  1472  1  0.89755600  0.11105600  0.99525800  1
  C  1473  1  0.90684000  0.09256610  0.99271600  1
  C  1474  1  0.87063700  0.13082300  0.00822593  1
  C  1475  1  0.85458500  0.13684600  0.99806900  1
  C  1476  1  0.84631700  0.15572100  0.99948800  1
  C  1477  1  0.85823500  0.17295100  0.99901400  1
  C  1478  1  0.84986600  0.19215900  0.99896700  1
  C  1479  1  0.82896400  0.19392900  0.99909700  1
  C  1480  1  0.81655400  0.17702200  0.99952800  1
  C  1481  1  0.82550200  0.15804200  0.99948400  1
  C  1482  1  0.79605800  0.17922100  0.99802800  1
  C  1483  1  0.78278600  0.16890200  0.00876193  1
  C  1484  1  0.76241200  0.17009200  0.00601093  1
  C  1485  1  0.75149800  0.15263500  0.00208493  1
  C  1486  1  0.75205500  0.18826700  0.00741093  1
  C  1487  1  0.73137500  0.18896100  0.00465493  1
  C  1488  1  0.72059000  0.17150600  0.00047893  1
  C  1489  1  0.73085400  0.15337300  0.99922900  1
  C  1490  1  0.86243400  0.20846900  0.99732300  1
  C  1491  1  0.86071600  0.22538200  0.00771893  1
  C  1492  1  0.87450900  0.24056000  0.00640693  1
  C  1493  1  0.89394600  0.23793300  0.01374290  1
  C  1494  1  0.86940600  0.25891800  0.99774900  1
  C  1495  1  0.88357400  0.27416400  0.99612700  1
  C  1496  1  0.90302900  0.27159600  0.00340693  1
  C  1497  1  0.90801000  0.25323900  0.01220990  1
  C  1525  1  0.40196000  0.47050400  0.10896500  1
  C  1526  1  0.39168600  0.48869800  0.11035200  1
  C  1527  1  0.38929400  0.49814400  0.12879700  1
  C  1528  1  0.39710300  0.48950700  0.14619700  1
  C  1529  1  0.40731600  0.47128600  0.14479800  1
  C  1530  1  0.40986700  0.46199000  0.12631500  1
  C  1531  1  0.39434200  0.49822300  0.16453800  1
  C  1532  1  0.40451200  0.51426600  0.17055900  1
  C  1533  1  0.40309200  0.52254200  0.18943000  1
  C  1534  1  0.40356600  0.51063100  0.20666500  1
  C  1535  1  0.40362000  0.51900900  0.22587000  1
  C  1536  1  0.40351800  0.53990900  0.22763200  1
  C  1537  1  0.40308400  0.55231300  0.21072200  1
  C  1538  1  0.40312000  0.54335700  0.19174500  1
  C  1539  1  0.40458900  0.57280700  0.21291300  1
  C  1540  1  0.39383700  0.58607500  0.20260900  1
  C  1541  1  0.39658300  0.60644700  0.20380100  1
  C  1542  1  0.40049800  0.61736600  0.18634600  1
  C  1543  1  0.39518800  0.61679700  0.22198000  1
  C  1544  1  0.39794100  0.63747600  0.22268000  1
  C  1545  1  0.40210500  0.64826700  0.20522700  1
  C  1546  1  0.40334600  0.63801100  0.18708900  1
  C  1547  1  0.40524200  0.50644900  0.24218800  1
  C  1548  1  0.39483800  0.50819600  0.25909300  1
  C  1549  1  0.39613300  0.49442000  0.27428500  1
  C  1550  1  0.38876900  0.47499000  0.27168200  1
  C  1551  1  0.40479800  0.49953400  0.29263600  1
  C  1552  1  0.40640100  0.48538300  0.30790000  1
  C  1553  1  0.39909100  0.46593800  0.30535600  1
  C  1554  1  0.39028500  0.46094300  0.28700500  1
  C  1582  1  0.98627200  0.47053400  0.30803100  1
  C  1583  1  0.99655800  0.48872100  0.30663200  1
  C  1584  1  0.99893600  0.49816500  0.28818400  1
  C  1585  1  0.99110100  0.48953400  0.27079400  1
  C  1586  1  0.98088000  0.47131800  0.27220500  1
  C  1587  1  0.97834000  0.46202700  0.29069100  1
  C  1588  1  0.99385300  0.49824200  0.25244900  1
  C  1589  1  0.98369600  0.51429400  0.24643000  1
  C  1590  1  0.98512500  0.52257100  0.22756100  1
  C  1591  1  0.98464400  0.51065900  0.21032600  1
  C  1592  1  0.98459900  0.51903500  0.19112000  1
  C  1593  1  0.98470800  0.53993700  0.18935900  1
  C  1594  1  0.98515300  0.55234200  0.20626800  1
  C  1595  1  0.98510600  0.54338500  0.22524500  1
  C  1596  1  0.98363800  0.57283500  0.20407600  1
  C  1597  1  0.99438300  0.58610600  0.21438200  1
  C  1598  1  0.99163500  0.60648000  0.21318900  1
  C  1599  1  0.98772600  0.61740000  0.23064500  1
  C  1600  1  0.99302500  0.61682800  0.19500900  1
  C  1601  1  0.99026800  0.63750600  0.19430700  1
  C  1602  1  0.98610400  0.64829700  0.21176000  1
  C  1603  1  0.98486600  0.63804200  0.22989800  1
  C  1604  1  0.98295100  0.50647900  0.17480400  1
  C  1605  1  0.99335700  0.50821200  0.15789700  1
  C  1606  1  0.99204300  0.49443800  0.14270800  1
  C  1607  1  0.99940700  0.47500700  0.14530400  1
  C  1608  1  0.98335700  0.49955100  0.12436600  1
  C  1609  1  0.98173900  0.48540100  0.10910500  1
  C  1610  1  0.98905400  0.46595500  0.11163900  1
  C  1611  1  0.99787700  0.46096100  0.12998200  1
  C  1639  1  0.40209900  0.87927400  0.30760200  1
  C  1640  1  0.39172300  0.86116300  0.30595000  1
  C  1641  1  0.38941700  0.85192300  0.28739000  1
  C  1642  1  0.39741700  0.86066800  0.27012100  1
  C  1643  1  0.40771900  0.87881900  0.27180500  1
  C  1644  1  0.41019700  0.88790500  0.29040200  1
  C  1645  1  0.39468700  0.85222200  0.25162400  1
  C  1646  1  0.40298000  0.83494500  0.24615600  1
  C  1647  1  0.40128300  0.82669600  0.22730300  1
  C  1648  1  0.40399800  0.83818300  0.20998400  1
  C  1649  1  0.40278500  0.82971100  0.19085900  1
  C  1650  1  0.39941800  0.80906800  0.18926800  1
  C  1651  1  0.39720400  0.79702900  0.20629400  1
  C  1652  1  0.39793100  0.80613700  0.22518000  1
  C  1653  1  0.39371200  0.77677600  0.20424400  1
  C  1654  1  0.40333200  0.76270600  0.21460300  1
  C  1655  1  0.39934400  0.74255800  0.21321400  1
  C  1656  1  0.39505300  0.73165600  0.23059100  1
  C  1657  1  0.40040500  0.73229100  0.19496600  1
  C  1658  1  0.39704100  0.71170800  0.19413500  1
  C  1659  1  0.39261900  0.70092300  0.21152800  1
  C  1660  1  0.39159400  0.71111000  0.22971800  1
  C  1661  1  0.40558900  0.84184000  0.17438600  1
  C  1662  1  0.39399200  0.84177700  0.15818500  1
  C  1663  1  0.39611200  0.85549000  0.14306000  1
  C  1664  1  0.38968000  0.87522700  0.14575000  1
  C  1665  1  0.40433900  0.84997100  0.12463100  1
  C  1666  1  0.40635900  0.86401700  0.10932100  1
  C  1667  1  0.39989500  0.88376200  0.11190000  1
  C  1668  1  0.39160900  0.88917200  0.13037900  1
  C  1696  1  0.98607900  0.87930200  0.10938900  1
  C  1697  1  0.99644600  0.86118700  0.11103800  1
  C  1698  1  0.99876000  0.85195000  0.12959900  1
  C  1699  1  0.99077800  0.86070400  0.14687100  1
  C  1700  1  0.98047900  0.87885800  0.14518900  1
  C  1701  1  0.97799900  0.88794400  0.12659200  1
  C  1702  1  0.99351100  0.85225800  0.16536700  1
  C  1703  1  0.98521700  0.83498100  0.17083900  1
  C  1704  1  0.98691900  0.82673200  0.18969000  1
  C  1705  1  0.98421100  0.83821600  0.20701200  1
  C  1706  1  0.98542900  0.82974000  0.22613600  1
  C  1707  1  0.98878500  0.80909600  0.22772200  1
  C  1708  1  0.99100000  0.79706000  0.21069500  1
  C  1709  1  0.99027000  0.80616900  0.19181000  1
  C  1710  1  0.99448800  0.77680500  0.21274200  1
  C  1711  1  0.98486900  0.76273700  0.20238200  1
  C  1712  1  0.98885500  0.74258900  0.20377000  1
  C  1713  1  0.99314500  0.73168900  0.18639200  1
  C  1714  1  0.98779600  0.73232200  0.22201800  1
  C  1715  1  0.99116000  0.71173900  0.22284800  1
  C  1716  1  0.99558100  0.70095400  0.20545400  1
  C  1717  1  0.99660200  0.71114100  0.18726300  1
  C  1718  1  0.98262800  0.84186700  0.24261200  1
  C  1719  1  0.99423900  0.84180200  0.25880400  1
  C  1720  1  0.99213500  0.85551500  0.27393100  1
  C  1721  1  0.99855100  0.87525500  0.27123300  1
  C  1722  1  0.98394000  0.84999000  0.29237500  1
  C  1723  1  0.98192600  0.86403800  0.30768400  1
  C  1724  1  0.98837500  0.88378600  0.30509700  1
  C  1725  1  0.99663600  0.88920000  0.28660700  1
  C  1753  1  0.39539500  0.39311700  0.39707300  1
  C  1754  1  0.41079600  0.37895500  0.39589500  1
  C  1755  1  0.41248600  0.36332700  0.40976700  1
  C  1756  1  0.39832000  0.36214600  0.42516600  1
  C  1757  1  0.38269500  0.37601900  0.42685700  1
  C  1758  1  0.38151700  0.39142300  0.41269500  1
  C  1759  1  0.42765400  0.34870400  0.40787100  1
  C  1760  1  0.43094800  0.33901300  0.38957700  1
  C  1761  1  0.44572300  0.32443600  0.38765200  1
  C  1762  1  0.45783200  0.31918100  0.40391000  1
  C  1763  1  0.45463900  0.32889500  0.42218300  1
  C  1764  1  0.43968100  0.34330800  0.42417800  1
  C  1765  1  0.39349900  0.40828700  0.38245200  1
  C  1766  1  0.40980600  0.42031600  0.37705600  1
  C  1767  1  0.40781200  0.43527200  0.36264000  1
  C  1768  1  0.38953800  0.43846800  0.35293100  1
  C  1769  1  0.37328000  0.42636100  0.35818600  1
  C  1770  1  0.37520400  0.41158400  0.37276200  1
  C  1771  1  0.36807400  0.37412400  0.44202700  1
  C  1772  1  0.36267900  0.39042900  0.45405700  1
  C  1773  1  0.34826800  0.38843200  0.46901600  1
  C  1774  1  0.33855800  0.37015700  0.47221100  1
  C  1775  1  0.34381100  0.35390200  0.46009900  1
  C  1776  1  0.35837900  0.35583000  0.44531800  1
  C  1792  1  0.47374400  0.30398500  0.40188300  1
  C  1795  1  0.38751000  0.45438300  0.33773700  1
  C  1798  1  0.32336800  0.36812600  0.48812800  1
  C  1801  1  0.99254900  0.95642600  0.39703700  1
  C  1802  1  0.97716500  0.97061600  0.39598700  1
  C  1803  1  0.97557300  0.98618800  0.40993000  1
  C  1804  1  0.98980900  0.98728700  0.42526500  1
  C  1805  1  0.00543050  0.97339200  0.42681900  1
  C  1806  1  0.00651650  0.95804300  0.41259200  1
  C  1807  1  0.96044900  0.00086407  0.40814800  1
  C  1808  1  0.95722900  0.01074110  0.38994200  1
  C  1809  1  0.94251900  0.02539510  0.38813500  1
  C  1810  1  0.93039300  0.03053710  0.40442000  1
  C  1811  1  0.93350800  0.02062710  0.42260200  1
  C  1812  1  0.94841600  0.00614607  0.42448700  1
  C  1813  1  0.99434600  0.94132000  0.38234200  1
  C  1814  1  0.97802700  0.92925200  0.37707400  1
  C  1815  1  0.97992800  0.91435000  0.36259000  1
  C  1816  1  0.99810800  0.91126100  0.35267000  1
  C  1817  1  0.01437450  0.92341900  0.35779700  1
  C  1818  1  0.01255150  0.93813100  0.37245100  1
  C  1819  1  0.02012950  0.97522500  0.44192300  1
  C  1820  1  0.02555050  0.95888300  0.45389300  1
  C  1821  1  0.03998550  0.96084100  0.46883700  1
  C  1822  1  0.04969350  0.97910900  0.47207500  1
  C  1823  1  0.04442850  0.99539500  0.46000600  1
  C  1824  1  0.02983750  0.99350500  0.44524400  1
  C  1840  1  0.91452000  0.04578810  0.40249100  1
  C  1843  1  0.00006250  0.89537200  0.33743500  1
  C  1846  1  0.06486750  0.98111800  0.48801000  1
  C  1849  1  0.99284300  0.39320000  0.01985890  1
  C  1850  1  0.97749400  0.37897900  0.02101590  1
  C  1851  1  0.97586500  0.36335900  0.00712493  1
  C  1852  1  0.99004000  0.36225100  0.99172800  1
  C  1853  1  0.00560450  0.37619700  0.99005400  1
  C  1854  1  0.00672050  0.39158600  0.00423093  1
  C  1855  1  0.96073800  0.34868900  0.00899793  1
  C  1856  1  0.95744100  0.33898700  0.02728590  1
  C  1857  1  0.94267400  0.32440200  0.02920090  1
  C  1858  1  0.93057300  0.31914300  0.01293890  1
  C  1859  1  0.93377700  0.32885700  0.99466700  1
  C  1860  1  0.94872700  0.34328000  0.99268200  1
  C  1861  1  0.99469900  0.40834600  0.03450990  1
  C  1862  1  0.97836500  0.42032900  0.03992390  1
  C  1863  1  0.98033200  0.43527800  0.05435090  1
  C  1864  1  0.99860500  0.43851300  0.06405190  1
  C  1865  1  0.01488850  0.42644200  0.05878090  1
  C  1866  1  0.01298950  0.41167400  0.04419690  1
  C  1867  1  0.02025050  0.37437800  0.97490400  1
  C  1868  1  0.02550750  0.39069100  0.96282200  1
  C  1869  1  0.03997650  0.38878000  0.94790700  1
  C  1870  1  0.04989950  0.37060000  0.94482900  1
  C  1871  1  0.04477850  0.35434000  0.95699600  1
  C  1872  1  0.03013450  0.35617100  0.97171700  1
  C  1888  1  0.91463900  0.30396800  0.01496990  1
  C  1891  1  0.00061250  0.45443000  0.07924290  1
  C  1894  1  0.06514850  0.36865000  0.92895500  1
  C  1897  1  0.39561400  0.95634100  0.01989890  1
  C  1898  1  0.41094800  0.97058800  0.02092590  1
  C  1899  1  0.41247800  0.98615100  0.00696393  1
  C  1900  1  0.39823000  0.98718000  0.99163300  1
  C  1901  1  0.38267100  0.97321400  0.99009700  1
  C  1902  1  0.38164600  0.95787900  0.00434093  1
  C  1903  1  0.42756200  0.00087607  0.00872193  1
  C  1904  1  0.43078200  0.01076310  0.02692190  1
  C  1905  1  0.44548600  0.02542610  0.02871990  1
  C  1906  1  0.45760600  0.03056910  0.01243090  1
  C  1907  1  0.45448000  0.02065810  0.99425200  1
  C  1908  1  0.43957900  0.00616807  0.99237500  1
  C  1909  1  0.39385900  0.94125600  0.03462090  1
  C  1910  1  0.41020600  0.92923600  0.03990790  1
  C  1911  1  0.40833400  0.91433800  0.05440090  1
  C  1912  1  0.39015400  0.91121400  0.06431490  1
  C  1913  1  0.37386500  0.92333200  0.05917490  1
  C  1914  1  0.37566000  0.93803600  0.04451290  1
  C  1915  1  0.36794800  0.97496900  0.97501400  1
  C  1916  1  0.36265800  0.95862100  0.96299500  1
  C  1917  1  0.34816400  0.96049300  0.94809700  1
  C  1918  1  0.33824900  0.97867100  0.94497500  1
  C  1919  1  0.34338700  0.99496000  0.95709500  1
  C  1920  1  0.35805300  0.99316600  0.97179700  1
  C  1936  1  0.47350200  0.04579710  0.01436490  1
  C  1939  1  0.38822400  0.89532000  0.07954690  1
  C  1942  1  0.32301600  0.98060200  0.92908100  1
  C  1945  1  0.99259700  0.95610600  0.01983690  1
  C  1946  1  0.97723500  0.97034300  0.02084090  1
  C  1947  1  0.97557400  0.98600100  0.00698993  1
  C  1948  1  0.98982800  0.98702300  0.99164300  1
  C  1949  1  0.00547550  0.97315900  0.98997400  1
  C  1950  1  0.00647750  0.95779300  0.00420693  1
  C  1951  1  0.96062600  0.00095107  0.00901693  1
  C  1952  1  0.95594500  0.00906707  0.02779090  1
  C  1953  1  0.94179500  0.02422710  0.02978390  1
  C  1954  1  0.93185500  0.03204110  0.01309190  1
  C  1955  1  0.93641300  0.02392810  0.99431100  1
  C  1956  1  0.95046000  0.00863307  0.99234300  1
  C  1957  1  0.99461700  0.94117300  0.03480190  1
  C  1958  1  0.97794300  0.93099400  0.04246290  1
  C  1959  1  0.97989200  0.91701300  0.05781890  1
  C  1960  1  0.99865500  0.91253700  0.06601590  1
  C  1961  1  0.01535350  0.92247300  0.05820790  1
  C  1962  1  0.01337750  0.93655900  0.04298590  1
  C  1963  1  0.02044350  0.97518700  0.97504500  1
  C  1964  1  0.02811150  0.95851600  0.96486400  1
  C  1965  1  0.04346050  0.96047400  0.95087700  1
  C  1966  1  0.05163950  0.97924200  0.94638900  1
  C  1967  1  0.04382350  0.99593600  0.95632500  1
  C  1968  1  0.02862250  0.99395000  0.97043400  1
  C  1984  1  0.91757800  0.04863210  0.01616490  1
  C  1987  1  0.00169950  0.89836600  0.08270290  1
  C  1990  1  0.06831950  0.98229400  0.93220900  1
  C  1993  1  0.39562200  0.39323400  0.01975690  1
  C  1994  1  0.41096900  0.37898000  0.02078190  1
  C  1995  1  0.41263700  0.36333000  0.00692193  1
  C  1996  1  0.39840200  0.36232400  0.99155800  1
  C  1997  1  0.38277000  0.37620200  0.98987200  1
  C  1998  1  0.38176600  0.39156700  0.00410393  1
  C  1999  1  0.42756300  0.34836000  0.00895293  1
  C  2000  1  0.43218000  0.34019100  0.02771890  1
  C  2001  1  0.44627300  0.32497500  0.02970490  1
  C  2002  1  0.45621600  0.31716200  0.01301290  1
  C  2003  1  0.45173600  0.32534500  0.99424600  1
  C  2004  1  0.43774500  0.34069200  0.99228500  1
  C  2005  1  0.39359500  0.40818400  0.03470590  1
  C  2006  1  0.41027000  0.41834900  0.04238890  1
  C  2007  1  0.40830100  0.43239500  0.05768190  1
  C  2008  1  0.38951900  0.43695700  0.06578890  1
  C  2009  1  0.37282700  0.42702000  0.05797590  1
  C  2010  1  0.37482100  0.41286500  0.04281990  1
  C  2011  1  0.36781100  0.37418400  0.97493200  1
  C  2012  1  0.36016100  0.39086000  0.96474900  1
  C  2013  1  0.34480600  0.38891500  0.95076500  1
  C  2014  1  0.33660800  0.37015200  0.94628400  1
  C  2015  1  0.34441200  0.35345300  0.95622000  1
  C  2016  1  0.35961400  0.35542900  0.97032700  1
  C  2032  1  0.47039900  0.30048600  0.01606690  1
  C  2035  1  0.38644200  0.45123900  0.08237590  1
  C  2038  1  0.31992000  0.36711400  0.93211300  1
  C  2041  1  0.39563200  0.95611000  0.39711900  1
  C  2042  1  0.41101000  0.97033000  0.39610000  1
  C  2043  1  0.41270200  0.98598500  0.40995100  1
  C  2044  1  0.39846400  0.98702200  0.42531000  1
  C  2045  1  0.38279900  0.97318000  0.42699100  1
  C  2046  1  0.38176500  0.95781600  0.41275800  1
  C  2047  1  0.42766500  0.00091607  0.40791600  1
  C  2048  1  0.43233400  0.00903607  0.38914100  1
  C  2049  1  0.44648900  0.02419210  0.38714400  1
  C  2050  1  0.45644000  0.03199510  0.40383300  1
  C  2051  1  0.45189900  0.02387310  0.42261400  1
  C  2052  1  0.43784900  0.00858307  0.42458500  1
  C  2053  1  0.39359500  0.94117000  0.38216300  1
  C  2054  1  0.41026100  0.93097500  0.37450700  1
  C  2055  1  0.40830000  0.91698900  0.35915700  1
  C  2056  1  0.38953200  0.91252300  0.35096400  1
  C  2057  1  0.37284300  0.92247600  0.35876900  1
  C  2058  1  0.37482900  0.93656700  0.37398500  1
  C  2059  1  0.36786200  0.97522100  0.44195000  1
  C  2060  1  0.36018600  0.95855700  0.45213300  1
  C  2061  1  0.34489900  0.96053700  0.46618500  1
  C  2062  1  0.33679600  0.97932200  0.47073900  1
  C  2063  1  0.34461200  0.99600800  0.46078900  1
  C  2064  1  0.35974400  0.99399800  0.44661300  1
  C  2080  1  0.47071500  0.04858910  0.40076000  1
  C  2083  1  0.38647900  0.89835100  0.33427800  1
  C  2086  1  0.32020900  0.98240600  0.48501900  1
  C  2089  1  0.99256600  0.39323400  0.39720500  1
  C  2090  1  0.97720400  0.37900000  0.39616500  1
  C  2091  1  0.97550500  0.36335200  0.41002300  1
  C  2092  1  0.98972300  0.36232800  0.42540000  1
  C  2093  1  0.00537550  0.37618100  0.42709700  1
  C  2094  1  0.00641150  0.39154700  0.41286700  1
  C  2095  1  0.96056200  0.34840000  0.40798200  1
  C  2096  1  0.95595800  0.34022700  0.38921500  1
  C  2097  1  0.94186300  0.32501400  0.38722400  1
  C  2098  1  0.93190600  0.31721000  0.40391200  1
  C  2099  1  0.93637000  0.32540200  0.42268000  1
  C  2100  1  0.95036200  0.34074500  0.42464600  1
  C  2101  1  0.99460800  0.40819300  0.38226700  1
  C  2102  1  0.97794400  0.41837500  0.37459100  1
  C  2103  1  0.97992300  0.43242800  0.35930500  1
  C  2104  1  0.99870800  0.43697700  0.35119700  1
  C  2105  1  0.01539350  0.42702300  0.35900700  1
  C  2106  1  0.01338750  0.41286200  0.37415700  1
  C  2107  1  0.02030350  0.37414900  0.44206500  1
  C  2108  1  0.02796950  0.39081700  0.45225000  1
  C  2109  1  0.04326150  0.38884500  0.46629600  1
  C  2110  1  0.05138150  0.37006500  0.47084100  1
  C  2111  1  0.04357250  0.35337400  0.46089400  1
  C  2112  1  0.02842950  0.35537400  0.44672800  1
  C  2128  1  0.91772900  0.30053000  0.40085800  1
  C  2131  1  0.00179250  0.45126000  0.33461300  1
  C  2134  1  0.06798050  0.36699000  0.48511000  1
  N  52  1  0.99838600  0.19365900  0.51014800  1
  N  54  1  0.88383300  0.19264000  0.30169000  1
  N  56  1  0.11389500  0.18948100  0.29296100  1
  N  109  1  0.00470000  0.77065500  0.51014500  1
  N  111  1  0.11923600  0.77164300  0.30161600  1
  N  113  1  0.88923500  0.77466400  0.29284800  1
  N  166  1  0.00449300  0.17704300  0.52145600  1
  N  168  1  0.11897300  0.19278100  0.73041800  1
  N  170  1  0.88930000  0.19028600  0.73882800  1
  N  223  1  0.99860100  0.78726600  0.52146600  1
  N  225  1  0.88415300  0.77151600  0.73050400  1
  N  227  1  0.11372100  0.77387100  0.73895300  1
  N  280  1  0.49574000  0.97899400  0.22743400  1
  N  282  1  0.28729700  0.86443800  0.22641100  1
  N  284  1  0.27856900  0.09451800  0.22324300  1
  N  337  1  0.49602500  0.98509500  0.82102600  1
  N  339  1  0.28699200  0.09953800  0.80529200  1
  N  341  1  0.27851400  0.86997500  0.80764000  1
  N  394  1  0.50705000  0.98509900  0.21082000  1
  N  396  1  0.71601500  0.09958700  0.22651800  1
  N  398  1  0.72443200  0.86995600  0.22410300  1
  N  451  1  0.50734900  0.97901000  0.80441100  1
  N  453  1  0.71587100  0.86448700  0.80539900  1
  N  455  1  0.72465400  0.09448900  0.80850100  1
  N  508  1  0.21304900  0.47638600  0.01273700  1
  N  510  1  0.21208900  0.26782300  0.89823500  1
  N  512  1  0.20886300  0.25921000  0.12826700  1
  N  565  1  0.79003400  0.47641600  0.01913000  1
  N  567  1  0.79102800  0.26785900  0.13364800  1
  N  569  1  0.79415700  0.25923200  0.90360900  1
  N  622  1  0.19643200  0.48770000  0.01883600  1
  N  624  1  0.21213900  0.69664100  0.13333400  1
  N  626  1  0.20983100  0.70519400  0.90372400  1
  N  679  1  0.80664800  0.48773100  0.01302700  1
  N  681  1  0.79091400  0.69667100  0.89853800  1
  N  683  1  0.79331500  0.70521900  0.12815300  1
  N  1120  1  0.19094700  0.38621900  0.70270700  1
  N  1122  1  0.07639450  0.38520000  0.49424900  1
  N  1124  1  0.30645600  0.38204100  0.48552000  1
  N  1177  1  0.19726100  0.96321500  0.70270400  1
  N  1179  1  0.31179700  0.96420300  0.49417500  1
  N  1181  1  0.08179650  0.96722400  0.48540700  1
  N  1234  1  0.19705400  0.36960300  0.71401500  1
  N  1236  1  0.31153400  0.38534100  0.92297700  1
  N  1238  1  0.08186150  0.38284600  0.93138700  1
  N  1291  1  0.19116200  0.97982600  0.71402500  1
  N  1293  1  0.07671450  0.96407600  0.92306300  1
  N  1295  1  0.30628200  0.96643100  0.93151200  1
  N  1348  1  0.68830100  0.17155400  0.41999300  1
  N  1350  1  0.47985800  0.05699810  0.41897000  1
  N  1352  1  0.47113000  0.28707800  0.41580200  1
  N  1405  1  0.68858600  0.17765500  0.01358490  1
  N  1407  1  0.47955300  0.29209800  0.99785100  1
  N  1409  1  0.47107500  0.06253510  0.00019893  1
  N  1462  1  0.69961100  0.17765900  0.40337900  1
  N  1464  1  0.90857600  0.29214700  0.41907700  1
  N  1466  1  0.91699300  0.06251610  0.41666200  1
  N  1519  1  0.69991000  0.17157000  0.99697000  1
  N  1521  1  0.90843200  0.05704710  0.99795800  1
  N  1523  1  0.91721500  0.28704900  0.00105993  1
  N  1576  1  0.40561000  0.66894600  0.20529600  1
  N  1578  1  0.40465000  0.46038300  0.09079390  1
  N  1580  1  0.40142400  0.45177000  0.32082600  1
  N  1633  1  0.98259500  0.66897600  0.21168900  1
  N  1635  1  0.98358900  0.46041900  0.32620700  1
  N  1637  1  0.98671800  0.45179200  0.09616790  1
  N  1690  1  0.38899300  0.68026000  0.21139500  1
  N  1692  1  0.40470000  0.88920100  0.32589300  1
  N  1694  1  0.40239200  0.89775400  0.09628290  1
  N  1747  1  0.99920900  0.68029100  0.20558600  1
  N  1749  1  0.98347500  0.88923100  0.09109690  1
  N  1751  1  0.98587600  0.89777900  0.32071200  1
