# generated using pymatgen
data_H10(C4N)3
_symmetry_space_group_name_H-M   'P 1'
_cell_length_a   28.00770000
_cell_length_b   28.00750000
_cell_length_c   41.21780000
_cell_angle_alpha   90.00080000
_cell_angle_beta   90.00000000
_cell_angle_gamma   90.00000000
_symmetry_Int_Tables_number   1
_chemical_formula_structural   H10(C4N)3
_chemical_formula_sum   'H320 C384 N96'
_cell_volume   32332.29987286
_cell_formula_units_Z   32
loop_
 _symmetry_equiv_pos_site_id
 _symmetry_equiv_pos_as_xyz
  1  'x, y, z'
loop_
 _atom_site_type_symbol
 _atom_site_label
 _atom_site_symmetry_multiplicity
 _atom_site_fract_x
 _atom_site_fract_y
 _atom_site_fract_z
 _atom_site_occupancy
  H  7  1  0.18694400  0.44830700  0.91539200  1
  H  16  1  0.23738400  0.39877500  0.84013500  1
  H  19  1  0.18085600  0.31031000  0.85053600  1
  H  20  1  0.19368700  0.26560900  0.87447700  1
  H  21  1  0.05443000  0.40266100  0.88074400  1
  H  22  1  0.09922000  0.39039300  0.90474800  1
  H  23  1  0.08547600  0.43635300  0.76396700  1
  H  24  1  0.14044200  0.43482800  0.75023900  1
  H  25  1  0.22517700  0.29641200  0.99147300  1
  H  26  1  0.22213000  0.35112000  0.00547300  1
  H  33  1  0.31847700  0.47756000  0.41536400  1
  H  42  1  0.26797900  0.52714900  0.34015200  1
  H  45  1  0.32460200  0.61562900  0.35058900  1
  H  46  1  0.31184000  0.66031400  0.37456200  1
  H  47  1  0.45094800  0.52316500  0.38073400  1
  H  48  1  0.40617500  0.53546600  0.40474500  1
  H  49  1  0.41984600  0.48945700  0.26396600  1
  H  50  1  0.36487500  0.49102400  0.25024600  1
  H  51  1  0.28026500  0.62937500  0.49153300  1
  H  52  1  0.28328600  0.57464700  0.50549800  1
  H  59  1  0.76732200  0.89722900  0.16539800  1
  H  68  1  0.81641200  0.94778500  0.09019300  1
  H  71  1  0.90529900  0.89155000  0.10052400  1
  H  72  1  0.94999700  0.90437600  0.12447500  1
  H  73  1  0.81387000  0.76476700  0.13071800  1
  H  74  1  0.82594900  0.80962300  0.15471500  1
  H  75  1  0.77958700  0.79574200  0.01397000  1
  H  76  1  0.78068300  0.85074700  0.00029700  1
  H  77  1  0.91914500  0.93572000  0.24149000  1
  H  78  1  0.86443800  0.93260300  0.25548200  1
  H  85  1  0.73804400  0.02866200  0.66539700  1
  H  94  1  0.68891900  0.97808700  0.59022100  1
  H  97  1  0.60005400  0.03434200  0.60052700  1
  H  98  1  0.55536900  0.02146400  0.62447300  1
  H  99  1  0.69139300  0.16114700  0.63067500  1
  H  100  1  0.67936400  0.11630100  0.65469300  1
  H  101  1  0.72573400  0.13007600  0.51394100  1
  H  102  1  0.72464100  0.07506200  0.50028900  1
  H  103  1  0.58622900  0.99009100  0.74148100  1
  H  104  1  0.64093200  0.99324400  0.75548000  1
  H  111  1  0.31686700  0.44758900  0.59011400  1
  H  120  1  0.26727400  0.39721500  0.66537600  1
  H  123  1  0.32498900  0.30944900  0.65477100  1
  H  124  1  0.31259700  0.26467100  0.63078600  1
  H  125  1  0.45000500  0.40357300  0.62451500  1
  H  126  1  0.40528900  0.39086200  0.60055600  1
  H  127  1  0.41919200  0.43519600  0.74149300  1
  H  128  1  0.36446500  0.43226800  0.75547500  1
  H  129  1  0.27899600  0.29569500  0.51399700  1
  H  130  1  0.28063800  0.35064700  0.50024800  1
  H  137  1  0.18845600  0.47827100  0.09016600  1
  H  146  1  0.23809300  0.52871300  0.16537900  1
  H  149  1  0.18030200  0.61650300  0.15472500  1
  H  150  1  0.19262200  0.66125900  0.13070100  1
  H  151  1  0.05535300  0.52227800  0.12452800  1
  H  152  1  0.10006000  0.53501300  0.10056700  1
  H  153  1  0.08619700  0.49066400  0.24150400  1
  H  154  1  0.14092100  0.49362000  0.25548200  1
  H  155  1  0.22629400  0.63005400  0.01393800  1
  H  156  1  0.22467400  0.57507800  0.00023100  1
  H  163  1  0.73731300  0.89880300  0.34013200  1
  H  172  1  0.68736900  0.94851700  0.41532800  1
  H  175  1  0.59915700  0.89108900  0.40478200  1
  H  176  1  0.55439500  0.90346700  0.38077700  1
  H  177  1  0.69238900  0.76570000  0.37454700  1
  H  178  1  0.67990000  0.81048800  0.35059400  1
  H  179  1  0.72441300  0.79644400  0.49152300  1
  H  180  1  0.72189200  0.85121200  0.50545700  1
  H  181  1  0.58551800  0.93687400  0.26396900  1
  H  182  1  0.64047500  0.93516300  0.25023700  1
  H  189  1  0.76803600  0.02709200  0.84014000  1
  H  198  1  0.81800800  0.97736600  0.91530900  1
  H  201  1  0.90620200  0.03480600  0.90478900  1
  H  202  1  0.95095800  0.02237100  0.88079000  1
  H  203  1  0.81307000  0.16022100  0.87459800  1
  H  204  1  0.82551300  0.11544100  0.85062600  1
  H  205  1  0.78098600  0.12938900  0.99156000  1
  H  206  1  0.78348900  0.07461100  0.00547300  1
  H  207  1  0.91982300  0.98891300  0.76398800  1
  H  208  1  0.86487100  0.99065500  0.75025200  1
  H  215  1  0.81836200  0.47757500  0.08998000  1
  H  224  1  0.76785400  0.52665600  0.16519200  1
  H  227  1  0.82408500  0.61552100  0.15489000  1
  H  228  1  0.81131400  0.66023400  0.13094400  1
  H  229  1  0.95090100  0.52432400  0.12472800  1
  H  230  1  0.90604100  0.53626600  0.10070400  1
  H  231  1  0.91987700  0.48999600  0.24146400  1
  H  232  1  0.86486300  0.49104600  0.25512100  1
  H  233  1  0.78005400  0.62946800  0.01391300  1
  H  234  1  0.78314600  0.57476400  0.99990400  1
  H  241  1  0.68696600  0.44827500  0.59000800  1
  H  250  1  0.73752000  0.39917900  0.66518400  1
  H  253  1  0.68122400  0.31026300  0.65484400  1
  H  254  1  0.69391700  0.26556000  0.63086400  1
  H  255  1  0.55446600  0.40150600  0.62471800  1
  H  256  1  0.59932500  0.38956200  0.60069200  1
  H  257  1  0.58549300  0.43583800  0.74145400  1
  H  258  1  0.64050700  0.43478500  0.75511100  1
  H  259  1  0.72523700  0.29646300  0.51385400  1
  H  260  1  0.72217000  0.35118500  0.49987900  1
  H  267  1  0.23818600  0.02820100  0.84004300  1
  H  276  1  0.18903700  0.97810100  0.91519700  1
  H  279  1  0.10018100  0.03509400  0.90481400  1
  H  280  1  0.05540100  0.02262900  0.88084300  1
  H  281  1  0.19185500  0.16110400  0.87464900  1
  H  282  1  0.17983500  0.11624400  0.85064000  1
  H  283  1  0.22597600  0.13011800  0.99142200  1
  H  284  1  0.22483100  0.07511700  0.00509800  1
  H  285  1  0.08620100  0.99086200  0.76383600  1
  H  286  1  0.14096100  0.99351500  0.74990200  1
  H  293  1  0.26714700  0.89765000  0.34004500  1
  H  302  1  0.31632900  0.94773800  0.41517300  1
  H  305  1  0.40515300  0.89071400  0.40482100  1
  H  306  1  0.44993400  0.90320300  0.38085500  1
  H  307  1  0.31358300  0.76470000  0.37469500  1
  H  308  1  0.32554200  0.80955200  0.35066400  1
  H  309  1  0.27942000  0.79577700  0.49145500  1
  H  310  1  0.28056400  0.85079100  0.50511200  1
  H  311  1  0.41915000  0.93499600  0.26385200  1
  H  312  1  0.36439300  0.93233200  0.24991200  1
  H  319  1  0.68855400  0.47829500  0.41527500  1
  H  328  1  0.73821900  0.52822700  0.34007200  1
  H  331  1  0.68078200  0.61641100  0.35058200  1
  H  332  1  0.69311400  0.66119600  0.37458100  1
  H  333  1  0.55537300  0.52340400  0.38078200  1
  H  334  1  0.60016100  0.53575800  0.40476700  1
  H  335  1  0.58617500  0.49137400  0.26381300  1
  H  336  1  0.64095300  0.49385600  0.24989900  1
  H  337  1  0.72649800  0.63016700  0.49140000  1
  H  338  1  0.72481600  0.57521400  0.50514900  1
  H  345  1  0.81681900  0.44756000  0.91522400  1
  H  354  1  0.76711900  0.39760100  0.84006000  1
  H  357  1  0.82460700  0.30935500  0.85062300  1
  H  358  1  0.81235600  0.26459400  0.87466100  1
  H  359  1  0.94996500  0.40240400  0.88078700  1
  H  360  1  0.90517400  0.39005000  0.90476700  1
  H  361  1  0.91919100  0.43441400  0.76381400  1
  H  362  1  0.86441300  0.43195000  0.74989700  1
  H  363  1  0.77892300  0.29579900  0.99145800  1
  H  364  1  0.78058300  0.35077400  0.00516700  1
  H  371  1  0.26790800  0.02661400  0.66520300  1
  H  380  1  0.31790400  0.97736600  0.59004400  1
  H  383  1  0.40607100  0.03559200  0.60065600  1
  H  384  1  0.45091200  0.02354300  0.62467200  1
  H  385  1  0.31259200  0.16014700  0.63087300  1
  H  386  1  0.32502300  0.11534700  0.65483400  1
  H  387  1  0.28074400  0.12943000  0.51386800  1
  H  388  1  0.28331900  0.07467100  0.49992500  1
  H  389  1  0.41985300  0.98949400  0.74144500  1
  H  390  1  0.36485000  0.99071600  0.75511600  1
  H  397  1  0.23747800  0.89923200  0.16519200  1
  H  406  1  0.18745700  0.94846700  0.09006000  1
  H  409  1  0.09931600  0.89021100  0.10063900  1
  H  410  1  0.05447400  0.90229100  0.12464900  1
  H  411  1  0.19268300  0.76564900  0.13081900  1
  H  412  1  0.18031200  0.81044100  0.15480000  1
  H  413  1  0.22457900  0.79644900  0.01382600  1
  H  414  1  0.22202100  0.85122200  0.99990400  1
  H  415  1  0.08551600  0.93638800  0.24141700  1
  H  416  1  0.14051400  0.93516300  0.25509400  1
  H  423  1  0.22050500  0.34177000  0.77334400  1
  H  424  1  0.27575300  0.34052500  0.72905200  1
  H  425  1  0.28453800  0.49038800  0.73148800  1
  H  427  1  0.23935200  0.53356300  0.77076900  1
  H  428  1  0.20462900  0.50703800  0.79785700  1
  H  435  1  0.28485500  0.58413200  0.27335300  1
  H  436  1  0.22962100  0.58537700  0.22905400  1
  H  437  1  0.22083400  0.43551400  0.23148300  1
  H  439  1  0.26603100  0.39233300  0.27076200  1
  H  440  1  0.30073500  0.41885900  0.29785900  1
  H  447  1  0.87360000  0.93063800  0.02332500  1
  H  448  1  0.87488200  0.98577900  0.97897600  1
  H  449  1  0.72504400  0.99485200  0.98149900  1
  H  451  1  0.68183800  0.94982900  0.02085900  1
  H  452  1  0.70834900  0.91514600  0.04797700  1
  H  459  1  0.63174100  0.99520300  0.52331500  1
  H  460  1  0.63048800  0.94007400  0.47896100  1
  H  461  1  0.78032600  0.93098700  0.48153700  1
  H  463  1  0.82350300  0.97602600  0.52090600  1
  H  464  1  0.79697500  0.01070800  0.54801600  1
  H  471  1  0.78498500  0.58390600  0.23208700  1
  H  472  1  0.72982200  0.58517500  0.27642400  1
  H  473  1  0.72070300  0.43534000  0.27385000  1
  H  475  1  0.76573700  0.39215000  0.23448700  1
  H  476  1  0.80046000  0.41866400  0.20739500  1
  H  483  1  0.72036400  0.34191400  0.73208700  1
  H  484  1  0.77552400  0.34064300  0.77642500  1
  H  485  1  0.78466000  0.49047800  0.77384300  1
  H  487  1  0.73960500  0.53367300  0.73449100  1
  H  488  1  0.70488200  0.50715400  0.70739900  1
  H  495  1  0.13191500  0.99523700  0.98207100  1
  H  496  1  0.13063400  0.94007900  0.02641100  1
  H  497  1  0.28047200  0.93098100  0.02386700  1
  H  499  1  0.32367200  0.97601000  0.98451000  1
  H  500  1  0.29716100  0.01071300  0.95740300  1
  H  507  1  0.37345900  0.93063000  0.48208100  1
  H  508  1  0.37471900  0.98578000  0.52642600  1
  H  509  1  0.22488300  0.99489600  0.52384000  1
  H  511  1  0.18170000  0.94985700  0.48447800  1
  H  512  1  0.20822300  0.91515500  0.45737600  1
  H  519  1  0.72049600  0.84199900  0.27335500  1
  H  520  1  0.77574800  0.84074900  0.22906300  1
  H  521  1  0.78452500  0.99061200  0.23148900  1
  H  523  1  0.73935800  0.03379400  0.27077400  1
  H  524  1  0.70464600  0.00727600  0.29786900  1
  H  531  1  0.78486000  0.08387500  0.77336100  1
  H  532  1  0.72961800  0.08512400  0.72906700  1
  H  533  1  0.72083500  0.93526200  0.73149000  1
  H  535  1  0.76601500  0.89207800  0.77076900  1
  H  536  1  0.80072000  0.91859700  0.79786700  1
  H  543  1  0.37380800  0.43071400  0.52334900  1
  H  544  1  0.37507600  0.48597300  0.47906500  1
  H  545  1  0.22521400  0.49474900  0.48146200  1
  H  547  1  0.18201800  0.44956600  0.52073200  1
  H  548  1  0.20852800  0.41484400  0.54782700  1
  H  555  1  0.13154700  0.49510100  0.02333300  1
  H  556  1  0.13032400  0.43986000  0.97903600  1
  H  557  1  0.28018000  0.43104500  0.98152100  1
  H  559  1  0.32333800  0.47623800  0.02080800  1
  H  560  1  0.29680000  0.51094700  0.04789700  1
  H  567  1  0.28499900  0.08367200  0.73208200  1
  H  568  1  0.22982500  0.08494700  0.77641500  1
  H  569  1  0.22070800  0.93511000  0.77384600  1
  H  571  1  0.26572900  0.89191300  0.73448200  1
  H  572  1  0.30044900  0.91842300  0.70738700  1
  H  579  1  0.22036600  0.84217300  0.23207400  1
  H  580  1  0.27552500  0.84089900  0.27641200  1
  H  581  1  0.28464700  0.99073400  0.27384500  1
  H  583  1  0.23961600  0.03393000  0.23448700  1
  H  584  1  0.20490100  0.00741800  0.20738800  1
  H  591  1  0.63166600  0.49515700  0.48204900  1
  H  592  1  0.63040600  0.43987900  0.52632600  1
  H  593  1  0.78026500  0.43108200  0.52390300  1
  H  595  1  0.82345700  0.47627600  0.48463300  1
  H  596  1  0.79694300  0.51101600  0.45755300  1
  H  603  1  0.87369000  0.43073400  0.98205900  1
  H  604  1  0.87492500  0.48599200  0.02634600  1
  H  605  1  0.72507300  0.49484700  0.02385300  1
  H  607  1  0.68190300  0.44965000  0.98457300  1
  H  608  1  0.70843500  0.41492000  0.95749200  1
  H  615  1  0.13565000  0.25669500  0.94373400  1
  H  616  1  0.13461900  0.17131100  0.94371400  1
  H  617  1  0.28227800  0.16872400  0.92487000  1
  H  619  1  0.32482400  0.24231800  0.92016400  1
  H  620  1  0.29841500  0.29504000  0.92342900  1
  H  627  1  0.36974900  0.66918800  0.44379600  1
  H  628  1  0.37074900  0.75455400  0.44377000  1
  H  629  1  0.22311000  0.75710700  0.42487300  1
  H  631  1  0.18060800  0.68348700  0.42007100  1
  H  632  1  0.20701900  0.63077300  0.42339300  1
  H  639  1  0.95883800  0.84612500  0.19369200  1
  H  640  1  0.04421400  0.84501100  0.19366300  1
  H  641  1  0.04694400  0.99268900  0.17491400  1
  H  643  1  0.97338700  0.03531000  0.17023100  1
  H  644  1  0.92064100  0.00894800  0.17350400  1
  H  651  1  0.54651500  0.07971800  0.69365500  1
  H  652  1  0.46115200  0.08080200  0.69365000  1
  H  653  1  0.45843900  0.93311200  0.67494700  1
  H  655  1  0.53201500  0.89052600  0.67018200  1
  H  656  1  0.58475800  0.91689800  0.67345500  1
  H  663  1  0.36973100  0.25582600  0.56164400  1
  H  664  1  0.37081300  0.17044300  0.56171600  1
  H  665  1  0.22313500  0.16778100  0.58049700  1
  H  667  1  0.18055600  0.24135600  0.58519200  1
  H  668  1  0.20693100  0.29409100  0.58191400  1
  H  675  1  0.13560200  0.67003700  0.06158400  1
  H  676  1  0.13454700  0.75540400  0.06165900  1
  H  677  1  0.28220200  0.75804600  0.08048300  1
  H  679  1  0.32474600  0.68445200  0.08527600  1
  H  680  1  0.29837300  0.63172300  0.08194700  1
  H  687  1  0.54565800  0.84611700  0.31167400  1
  H  688  1  0.46028100  0.84494600  0.31175100  1
  H  689  1  0.45746400  0.99264200  0.33043800  1
  H  691  1  0.53099800  0.03530100  0.33511800  1
  H  692  1  0.58375800  0.00897500  0.33183300  1
  H  699  1  0.95970900  0.07972900  0.81172700  1
  H  700  1  0.04507200  0.08086900  0.81177800  1
  H  701  1  0.04787300  0.93316100  0.83041100  1
  H  703  1  0.97431900  0.89053300  0.83516600  1
  H  704  1  0.92156200  0.91686900  0.83188600  1
  H  711  1  0.86967300  0.66904800  0.06169400  1
  H  712  1  0.87086200  0.75443200  0.06171900  1
  H  713  1  0.72318800  0.75728600  0.08048500  1
  H  715  1  0.68049600  0.68376600  0.08514800  1
  H  716  1  0.70681000  0.63099800  0.08188400  1
  H  723  1  0.63566200  0.25679900  0.56163600  1
  H  724  1  0.63448700  0.17143300  0.56167300  1
  H  725  1  0.78214300  0.16858800  0.58048500  1
  H  727  1  0.82480600  0.24212200  0.58524000  1
  H  728  1  0.79849900  0.29488800  0.58191900  1
  H  735  1  0.63566900  0.66991600  0.44372400  1
  H  736  1  0.63443000  0.75529700  0.44364400  1
  H  737  1  0.78211800  0.75822800  0.42492600  1
  H  739  1  0.82484200  0.68473000  0.42026800  1
  H  740  1  0.79856400  0.63194700  0.42354500  1
  H  747  1  0.86970500  0.25595300  0.94378000  1
  H  748  1  0.87093300  0.17058800  0.94369700  1
  H  749  1  0.72326600  0.16764900  0.92493600  1
  H  751  1  0.68056400  0.24115800  0.92018300  1
  H  752  1  0.70683200  0.29394100  0.92351400  1
  H  759  1  0.45883900  0.34567300  0.69382700  1
  H  760  1  0.54422300  0.34456400  0.69381500  1
  H  761  1  0.54694300  0.49218300  0.67482500  1
  H  763  1  0.47339500  0.53478600  0.67007700  1
  H  764  1  0.42064600  0.50843600  0.67336700  1
  H  771  1  0.04649400  0.58016700  0.19379100  1
  H  772  1  0.96112600  0.58123800  0.19378900  1
  H  773  1  0.95844500  0.43362400  0.17482100  1
  H  775  1  0.03202200  0.39106700  0.16997900  1
  H  776  1  0.08475900  0.41742800  0.17330300  1
  H  783  1  0.04567900  0.34565000  0.81154800  1
  H  784  1  0.96029400  0.34448500  0.81160400  1
  H  785  1  0.95748100  0.49212200  0.83052300  1
  H  787  1  0.03101100  0.53476400  0.83526800  1
  H  788  1  0.08377400  0.50844900  0.83197100  1
  H  795  1  0.45971000  0.58016600  0.31158600  1
  H  796  1  0.54507600  0.58129400  0.31163500  1
  H  797  1  0.54785000  0.43366300  0.33053200  1
  H  799  1  0.47429900  0.39106300  0.33537000  1
  H  800  1  0.42154500  0.41738800  0.33203900  1
  C  1  1  0.18842700  0.38086300  0.89265400  1
  C  2  1  0.19325000  0.41261300  0.91905000  1
  C  3  1  0.20427100  0.39632500  0.95059200  1
  C  4  1  0.21095900  0.34651400  0.95621900  1
  C  5  1  0.20658300  0.31422700  0.92948300  1
  C  6  1  0.19500100  0.33092100  0.89759600  1
  C  9  1  0.16983800  0.39927900  0.86280000  1
  C  10  1  0.11981500  0.40511000  0.85776800  1
  C  11  1  0.10307700  0.41666300  0.82588900  1
  C  12  1  0.13539200  0.42165100  0.79923000  1
  C  13  1  0.18522000  0.41546700  0.80493700  1
  C  14  1  0.20162800  0.40470200  0.83647900  1
  C  27  1  0.31696600  0.54503400  0.39266300  1
  C  28  1  0.31213300  0.51324300  0.41903800  1
  C  29  1  0.30115000  0.52950700  0.45059400  1
  C  30  1  0.29447400  0.57931200  0.45625000  1
  C  31  1  0.29886600  0.61163200  0.42953100  1
  C  32  1  0.31043100  0.59497500  0.39763400  1
  C  35  1  0.33553500  0.52663100  0.36280000  1
  C  36  1  0.38555500  0.52076100  0.35777000  1
  C  37  1  0.40227900  0.50919600  0.32588900  1
  C  38  1  0.36995200  0.50421100  0.29923700  1
  C  39  1  0.32013000  0.51044500  0.30494400  1
  C  40  1  0.30373100  0.52120400  0.33649100  1
  C  53  1  0.83476400  0.89888800  0.14266100  1
  C  54  1  0.80299800  0.90364500  0.16905100  1
  C  55  1  0.81926500  0.91470300  0.20059400  1
  C  56  1  0.86906900  0.92143400  0.20623000  1
  C  57  1  0.90136800  0.91710200  0.17949500  1
  C  58  1  0.88469400  0.90553300  0.14760500  1
  C  61  1  0.81637700  0.88021800  0.11282000  1
  C  62  1  0.81088900  0.83015200  0.10777200  1
  C  63  1  0.79928800  0.81337400  0.07590700  1
  C  64  1  0.79399300  0.84569000  0.04927600  1
  C  65  1  0.79991000  0.89555200  0.05499500  1
  C  66  1  0.81067800  0.91200200  0.08652700  1
  C  79  1  0.67059900  0.02702000  0.64267200  1
  C  80  1  0.70237200  0.02225700  0.66905600  1
  C  81  1  0.68610200  0.01118400  0.70059600  1
  C  82  1  0.63630100  0.00442100  0.70622700  1
  C  83  1  0.60400300  0.00875000  0.67949100  1
  C  84  1  0.62066900  0.02033600  0.64760200  1
  C  87  1  0.68897900  0.04568500  0.61282300  1
  C  88  1  0.69443900  0.09574500  0.60775700  1
  C  89  1  0.70602500  0.11249500  0.57588500  1
  C  90  1  0.71132300  0.08015800  0.54926500  1
  C  91  1  0.70540700  0.03030000  0.55500300  1
  C  92  1  0.69464600  0.01387400  0.58654100  1
  C  105  1  0.31628500  0.38005800  0.61279400  1
  C  106  1  0.31093700  0.41183100  0.58646100  1
  C  107  1  0.30010000  0.39543100  0.55492800  1
  C  108  1  0.29381200  0.34561000  0.54924100  1
  C  109  1  0.29875200  0.31330100  0.57590700  1
  C  110  1  0.31034200  0.33004100  0.60778100  1
  C  113  1  0.33472700  0.39862100  0.64264800  1
  C  114  1  0.38468000  0.40508400  0.64760700  1
  C  115  1  0.40137600  0.41663500  0.67949300  1
  C  116  1  0.36908800  0.42105600  0.70622700  1
  C  117  1  0.31926600  0.41446800  0.70058600  1
  C  118  1  0.30296800  0.40351300  0.66903400  1
  C  131  1  0.18906400  0.54584600  0.11279800  1
  C  132  1  0.19442800  0.51401800  0.08649400  1
  C  133  1  0.20521800  0.53038100  0.05494300  1
  C  134  1  0.21149400  0.58019600  0.04922100  1
  C  135  1  0.20653900  0.61254500  0.07586300  1
  C  136  1  0.19496400  0.59585400  0.10775000  1
  C  139  1  0.17063400  0.52730200  0.14266300  1
  C  140  1  0.12068300  0.52080400  0.14761400  1
  C  141  1  0.10399100  0.50925000  0.17950400  1
  C  142  1  0.13628900  0.50482000  0.20623200  1
  C  143  1  0.18610400  0.51144300  0.20059000  1
  C  144  1  0.20240200  0.52240000  0.16903900  1
  C  157  1  0.66976700  0.89955700  0.36279700  1
  C  158  1  0.70157600  0.90484800  0.33647600  1
  C  159  1  0.68520500  0.91570900  0.30493900  1
  C  160  1  0.63539400  0.92203500  0.29923500  1
  C  161  1  0.60306000  0.91714100  0.32589100  1
  C  162  1  0.61976600  0.90556600  0.35777500  1
  C  165  1  0.68829400  0.88103400  0.39264100  1
  C  166  1  0.69440600  0.83103300  0.39761700  1
  C  167  1  0.70596000  0.81429500  0.42949700  1
  C  168  1  0.71065600  0.84658700  0.45620600  1
  C  169  1  0.70437900  0.89644900  0.45054600  1
  C  170  1  0.69345700  0.91279000  0.41899900  1
  C  183  1  0.83558600  0.02635400  0.86279500  1
  C  184  1  0.80377300  0.02106100  0.83647900  1
  C  185  1  0.82014700  0.01017500  0.80494600  1
  C  186  1  0.86995500  0.00381400  0.79924700  1
  C  187  1  0.90228900  0.00871100  0.82590300  1
  C  188  1  0.88558600  0.02030500  0.85778800  1
  C  191  1  0.81706600  0.04487700  0.89264600  1
  C  192  1  0.81098200  0.09487200  0.89763900  1
  C  193  1  0.79944200  0.11158500  0.92952600  1
  C  194  1  0.79474300  0.07927400  0.95622600  1
  C  195  1  0.80100600  0.02941600  0.95054600  1
  C  196  1  0.81193100  0.01309500  0.91899400  1
  C  209  1  0.81676900  0.54500400  0.11273100  1
  C  210  1  0.81201700  0.51326500  0.08632600  1
  C  211  1  0.80098100  0.52954900  0.05478500  1
  C  212  1  0.79427900  0.57936100  0.04916100  1
  C  213  1  0.79862400  0.61164600  0.07590400  1
  C  214  1  0.81015000  0.59494400  0.10779600  1
  C  217  1  0.83543600  0.52661300  0.14256900  1
  C  218  1  0.88550100  0.52120700  0.14764500  1
  C  219  1  0.90226700  0.50965700  0.17951800  1
  C  220  1  0.86994100  0.50435600  0.20614200  1
  C  221  1  0.82007900  0.51021800  0.20040700  1
  C  222  1  0.80364100  0.52091800  0.16886000  1
  C  235  1  0.68859400  0.38081500  0.61272400  1
  C  236  1  0.69335000  0.41259900  0.58634200  1
  C  237  1  0.70434300  0.39633400  0.55478500  1
  C  238  1  0.71103000  0.34652800  0.54913400  1
  C  239  1  0.70667100  0.31421200  0.57585800  1
  C  240  1  0.69517100  0.33088100  0.60776000  1
  C  243  1  0.66993500  0.39919300  0.64257000  1
  C  244  1  0.61986600  0.40460600  0.64763800  1
  C  245  1  0.60309600  0.41614600  0.67951300  1
  C  246  1  0.63542600  0.42146300  0.70613500  1
  C  247  1  0.68529100  0.41558600  0.70040200  1
  C  248  1  0.70173300  0.40490900  0.66885200  1
  C  261  1  0.17070300  0.02703300  0.86274200  1
  C  262  1  0.20247600  0.02200600  0.83637500  1
  C  263  1  0.18616300  0.01105100  0.80482500  1
  C  264  1  0.13631500  0.00469200  0.79915800  1
  C  265  1  0.10401000  0.00930400  0.82586700  1
  C  266  1  0.12072300  0.02082400  0.85775600  1
  C  269  1  0.18918100  0.04566800  0.89256600  1
  C  270  1  0.19471600  0.09572700  0.89761300  1
  C  271  1  0.20627300  0.11250000  0.92948500  1
  C  272  1  0.21154100  0.08017900  0.95611700  1
  C  273  1  0.20560400  0.03032000  0.95039600  1
  C  274  1  0.19481600  0.01388100  0.91886300  1
  C  287  1  0.33463100  0.89877900  0.36273400  1
  C  288  1  0.30286100  0.90382000  0.33637400  1
  C  289  1  0.31918200  0.91477700  0.30482700  1
  C  290  1  0.36903100  0.92114600  0.29916700  1
  C  291  1  0.40133300  0.91652300  0.32587600  1
  C  292  1  0.38461600  0.90500200  0.35776600  1
  C  295  1  0.31615700  0.88014900  0.39256600  1
  C  296  1  0.31065500  0.83009400  0.39762900  1
  C  297  1  0.29911900  0.81334900  0.42951100  1
  C  298  1  0.29385300  0.84568800  0.45613100  1
  C  299  1  0.29978400  0.89554600  0.45039300  1
  C  300  1  0.31055900  0.91196200  0.41885300  1
  C  313  1  0.68924000  0.54582300  0.39259000  1
  C  314  1  0.69452400  0.51404700  0.41892800  1
  C  315  1  0.70537100  0.53043900  0.45046300  1
  C  316  1  0.71167300  0.58025800  0.45615300  1
  C  317  1  0.70676000  0.61257100  0.42948700  1
  C  318  1  0.69522800  0.59583500  0.39760300  1
  C  321  1  0.67072400  0.52729600  0.36275100  1
  C  322  1  0.62072300  0.52125800  0.35774400  1
  C  323  1  0.60399900  0.50975700  0.32585500  1
  C  324  1  0.63630400  0.50506400  0.29915200  1
  C  325  1  0.68616600  0.51129100  0.30483200  1
  C  326  1  0.70249400  0.52214300  0.33639400  1
  C  339  1  0.81609800  0.37999200  0.89258600  1
  C  340  1  0.81080700  0.41182000  0.91889500  1
  C  341  1  0.80001000  0.39546400  0.95044700  1
  C  342  1  0.79372200  0.34565300  0.95617200  1
  C  343  1  0.79864600  0.31329700  0.92952900  1
  C  344  1  0.81015300  0.32998800  0.89763200  1
  C  347  1  0.83461800  0.39849700  0.86273500  1
  C  348  1  0.88462200  0.40453500  0.85774200  1
  C  349  1  0.90135700  0.41602400  0.82585200  1
  C  350  1  0.86905500  0.42074400  0.79915000  1
  C  351  1  0.81919000  0.41451300  0.80482800  1
  C  352  1  0.80284800  0.40367700  0.83638400  1
  C  365  1  0.33548400  0.02634000  0.64257000  1
  C  366  1  0.30367600  0.02076900  0.66886700  1
  C  367  1  0.32009100  0.00997400  0.70040400  1
  C  368  1  0.36994200  0.00397800  0.70613200  1
  C  369  1  0.40227600  0.00919700  0.67950500  1
  C  370  1  0.38553000  0.02076300  0.64763100  1
  C  373  1  0.31686700  0.04483800  0.61274500  1
  C  374  1  0.31070300  0.09483300  0.60777900  1
  C  375  1  0.29919400  0.11157500  0.57589200  1
  C  376  1  0.29453000  0.07928600  0.54917800  1
  C  377  1  0.30082900  0.02942800  0.55483600  1
  C  378  1  0.31177100  0.01308800  0.58637800  1
  C  391  1  0.16990400  0.89946700  0.14256700  1
  C  392  1  0.20170700  0.90505200  0.16886000  1
  C  393  1  0.18528400  0.91586000  0.20039200  1
  C  394  1  0.13543200  0.92186600  0.20611400  1
  C  395  1  0.10310000  0.91663100  0.17948600  1
  C  396  1  0.11985300  0.90505800  0.14761200  1
  C  399  1  0.18851600  0.88097100  0.11273800  1
  C  400  1  0.19464600  0.83098100  0.10775300  1
  C  401  1  0.20613500  0.81426000  0.07586000  1
  C  402  1  0.21080100  0.84656800  0.04915500  1
  C  403  1  0.20451900  0.89642700  0.05483100  1
  C  404  1  0.19357900  0.91274400  0.08638000  1
  C  417  1  0.23377300  0.37352300  0.76493200  1
  C  418  1  0.26587700  0.37273400  0.73869800  1
  C  419  1  0.28479300  0.41558600  0.72611200  1
  C  420  1  0.27065700  0.45920400  0.74042100  1
  C  421  1  0.23830900  0.46082500  0.76690900  1
  C  422  1  0.21973000  0.41713300  0.77938900  1
  C  429  1  0.27158300  0.55237600  0.26494400  1
  C  430  1  0.23949100  0.55316800  0.23870400  1
  C  431  1  0.22058000  0.51031200  0.22611300  1
  C  432  1  0.23470800  0.46669800  0.24042400  1
  C  433  1  0.26704700  0.46507400  0.26691600  1
  C  434  1  0.28561000  0.50876700  0.27940600  1
  C  441  1  0.84185500  0.94394500  0.01492100  1
  C  442  1  0.84266900  0.97597800  0.98865100  1
  C  443  1  0.79983500  0.99493700  0.97606700  1
  C  444  1  0.75621500  0.98092700  0.99042200  1
  C  445  1  0.75457200  0.94865500  0.01695500  1
  C  446  1  0.79824200  0.93004200  0.02943800  1
  C  453  1  0.66349000  0.98188800  0.51492600  1
  C  454  1  0.66269400  0.94986100  0.48865100  1
  C  455  1  0.70554300  0.93090800  0.47607900  1
  C  456  1  0.74914900  0.94490800  0.49045600  1
  C  457  1  0.75077300  0.97717900  0.51698800  1
  C  458  1  0.70709200  0.99578800  0.52945800  1
  C  465  1  0.77166700  0.55216100  0.24047800  1
  C  466  1  0.73961500  0.55296500  0.26674200  1
  C  467  1  0.72063900  0.51012700  0.27930700  1
  C  468  1  0.73464200  0.46651000  0.26493900  1
  C  469  1  0.76693300  0.46487700  0.23841600  1
  C  470  1  0.78557800  0.50855100  0.22596000  1
  C  477  1  0.73368900  0.37365900  0.74047400  1
  C  478  1  0.76573700  0.37285200  0.76673700  1
  C  479  1  0.78472100  0.41569500  0.77930000  1
  C  480  1  0.77072500  0.45930800  0.76493000  1
  C  481  1  0.73843000  0.46094200  0.73841000  1
  C  482  1  0.71979200  0.41726800  0.72595100  1
  C  489  1  0.16365800  0.98191900  0.99046800  1
  C  490  1  0.16284600  0.94987200  0.01673300  1
  C  491  1  0.20568300  0.93090300  0.02930800  1
  C  492  1  0.24930100  0.94491300  0.01494800  1
  C  493  1  0.25094200  0.97719600  0.98842300  1
  C  494  1  0.20726900  0.99582300  0.97594800  1
  C  501  1  0.34171300  0.94395500  0.49046600  1
  C  502  1  0.34251200  0.97599700  0.51673300  1
  C  503  1  0.29966800  0.99496700  0.52930100  1
  C  504  1  0.25605800  0.98097100  0.51492300  1
  C  505  1  0.25443000  0.94868600  0.48839900  1
  C  506  1  0.29810800  0.93006200  0.47593300  1
  C  513  1  0.73376700  0.87375100  0.26494400  1
  C  514  1  0.76587300  0.87295800  0.23870800  1
  C  515  1  0.78478500  0.91581100  0.22611800  1
  C  516  1  0.77064600  0.95942800  0.24042500  1
  C  517  1  0.73830500  0.96105300  0.26691600  1
  C  518  1  0.71972800  0.91736100  0.27940100  1
  C  525  1  0.77158500  0.05212100  0.76495200  1
  C  526  1  0.73949100  0.05291500  0.73871300  1
  C  527  1  0.72058100  0.01006100  0.72611900  1
  C  528  1  0.73471000  0.96644700  0.74043100  1
  C  529  1  0.76705100  0.96481900  0.76692200  1
  C  530  1  0.78562400  0.00851100  0.77940900  1
  C  537  1  0.34205900  0.44398200  0.51493100  1
  C  538  1  0.34286400  0.47609000  0.48869900  1
  C  539  1  0.30001600  0.49501000  0.47610500  1
  C  540  1  0.25639400  0.48086400  0.49040000  1
  C  541  1  0.25475900  0.44851300  0.51688600  1
  C  542  1  0.29844200  0.42993200  0.52937600  1
  C  549  1  0.16330400  0.48181500  0.01493800  1
  C  550  1  0.16252700  0.44971800  0.98869700  1
  C  551  1  0.20538600  0.43079800  0.97612300  1
  C  552  1  0.24899000  0.44492000  0.99045100  1
  C  553  1  0.25059900  0.47726200  0.01694300  1
  C  554  1  0.20690400  0.49583600  0.02942000  1
  C  561  1  0.27167400  0.05192900  0.74047200  1
  C  562  1  0.23961900  0.05273700  0.76673200  1
  C  563  1  0.22063800  0.00989800  0.77930000  1
  C  564  1  0.23464800  0.96628000  0.76493200  1
  C  565  1  0.26693800  0.96464400  0.73841200  1
  C  566  1  0.28558500  0.00831900  0.72595400  1
  C  573  1  0.23369100  0.87391500  0.24046400  1
  C  574  1  0.26573600  0.87310900  0.26673000  1
  C  575  1  0.28471100  0.91594700  0.27930200  1
  C  576  1  0.27071300  0.95956400  0.26492900  1
  C  577  1  0.23842600  0.96119900  0.23840600  1
  C  578  1  0.21978300  0.91752400  0.22594500  1
  C  585  1  0.66341800  0.48188200  0.49046100  1
  C  586  1  0.66261900  0.44976200  0.51668500  1
  C  587  1  0.70546400  0.43083200  0.52927200  1
  C  588  1  0.74908400  0.44497400  0.51497000  1
  C  589  1  0.75071600  0.47733600  0.48849100  1
  C  590  1  0.70703200  0.49593100  0.47601100  1
  C  597  1  0.84193700  0.44402700  0.99044900  1
  C  598  1  0.84271900  0.47613800  0.01668300  1
  C  599  1  0.79986700  0.49507900  0.02925400  1
  C  600  1  0.75625700  0.48096100  0.01492600  1
  C  601  1  0.75464400  0.44860400  0.98844000  1
  C  602  1  0.79833500  0.43001600  0.97597000  1
  C  609  1  0.16727000  0.23875000  0.94100900  1
  C  610  1  0.16658300  0.18863400  0.94109600  1
  C  611  1  0.20875900  0.16267600  0.93497000  1
  C  612  1  0.25192100  0.18767600  0.93002100  1
  C  613  1  0.25336100  0.23826500  0.92974900  1
  C  614  1  0.21007600  0.26394500  0.93482000  1
  C  621  1  0.33810900  0.68710800  0.44110800  1
  C  622  1  0.33878600  0.73722700  0.44115200  1
  C  623  1  0.29660500  0.76318100  0.43501400  1
  C  624  1  0.25346800  0.73815500  0.43002300  1
  C  625  1  0.25203900  0.68756800  0.42976600  1
  C  626  1  0.29531200  0.66190400  0.43490000  1
  C  633  1  0.97680800  0.87773800  0.19098900  1
  C  634  1  0.02692500  0.87699900  0.19107200  1
  C  635  1  0.05293000  0.91915500  0.18497500  1
  C  636  1  0.02796700  0.96234700  0.18005300  1
  C  637  1  0.97737900  0.96383600  0.17978900  1
  C  638  1  0.95164300  0.92058400  0.18485600  1
  C  645  1  0.52856300  0.04808700  0.69100800  1
  C  646  1  0.47844800  0.04881500  0.69106800  1
  C  647  1  0.45244800  0.00664400  0.68499600  1
  C  648  1  0.47742300  0.96346800  0.68005100  1
  C  649  1  0.52800900  0.96198600  0.67978200  1
  C  650  1  0.55372700  0.00524700  0.68485500  1
  C  657  1  0.33812000  0.23786400  0.56436800  1
  C  658  1  0.33883700  0.18774800  0.56432700  1
  C  659  1  0.29667000  0.16176800  0.57044800  1
  C  660  1  0.25348600  0.18674600  0.57535600  1
  C  661  1  0.25202500  0.23733600  0.57562100  1
  C  662  1  0.29530000  0.26303400  0.57054300  1
  C  669  1  0.16723200  0.68797500  0.06426800  1
  C  670  1  0.16652100  0.73809400  0.06426600  1
  C  671  1  0.20869000  0.76407600  0.07039500  1
  C  672  1  0.25185100  0.73908000  0.07534700  1
  C  673  1  0.25330700  0.68849000  0.07559900  1
  C  674  1  0.21004700  0.66280300  0.07046200  1
  C  681  1  0.52766600  0.87771500  0.31437400  1
  C  682  1  0.47755100  0.87694400  0.31433300  1
  C  683  1  0.45151900  0.91909000  0.32042500  1
  C  684  1  0.47645900  0.96230400  0.32531100  1
  C  685  1  0.52704500  0.96381800  0.32556800  1
  C  686  1  0.55279900  0.92057900  0.32049500  1
  C  693  1  0.97767900  0.04810800  0.81436700  1
  C  694  1  0.02779700  0.04886900  0.81434800  1
  C  695  1  0.05382500  0.00670900  0.82041300  1
  C  696  1  0.02887400  0.96351000  0.82531900  1
  C  697  1  0.97828600  0.96200400  0.82558300  1
  C  698  1  0.95254700  0.00525000  0.82050500  1
  C  705  1  0.83808500  0.68705000  0.06440300  1
  C  706  1  0.83886300  0.73716600  0.06432100  1
  C  707  1  0.79672800  0.76319800  0.07043200  1
  C  708  1  0.75351500  0.73828000  0.07535200  1
  C  709  1  0.75198000  0.68769000  0.07561000  1
  C  710  1  0.79522200  0.66193200  0.07056200  1
  C  717  1  0.66726700  0.23881600  0.56431000  1
  C  718  1  0.66648900  0.18869900  0.56427100  1
  C  719  1  0.70862000  0.16266200  0.57039200  1
  C  720  1  0.75181600  0.18759800  0.57535400  1
  C  721  1  0.75335500  0.23818300  0.57559600  1
  C  722  1  0.71012700  0.26393400  0.57048400  1
  C  729  1  0.66725000  0.68793600  0.44101400  1
  C  730  1  0.66643900  0.73804800  0.44105000  1
  C  731  1  0.70856300  0.76410500  0.43493900  1
  C  732  1  0.75179800  0.73920800  0.43005200  1
  C  733  1  0.75335500  0.68862200  0.42980200  1
  C  734  1  0.71012400  0.66284300  0.43486300  1
  C  741  1  0.83810600  0.23795000  0.94110900  1
  C  742  1  0.83892000  0.18783300  0.94110600  1
  C  743  1  0.79680000  0.16176700  0.93498700  1
  C  744  1  0.75358300  0.18667700  0.93006000  1
  C  745  1  0.75201900  0.23726200  0.92982200  1
  C  746  1  0.79523200  0.26303600  0.93494400  1
  C  753  1  0.47681200  0.37727100  0.69107300  1
  C  754  1  0.52693100  0.37653900  0.69116800  1
  C  755  1  0.55292400  0.41868100  0.68500100  1
  C  756  1  0.52796600  0.46185200  0.68000800  1
  C  757  1  0.47737700  0.46333700  0.67973100  1
  C  758  1  0.45165900  0.42008800  0.68484300  1
  C  765  1  0.02854700  0.54854700  0.19108800  1
  C  766  1  0.97842900  0.54926500  0.19115100  1
  C  767  1  0.95243600  0.50711200  0.18500400  1
  C  768  1  0.97742200  0.46396200  0.17998100  1
  C  769  1  0.02800800  0.46249100  0.17971000  1
  C  770  1  0.05371700  0.50573300  0.18486300  1
  C  777  1  0.02768500  0.37723800  0.81429400  1
  C  778  1  0.97756800  0.37647400  0.81424100  1
  C  779  1  0.95154300  0.41860200  0.82039900  1
  C  780  1  0.97647900  0.46180100  0.82535500  1
  C  781  1  0.02706700  0.46331100  0.82562700  1
  C  782  1  0.05280900  0.42007300  0.82051500  1
  C  789  1  0.47767600  0.54855300  0.31428400  1
  C  790  1  0.52779500  0.54930700  0.31426000  1
  C  791  1  0.55381300  0.50716400  0.32039800  1
  C  792  1  0.52885500  0.46399000  0.32538400  1
  C  793  1  0.47827300  0.46249400  0.32565300  1
  C  794  1  0.45253700  0.50572200  0.32049800  1
  N  8  1  0.22030200  0.33003600  0.98683900  1
  N  15  1  0.11910000  0.43161200  0.76866400  1
  N  17  1  0.18917600  0.29977200  0.87222100  1
  N  18  1  0.08865200  0.39871200  0.88307000  1
  N  34  1  0.28512800  0.59575500  0.48687700  1
  N  41  1  0.38622600  0.49423500  0.26866600  1
  N  43  1  0.31627700  0.62614800  0.37227900  1
  N  44  1  0.41672900  0.52714200  0.38306500  1
  N  60  1  0.88552900  0.93078500  0.23685400  1
  N  67  1  0.78411400  0.82939000  0.01869400  1
  N  69  1  0.91584200  0.89980600  0.12222000  1
  N  70  1  0.81765500  0.79901100  0.13304200  1
  N  86  1  0.61984100  0.99503900  0.73684700  1
  N  93  1  0.72121000  0.09643400  0.51867900  1
  N  95  1  0.58951700  0.02606900  0.62221900  1
  N  96  1  0.68766500  0.12690100  0.63301800  1
  N  112  1  0.28381600  0.32931300  0.51867900  1
  N  119  1  0.38556200  0.43037200  0.73685200  1
  N  121  1  0.31666400  0.29888200  0.63309300  1
  N  122  1  0.41583300  0.39918500  0.62224100  1
  N  138  1  0.22148800  0.59644100  0.01864600  1
  N  145  1  0.11982300  0.49549100  0.23685800  1
  N  147  1  0.18862500  0.62704600  0.13304100  1
  N  148  1  0.08952500  0.52669100  0.12225200  1
  N  164  1  0.61912700  0.93203900  0.26866300  1
  N  171  1  0.71981700  0.83010000  0.48685300  1
  N  173  1  0.58859600  0.89934300  0.38309200  1
  N  174  1  0.68816500  0.79989800  0.37227600  1
  N  190  1  0.88621800  0.99378300  0.76868100  1
  N  197  1  0.78557100  0.09574100  0.98687500  1
  N  199  1  0.91675600  0.02653300  0.88310000  1
  N  200  1  0.81723400  0.12601800  0.87231100  1
  N  216  1  0.78495300  0.59584500  0.01854100  1
  N  223  1  0.88623300  0.49450900  0.23673200  1
  N  225  1  0.81587700  0.62607900  0.13319000  1
  N  226  1  0.91664900  0.52799800  0.12238300  1
  N  242  1  0.72035300  0.33008100  0.51850200  1
  N  249  1  0.61913800  0.43130700  0.73672300  1
  N  251  1  0.68943300  0.29972400  0.63313700  1
  N  252  1  0.58871700  0.39781800  0.62237500  1
  N  268  1  0.11984300  0.99552600  0.76850800  1
  N  275  1  0.22141900  0.09647600  0.98669800  1
  N  277  1  0.08959000  0.02692200  0.88311200  1
  N  278  1  0.18803200  0.12686500  0.87233000  1
  N  294  1  0.38550900  0.93032900  0.26852000  1
  N  301  1  0.28397600  0.82941800  0.48672000  1
  N  303  1  0.41574700  0.89888600  0.38312100  1
  N  304  1  0.31734200  0.79894100  0.37235600  1
  N  320  1  0.72165300  0.59655100  0.48672000  1
  N  327  1  0.61982700  0.49593400  0.26849800  1
  N  329  1  0.68899700  0.62698700  0.37227600  1
  N  330  1  0.58958200  0.52751700  0.38307500  1
  N  346  1  0.78375000  0.32940800  0.98675100  1
  N  353  1  0.88553600  0.42986900  0.76849600  1
  N  355  1  0.81639800  0.29880400  0.87232800  1
  N  356  1  0.91576000  0.39827300  0.88307800  1
  N  372  1  0.38621900  0.99409000  0.73671900  1
  N  379  1  0.28537200  0.09578100  0.51853400  1
  N  381  1  0.41667900  0.02739100  0.62234800  1
  N  382  1  0.31685900  0.12595300  0.63313500  1
  N  398  1  0.11915000  0.93176700  0.23669700  1
  N  405  1  0.21996000  0.83009700  0.01850400  1
  N  407  1  0.08870600  0.89841700  0.12232900  1
  N  408  1  0.18848500  0.79984700  0.13310000  1
  N  426  1  0.22623100  0.50407100  0.77952500  1
  N  438  1  0.27912500  0.42182900  0.27953200  1
  N  450  1  0.71132300  0.93668300  0.02961400  1
  N  462  1  0.79401100  0.98914700  0.52966200  1
  N  474  1  0.77889800  0.42163500  0.22574800  1
  N  486  1  0.72646200  0.50418400  0.72574000  1
  N  498  1  0.29418800  0.98916400  0.97576100  1
  N  510  1  0.21119000  0.93672100  0.47572700  1
  N  522  1  0.72623300  0.00430300  0.27953200  1
  N  534  1  0.77911900  0.92157000  0.77953700  1
  N  546  1  0.21150600  0.43644100  0.52949500  1
  N  558  1  0.29384000  0.48933800  0.02957000  1
  N  570  1  0.27889700  0.92139800  0.72574300  1
  N  582  1  0.22646900  0.00444500  0.22573600  1
  N  594  1  0.79396800  0.48941200  0.47588000  1
  N  606  1  0.71139800  0.43653600  0.97581400  1
  N  618  1  0.29561200  0.26046500  0.92358900  1
  N  630  1  0.20980400  0.66534900  0.42358200  1
  N  642  1  0.95521400  0.00611300  0.17365000  1
  N  654  1  0.55018200  0.91971500  0.67365100  1
  N  666  1  0.20975800  0.25951700  0.58176800  1
  N  678  1  0.29556100  0.66629600  0.08176700  1
  N  690  1  0.54918500  0.00611400  0.33169700  1
  N  702  1  0.95613500  0.91971100  0.83169900  1
  N  714  1  0.70967700  0.66556700  0.08173900  1
  N  726  1  0.79564300  0.26031700  0.58174400  1
  N  738  1  0.79567200  0.66651700  0.42367900  1
  N  750  1  0.70971700  0.25937200  0.92367900  1
  N  762  1  0.45521800  0.50559700  0.67352700  1
  N  774  1  0.05018500  0.42024200  0.17350200  1
  N  786  1  0.04920300  0.50559000  0.83181800  1
  N  798  1  0.45611800  0.42023100  0.33185000  1
