# generated using pymatgen
data_H2C4N
_symmetry_space_group_name_H-M   'P 1'
_cell_length_a   46.97860000
_cell_length_b   46.98360000
_cell_length_c   46.97610000
_cell_angle_alpha   89.99990000
_cell_angle_beta   89.99700000
_cell_angle_gamma   89.99390000
_symmetry_Int_Tables_number   1
_chemical_formula_structural   H2C4N
_chemical_formula_sum   'H288 C576 N144'
_cell_volume   103686.76291755
_cell_formula_units_Z   144
loop_
 _symmetry_equiv_pos_site_id
 _symmetry_equiv_pos_as_xyz
  1  'x, y, z'
loop_
 _atom_site_type_symbol
 _atom_site_label
 _atom_site_symmetry_multiplicity
 _atom_site_fract_x
 _atom_site_fract_y
 _atom_site_fract_z
 _atom_site_occupancy
  H  25  1  0.50759700  0.10655200  0.32271100  1
  H  26  1  0.54449600  0.08274500  0.34705700  1
  H  27  1  0.54678700  0.18567600  0.33938700  1
  H  28  1  0.58421100  0.16168800  0.36422300  1
  H  29  1  0.63621500  0.16170600  0.41556900  1
  H  30  1  0.66097500  0.18566900  0.45303900  1
  H  31  1  0.65514500  0.08260300  0.45415400  1
  H  32  1  0.67937100  0.10641900  0.49115800  1
  H  33  1  0.64818800  0.02496900  0.41214600  1
  H  34  1  0.64825000  0.97451700  0.41174800  1
  H  35  1  0.56714500  0.97471500  0.37296600  1
  H  36  1  0.56760500  0.02515400  0.37226200  1
  H  61  1  0.44059200  0.80095500  0.32272400  1
  H  62  1  0.40364900  0.82474200  0.34704200  1
  H  63  1  0.40125900  0.72183000  0.33907900  1
  H  64  1  0.36380200  0.74579300  0.36388500  1
  H  65  1  0.31198400  0.74561100  0.41524700  1
  H  66  1  0.28732600  0.72151000  0.45269200  1
  H  67  1  0.29265400  0.82460500  0.45385800  1
  H  68  1  0.26852200  0.80064800  0.49084300  1
  H  69  1  0.29984500  0.88240900  0.41213500  1
  H  70  1  0.29980000  0.93286300  0.41185000  1
  H  71  1  0.38090300  0.93272500  0.37306000  1
  H  72  1  0.38042800  0.88229200  0.37224200  1
  H  97  1  0.50818000  0.80111600  0.73063700  1
  H  98  1  0.54526500  0.82493900  0.70654400  1
  H  99  1  0.54699000  0.72193700  0.71332900  1
  H  100  1  0.58453000  0.74591600  0.68870300  1
  H  101  1  0.63534700  0.74568700  0.63640900  1
  H  102  1  0.66016500  0.72156800  0.59905800  1
  H  103  1  0.65375400  0.82459800  0.59717600  1
  H  104  1  0.67808600  0.80064200  0.56034400  1
  H  105  1  0.62775100  0.88232500  0.61969200  1
  H  106  1  0.62697700  0.93276200  0.61916200  1
  H  107  1  0.58807600  0.93301700  0.70021500  1
  H  108  1  0.58773100  0.88257000  0.70021300  1
  H  133  1  0.44002800  0.10684500  0.72986700  1
  H  134  1  0.40314500  0.08285600  0.70564400  1
  H  135  1  0.40083500  0.18584500  0.71261500  1
  H  136  1  0.36344700  0.16169400  0.68792200  1
  H  137  1  0.31179200  0.16171700  0.63684100  1
  H  138  1  0.28716100  0.18580900  0.59937300  1
  H  139  1  0.29232700  0.08269600  0.59836200  1
  H  140  1  0.26820800  0.10664100  0.56134900  1
  H  141  1  0.29981400  0.02489300  0.63991000  1
  H  142  1  0.29985800  0.97444700  0.64012500  1
  H  143  1  0.38091200  0.97465800  0.67899800  1
  H  144  1  0.38034400  0.02509300  0.67989400  1
  H  169  1  0.82135800  0.25022700  0.49240600  1
  H  170  1  0.84515100  0.27456700  0.45548900  1
  H  171  1  0.74221900  0.26676000  0.45316200  1
  H  172  1  0.76618700  0.29158100  0.41572600  1
  H  173  1  0.76597200  0.34291200  0.36400400  1
  H  174  1  0.74184300  0.38034700  0.33936200  1
  H  175  1  0.84496500  0.38140400  0.34442000  1
  H  176  1  0.82097500  0.41837700  0.32030300  1
  H  177  1  0.90281400  0.33985800  0.35178900  1
  H  178  1  0.95327300  0.33960200  0.35174900  1
  H  179  1  0.95315800  0.30074500  0.43281800  1
  H  180  1  0.90272000  0.29989900  0.43233900  1
  H  205  1  0.12690900  0.25058600  0.55934400  1
  H  206  1  0.10309200  0.27492200  0.59625600  1
  H  207  1  0.20602400  0.26708100  0.59865500  1
  H  208  1  0.18203100  0.29191100  0.63608100  1
  H  209  1  0.18203400  0.34334400  0.68814500  1
  H  210  1  0.20596100  0.38085200  0.71288800  1
  H  211  1  0.10290100  0.38204500  0.70674900  1
  H  212  1  0.12667100  0.41908900  0.73095400  1
  H  213  1  0.04535200  0.33992700  0.70004300  1
  H  214  1  0.99489800  0.33955800  0.70013500  1
  H  215  1  0.99502500  0.30077000  0.61903000  1
  H  216  1  0.04546900  0.30003100  0.61945700  1
  H  241  1  0.12697900  0.65743000  0.49206300  1
  H  242  1  0.10303800  0.63320500  0.45515700  1
  H  243  1  0.20601900  0.64042000  0.45281300  1
  H  244  1  0.18191000  0.61571800  0.41539800  1
  H  245  1  0.18197200  0.56462400  0.36367000  1
  H  246  1  0.20610000  0.52715500  0.33908500  1
  H  247  1  0.10299300  0.52592300  0.34445800  1
  H  248  1  0.12698200  0.48891200  0.32039000  1
  H  249  1  0.04513600  0.56764800  0.35171100  1
  H  250  1  0.99467900  0.56789600  0.35174900  1
  H  251  1  0.99490900  0.60679000  0.43280100  1
  H  252  1  0.04534700  0.60764700  0.43223900  1
  H  277  1  0.82121900  0.65853100  0.56031500  1
  H  278  1  0.84505500  0.63441800  0.59739100  1
  H  279  1  0.74202100  0.64094400  0.59896000  1
  H  280  1  0.76600300  0.61630500  0.63648700  1
  H  281  1  0.76580000  0.56408600  0.68732000  1
  H  282  1  0.74168800  0.52674600  0.71214900  1
  H  283  1  0.84474600  0.52500300  0.70592500  1
  H  284  1  0.82080500  0.48818200  0.73028000  1
  H  285  1  0.90247300  0.54740200  0.67976000  1
  H  286  1  0.95291700  0.54686900  0.67897100  1
  H  287  1  0.95315200  0.62789300  0.64004000  1
  H  288  1  0.90270100  0.62789400  0.63971000  1
  H  313  1  0.67711200  0.42032300  0.17886500  1
  H  314  1  0.65275700  0.38344500  0.15504200  1
  H  315  1  0.66073400  0.38092400  0.25795900  1
  H  316  1  0.63589000  0.34352400  0.23395500  1
  H  317  1  0.58442400  0.29165000  0.23403800  1
  H  318  1  0.54698900  0.26686600  0.25803100  1
  H  319  1  0.54589600  0.27256200  0.15494200  1
  H  320  1  0.50892500  0.24831500  0.17878800  1
  H  321  1  0.58779700  0.27961600  0.09726800  1
  H  322  1  0.58817200  0.27952200  0.04681000  1
  H  323  1  0.62697900  0.36059900  0.04693100  1
  H  324  1  0.62771100  0.36016900  0.09737700  1
  H  349  1  0.67761600  0.48719200  0.87308000  1
  H  350  1  0.65330200  0.52409500  0.89693700  1
  H  351  1  0.66085700  0.52641800  0.79397800  1
  H  352  1  0.63606600  0.56383000  0.81800500  1
  H  353  1  0.58481500  0.61568700  0.81792000  1
  H  354  1  0.54733500  0.64034500  0.79386100  1
  H  355  1  0.54621500  0.63486400  0.89697100  1
  H  356  1  0.50919300  0.65899300  0.87306100  1
  H  357  1  0.58799000  0.62774400  0.95469400  1
  H  358  1  0.58825900  0.62779700  0.00515000  1
  H  359  1  0.62709200  0.54672200  0.00504500  1
  H  360  1  0.62792700  0.54718800  0.95460000  1
  H  385  1  0.26923700  0.41930800  0.87344000  1
  H  386  1  0.29337000  0.38222000  0.89721300  1
  H  387  1  0.28674000  0.38073500  0.79418200  1
  H  388  1  0.31140800  0.34318700  0.81810900  1
  H  389  1  0.36362900  0.29231700  0.81784800  1
  H  390  1  0.40096200  0.26751300  0.79368900  1
  H  391  1  0.40286200  0.27379800  0.89674300  1
  H  392  1  0.43967600  0.24947500  0.87274800  1
  H  393  1  0.38035500  0.29975200  0.95454500  1
  H  394  1  0.38091600  0.30057500  0.00498300  1
  H  395  1  0.29997300  0.33969900  0.00523800  1
  H  396  1  0.29996800  0.34002300  0.95479600  1
  H  421  1  0.27048600  0.48756700  0.17900800  1
  H  422  1  0.29465600  0.52451900  0.15507500  1
  H  423  1  0.28731100  0.52688000  0.25805700  1
  H  424  1  0.31196400  0.56433300  0.23395900  1
  H  425  1  0.36316000  0.61603800  0.23402100  1
  H  426  1  0.40066000  0.64062500  0.25809900  1
  H  427  1  0.40168800  0.63537700  0.15497400  1
  H  428  1  0.43872900  0.65944900  0.17890500  1
  H  429  1  0.36003300  0.62803600  0.09719300  1
  H  430  1  0.35980000  0.62798300  0.04673400  1
  H  431  1  0.32104000  0.54688000  0.04698400  1
  H  432  1  0.32016400  0.54745200  0.09742500  1
  H  457  1  0.82099600  0.41980300  0.72964500  1
  H  458  1  0.84496300  0.38289100  0.70545000  1
  H  459  1  0.74197700  0.38054000  0.71261300  1
  H  460  1  0.76611500  0.34312000  0.68793700  1
  H  461  1  0.76613900  0.29132500  0.63682400  1
  H  462  1  0.74209600  0.26672800  0.59930700  1
  H  463  1  0.84519400  0.27230600  0.59814700  1
  H  464  1  0.82129000  0.24823400  0.56108900  1
  H  465  1  0.90291200  0.27944900  0.63998500  1
  H  466  1  0.95336700  0.27950800  0.64020600  1
  H  467  1  0.95311000  0.36060600  0.67899000  1
  H  468  1  0.90266800  0.36002800  0.67987100  1
  H  493  1  0.12654500  0.48814500  0.73074800  1
  H  494  1  0.10273500  0.52524600  0.70665100  1
  H  495  1  0.20576500  0.52678800  0.71326500  1
  H  496  1  0.18180600  0.56434000  0.68863700  1
  H  497  1  0.18204800  0.61518600  0.63641300  1
  H  498  1  0.20619500  0.63999600  0.59907700  1
  H  499  1  0.10313900  0.63376700  0.59724400  1
  H  500  1  0.12711400  0.65810700  0.56042700  1
  H  501  1  0.04537600  0.60760600  0.61963000  1
  H  502  1  0.99493200  0.60678800  0.61906600  1
  H  503  1  0.99466500  0.56786300  0.70010300  1
  H  504  1  0.04511600  0.56756200  0.70013200  1
  H  529  1  0.12692800  0.42029000  0.32249600  1
  H  530  1  0.10309700  0.38339000  0.34681500  1
  H  531  1  0.20603400  0.38098300  0.33906400  1
  H  532  1  0.18202100  0.34356400  0.36385900  1
  H  533  1  0.18218000  0.29186700  0.41520000  1
  H  534  1  0.20626400  0.26719000  0.45264300  1
  H  535  1  0.10314000  0.27225600  0.45359200  1
  H  536  1  0.12708800  0.24810400  0.49057500  1
  H  537  1  0.04536300  0.27965800  0.41200100  1
  H  538  1  0.99490800  0.27960600  0.41171100  1
  H  539  1  0.99501700  0.36069400  0.37291700  1
  H  540  1  0.04545900  0.36022900  0.37210200  1
  H  565  1  0.82110100  0.48708800  0.32283900  1
  H  566  1  0.84490800  0.52398200  0.34719600  1
  H  567  1  0.74198600  0.52640400  0.33931300  1
  H  568  1  0.76596600  0.56381200  0.36416000  1
  H  569  1  0.76590100  0.61581300  0.41555200  1
  H  570  1  0.74189700  0.64057100  0.45300700  1
  H  571  1  0.84496800  0.63462400  0.45426300  1
  H  572  1  0.82112100  0.65884800  0.49125600  1
  H  573  1  0.90264700  0.62778400  0.41219500  1
  H  574  1  0.95310300  0.62788100  0.41179200  1
  H  575  1  0.95297800  0.54680600  0.37297300  1
  H  576  1  0.90253500  0.54723000  0.37226800  1
  H  601  1  0.67861200  0.10628400  0.56022500  1
  H  602  1  0.65449000  0.08251000  0.59732500  1
  H  603  1  0.66137600  0.18550600  0.59897700  1
  H  604  1  0.63672000  0.16157700  0.63653200  1
  H  605  1  0.58440200  0.16187600  0.68733900  1
  H  606  1  0.54707100  0.18602700  0.71215100  1
  H  607  1  0.54521800  0.08298600  0.70592300  1
  H  608  1  0.50840600  0.10697300  0.73025200  1
  H  609  1  0.56764200  0.02522400  0.67986000  1
  H  610  1  0.56708900  0.97478300  0.67908600  1
  H  611  1  0.64813400  0.97449100  0.64017000  1
  H  612  1  0.64815300  0.02493700  0.63982700  1
  H  637  1  0.67775500  0.80073600  0.49195400  1
  H  638  1  0.65357800  0.82467300  0.45500400  1
  H  639  1  0.66062800  0.72168100  0.45281100  1
  H  640  1  0.63597400  0.74578100  0.41535200  1
  H  641  1  0.58491300  0.74576300  0.36358300  1
  H  642  1  0.54740800  0.72167400  0.33901700  1
  H  643  1  0.54632700  0.82478200  0.34428800  1
  H  644  1  0.50927300  0.80083700  0.32023500  1
  H  645  1  0.58803000  0.88258700  0.35160800  1
  H  646  1  0.58828400  0.93303900  0.35168300  1
  H  647  1  0.62708200  0.93273900  0.43278000  1
  H  648  1  0.62793400  0.88230600  0.43218800  1
  H  673  1  0.27047900  0.80072400  0.55957000  1
  H  674  1  0.29487500  0.82458100  0.59640700  1
  H  675  1  0.28736800  0.72163900  0.59875100  1
  H  676  1  0.31224700  0.74567500  0.63610600  1
  H  677  1  0.36358500  0.74565600  0.68804300  1
  H  678  1  0.40103700  0.72168700  0.71283300  1
  H  679  1  0.40216300  0.82475000  0.70698900  1
  H  680  1  0.43914300  0.80092900  0.73124600  1
  H  681  1  0.36031900  0.88238700  0.69995400  1
  H  682  1  0.35997200  0.93283300  0.70004300  1
  H  683  1  0.32098200  0.93273100  0.61904000  1
  H  684  1  0.32021800  0.88229400  0.61947900  1
  H  709  1  0.27066300  0.10645300  0.49264200  1
  H  710  1  0.29497900  0.08262800  0.45572100  1
  H  711  1  0.28707900  0.18554200  0.45326200  1
  H  712  1  0.31188000  0.16154600  0.41583000  1
  H  713  1  0.36322300  0.16168700  0.36400400  1
  H  714  1  0.40070100  0.18577000  0.33937000  1
  H  715  1  0.40187600  0.08267500  0.34482000  1
  H  716  1  0.43889600  0.10660800  0.32071200  1
  H  717  1  0.36009700  0.02491200  0.35193000  1
  H  718  1  0.35980100  0.97446100  0.35188100  1
  H  719  1  0.32097000  0.97459200  0.43296700  1
  H  720  1  0.32016100  0.02502800  0.43249900  1
  H  745  1  0.50806400  0.24976800  0.87282900  1
  H  746  1  0.54494200  0.27399800  0.89680500  1
  H  747  1  0.54718800  0.26708000  0.79379500  1
  H  748  1  0.58457700  0.29178300  0.81793900  1
  H  749  1  0.63634100  0.34280400  0.81794600  1
  H  750  1  0.66093600  0.38028200  0.79385000  1
  H  751  1  0.65544900  0.38150600  0.89695600  1
  H  752  1  0.67952800  0.41852800  0.87299900  1
  H  753  1  0.64823500  0.33974800  0.95476800  1
  H  754  1  0.64819500  0.33950700  0.00522600  1
  H  755  1  0.56716000  0.30060000  0.00499500  1
  H  756  1  0.56772300  0.29973400  0.95455100  1
  H  781  1  0.43985300  0.24915900  0.17862100  1
  H  782  1  0.40274100  0.27325600  0.15482800  1
  H  783  1  0.40105200  0.26635000  0.25784000  1
  H  784  1  0.36348900  0.29097700  0.23389800  1
  H  785  1  0.31273900  0.34334100  0.23418500  1
  H  786  1  0.28791800  0.38067800  0.25832300  1
  H  787  1  0.29391700  0.38233400  0.15524500  1
  H  788  1  0.26957500  0.41915300  0.17921200  1
  H  789  1  0.32006600  0.35996800  0.09747300  1
  H  790  1  0.32090100  0.36052800  0.04703400  1
  H  791  1  0.36011300  0.27963400  0.04679300  1
  H  792  1  0.36042500  0.27962900  0.09723600  1
  H  817  1  0.50741300  0.65702200  0.17874400  1
  H  818  1  0.54433100  0.63269200  0.15493500  1
  H  819  1  0.54678700  0.64065600  0.25785900  1
  H  820  1  0.58422000  0.61584400  0.23387400  1
  H  821  1  0.63592600  0.56445200  0.23408300  1
  H  822  1  0.66058300  0.52701100  0.25818900  1
  H  823  1  0.65547300  0.52597700  0.15506400  1
  H  824  1  0.67960600  0.48900000  0.17902900  1
  H  825  1  0.64815200  0.56755700  0.09726500  1
  H  826  1  0.64822000  0.56781600  0.04680500  1
  H  827  1  0.56714100  0.60665300  0.04688300  1
  H  828  1  0.56759400  0.60749600  0.09732500  1
  H  853  1  0.44045500  0.65707200  0.87315700  1
  H  854  1  0.40355000  0.63273600  0.89697900  1
  H  855  1  0.40127900  0.64033700  0.79402300  1
  H  856  1  0.36385900  0.61550900  0.81802200  1
  H  857  1  0.31175200  0.56417100  0.81805200  1
  H  858  1  0.28701300  0.52666900  0.79411200  1
  H  859  1  0.29324400  0.52540200  0.89717100  1
  H  860  1  0.26904300  0.48836400  0.87338900  1
  H  861  1  0.29993600  0.56754100  0.95475500  1
  H  862  1  0.29987500  0.56791300  0.00521200  1
  H  863  1  0.38094600  0.60675200  0.00504200  1
  H  864  1  0.38048500  0.60749100  0.95459600  1
  C  1  1  0.58902900  0.10504600  0.37524200  1
  C  3  1  0.60806700  0.06087200  0.39207200  1
  C  5  1  0.62574200  0.10500000  0.41044500  1
  C  7  1  0.60795800  0.03048300  0.39212300  1
  C  8  1  0.58489500  0.01485900  0.38060600  1
  C  9  1  0.58469100  0.98488300  0.38090000  1
  C  10  1  0.60768400  0.96906200  0.39235700  1
  C  11  1  0.63076800  0.98477100  0.40378000  1
  C  12  1  0.63082100  0.01475100  0.40386500  1
  C  13  1  0.56841000  0.11966400  0.35831600  1
  C  14  1  0.54598800  0.10439100  0.34515600  1
  C  15  1  0.52396200  0.11851300  0.33075700  1
  C  16  1  0.52365100  0.14851900  0.32834800  1
  C  17  1  0.54668900  0.16389700  0.34004300  1
  C  18  1  0.56854000  0.14968400  0.35502300  1
  C  19  1  0.64304700  0.11959600  0.43077200  1
  C  20  1  0.64585700  0.14966700  0.43094700  1
  C  21  1  0.66079800  0.16388100  0.45281700  1
  C  22  1  0.67290700  0.14844100  0.47560300  1
  C  23  1  0.67105300  0.11840400  0.47494600  1
  C  24  1  0.65673900  0.10428700  0.45285400  1
  C  37  1  0.35901800  0.80240100  0.37505200  1
  C  39  1  0.33995100  0.84653500  0.39196500  1
  C  41  1  0.32225700  0.80236000  0.41020600  1
  C  43  1  0.34007100  0.87692600  0.39208900  1
  C  44  1  0.36313300  0.89257000  0.38060000  1
  C  45  1  0.36335200  0.92254400  0.38097000  1
  C  46  1  0.34036600  0.93835000  0.39246500  1
  C  47  1  0.31727900  0.92261900  0.40385800  1
  C  48  1  0.31721100  0.89264100  0.40386900  1
  C  49  1  0.37968600  0.78781500  0.35816300  1
  C  50  1  0.40217600  0.80309400  0.34513100  1
  C  51  1  0.42421600  0.78898900  0.33073600  1
  C  52  1  0.42449700  0.75898900  0.32825000  1
  C  53  1  0.40139700  0.74360800  0.33981500  1
  C  54  1  0.37951400  0.75780600  0.35476300  1
  C  55  1  0.30493300  0.78768200  0.43046100  1
  C  56  1  0.30225600  0.75759700  0.43061000  1
  C  57  1  0.28739900  0.74329800  0.45248500  1
  C  58  1  0.27518300  0.75867100  0.47525400  1
  C  59  1  0.27686500  0.78871700  0.47460300  1
  C  60  1  0.29115600  0.80291400  0.45254500  1
  C  73  1  0.58941400  0.80255700  0.67781500  1
  C  75  1  0.60790600  0.84663800  0.66017000  1
  C  77  1  0.62485500  0.80241900  0.64132800  1
  C  79  1  0.60783800  0.87702700  0.66002300  1
  C  80  1  0.59604200  0.89277700  0.68285100  1
  C  81  1  0.59608700  0.92275300  0.68275800  1
  C  82  1  0.60752300  0.93845300  0.65966900  1
  C  83  1  0.61903800  0.92261000  0.63671700  1
  C  84  1  0.61938300  0.89263400  0.63696400  1
  C  85  1  0.56899700  0.78798500  0.69502100  1
  C  86  1  0.54667400  0.80327800  0.70833900  1
  C  87  1  0.52453100  0.78915000  0.72256100  1
  C  88  1  0.52404500  0.75912700  0.72467300  1
  C  89  1  0.54703300  0.74372300  0.71291100  1
  C  90  1  0.56897100  0.75793900  0.69807200  1
  C  91  1  0.64186400  0.78771400  0.62083700  1
  C  92  1  0.64484000  0.75765600  0.62088400  1
  C  93  1  0.65983300  0.74335400  0.59910000  1
  C  94  1  0.67186300  0.75869200  0.57620800  1
  C  95  1  0.66981300  0.78872400  0.57662900  1
  C  96  1  0.65541200  0.80292600  0.59860400  1
  C  109  1  0.35870200  0.10500400  0.67716800  1
  C  111  1  0.33982200  0.06082000  0.66017000  1
  C  113  1  0.32201300  0.10496200  0.64193900  1
  C  115  1  0.34000500  0.03042300  0.66000800  1
  C  116  1  0.36307900  0.01479500  0.67150100  1
  C  117  1  0.36335200  0.98481600  0.67108400  1
  C  118  1  0.34041200  0.96898200  0.65953900  1
  C  119  1  0.31731300  0.98470000  0.64814600  1
  C  120  1  0.31719400  0.01468200  0.64818100  1
  C  121  1  0.37926000  0.11970200  0.69409700  1
  C  122  1  0.40167100  0.10451900  0.70737400  1
  C  123  1  0.42366200  0.11874200  0.72172900  1
  C  124  1  0.42396400  0.14876500  0.72393600  1
  C  125  1  0.40092600  0.16406100  0.71213200  1
  C  126  1  0.37908700  0.14974200  0.69724600  1
  C  127  1  0.30468300  0.11963300  0.62168600  1
  C  128  1  0.30202400  0.14972200  0.62151000  1
  C  129  1  0.28719300  0.16401900  0.59961800  1
  C  130  1  0.27496100  0.14863000  0.57687400  1
  C  131  1  0.27657700  0.11858000  0.57757000  1
  C  132  1  0.29088600  0.10439300  0.59962400  1
  C  145  1  0.82281500  0.30268100  0.41092400  1
  C  147  1  0.86694400  0.31963600  0.39187800  1
  C  149  1  0.82274700  0.33782800  0.37415600  1
  C  151  1  0.89734000  0.31978100  0.39200100  1
  C  152  1  0.91299600  0.30829100  0.41505800  1
  C  153  1  0.94297400  0.30866800  0.41527500  1
  C  154  1  0.95877600  0.32018600  0.39229900  1
  C  155  1  0.94303500  0.33158900  0.36922000  1
  C  156  1  0.91305100  0.33158800  0.36915400  1
  C  157  1  0.80822100  0.28574900  0.43155100  1
  C  158  1  0.82350500  0.27263200  0.45399200  1
  C  159  1  0.80939100  0.25823900  0.47602700  1
  C  160  1  0.77938300  0.25579500  0.47633100  1
  C  161  1  0.76399900  0.26744100  0.45327100  1
  C  162  1  0.77820200  0.28241300  0.43140900  1
  C  163  1  0.80804700  0.35807700  0.35684300  1
  C  164  1  0.77795300  0.35824800  0.35422700  1
  C  165  1  0.76363400  0.38009300  0.33934900  1
  C  166  1  0.77899700  0.40283800  0.32708500  1
  C  167  1  0.80905200  0.40216900  0.32871200  1
  C  168  1  0.82326700  0.38011500  0.34298900  1
  C  181  1  0.12540000  0.30301500  0.64085300  1
  C  183  1  0.08122000  0.31983200  0.65990100  1
  C  185  1  0.12534300  0.33825200  0.67752700  1
  C  187  1  0.05082900  0.31988800  0.65981000  1
  C  188  1  0.03518700  0.30837100  0.63676200  1
  C  189  1  0.00521000  0.30869800  0.63657000  1
  C  190  1  0.98940900  0.32016700  0.65956900  1
  C  191  1  0.00513900  0.33158400  0.68264500  1
  C  192  1  0.03511900  0.33164300  0.68268500  1
  C  193  1  0.14001200  0.28611800  0.62020900  1
  C  194  1  0.12474500  0.27303600  0.59773400  1
  C  195  1  0.13886700  0.25863000  0.57571400  1
  C  196  1  0.16887000  0.25617700  0.57543700  1
  C  197  1  0.18424400  0.26779200  0.59851900  1
  C  198  1  0.17002800  0.28275600  0.62038300  1
  C  199  1  0.13991700  0.35860900  0.69481100  1
  C  200  1  0.16998100  0.35876500  0.69769900  1
  C  201  1  0.18417200  0.38067800  0.71260300  1
  C  202  1  0.16870500  0.40349200  0.72461700  1
  C  203  1  0.13867200  0.40285000  0.72271000  1
  C  204  1  0.12458600  0.38076300  0.70836600  1
  C  217  1  0.12523300  0.60486300  0.41066000  1
  C  219  1  0.08106500  0.58788700  0.39173100  1
  C  221  1  0.12522300  0.56964000  0.37396900  1
  C  223  1  0.05066900  0.58774400  0.39190100  1
  C  224  1  0.03504500  0.59924500  0.41497700  1
  C  225  1  0.00506800  0.59886300  0.41524300  1
  C  226  1  0.98923000  0.58733100  0.39229900  1
  C  227  1  0.00494000  0.57592100  0.36920000  1
  C  228  1  0.03492400  0.57592400  0.36908800  1
  C  229  1  0.13990700  0.62179900  0.43122600  1
  C  230  1  0.12469300  0.63503300  0.45364800  1
  C  231  1  0.13889200  0.64936400  0.47566700  1
  C  232  1  0.16891400  0.65162800  0.47596300  1
  C  233  1  0.18423500  0.63988800  0.45291100  1
  C  234  1  0.16994400  0.62498400  0.43106400  1
  C  235  1  0.13990500  0.54935500  0.35669000  1
  C  236  1  0.16999300  0.54922800  0.35399100  1
  C  237  1  0.18430900  0.52736000  0.33914500  1
  C  238  1  0.16895300  0.50454000  0.32701100  1
  C  239  1  0.13890100  0.50516300  0.32872000  1
  C  240  1  0.12468600  0.52724000  0.34296200  1
  C  253  1  0.82266800  0.60553300  0.64144700  1
  C  255  1  0.86676900  0.58787100  0.65991200  1
  C  257  1  0.82255000  0.56905000  0.67688900  1
  C  259  1  0.89716400  0.58771500  0.65982300  1
  C  260  1  0.91291100  0.61052700  0.64800600  1
  C  261  1  0.94289300  0.61043900  0.64805500  1
  C  262  1  0.95860200  0.58735900  0.65949700  1
  C  263  1  0.94276000  0.56441700  0.67102600  1
  C  264  1  0.91278000  0.56466300  0.67137100  1
  C  265  1  0.80808700  0.62273000  0.62102400  1
  C  266  1  0.82337700  0.63610300  0.59873600  1
  C  267  1  0.80924900  0.65036500  0.57661600  1
  C  268  1  0.77921800  0.65242000  0.57608600  1
  C  269  1  0.76381000  0.64057700  0.59903200  1
  C  270  1  0.77803200  0.62574300  0.62097300  1
  C  271  1  0.80784300  0.54858700  0.69393400  1
  C  272  1  0.77777700  0.54860100  0.69686300  1
  C  273  1  0.76347600  0.52680600  0.71183800  1
  C  274  1  0.77883400  0.50397000  0.72394000  1
  C  275  1  0.80887400  0.50444600  0.72198200  1
  C  276  1  0.82306600  0.52639500  0.70753600  1
  C  289  1  0.62472800  0.33880700  0.17732300  1
  C  291  1  0.60789500  0.31974500  0.13315100  1
  C  293  1  0.58955300  0.30206400  0.17730600  1
  C  295  1  0.60783500  0.31983600  0.10275100  1
  C  296  1  0.61935400  0.34287700  0.08709700  1
  C  297  1  0.61904500  0.34306200  0.05711500  1
  C  298  1  0.60757200  0.32007200  0.04130500  1
  C  299  1  0.59614900  0.29700600  0.05704800  1
  C  300  1  0.59608000  0.29697000  0.08703300  1
  C  301  1  0.64164400  0.35943100  0.19194300  1
  C  302  1  0.65472100  0.38191000  0.17668400  1
  C  303  1  0.66912200  0.40392700  0.19081800  1
  C  304  1  0.67162200  0.40417600  0.22082300  1
  C  305  1  0.66000900  0.38108100  0.23618000  1
  C  306  1  0.64502300  0.35924100  0.22195700  1
  C  307  1  0.56924900  0.28474500  0.19192700  1
  C  308  1  0.56906700  0.28196900  0.22200600  1
  C  309  1  0.54721600  0.26701100  0.23623900  1
  C  310  1  0.52445500  0.25484800  0.22081200  1
  C  311  1  0.52512300  0.25666700  0.19076800  1
  C  312  1  0.54719500  0.27099800  0.17663200  1
  C  325  1  0.62508100  0.56862600  0.87465900  1
  C  327  1  0.60817600  0.58764500  0.91882400  1
  C  329  1  0.58988700  0.60534500  0.87466400  1
  C  331  1  0.60805700  0.58753000  0.94922100  1
  C  332  1  0.61955700  0.56448000  0.96487800  1
  C  333  1  0.61917500  0.56426500  0.99485700  1
  C  334  1  0.60765900  0.58724200  0.01065700  1
  C  335  1  0.59626400  0.61032000  0.99491400  1
  C  336  1  0.59626400  0.61038400  0.96493100  1
  C  337  1  0.64198800  0.54800200  0.86002900  1
  C  338  1  0.65513800  0.52555900  0.87527900  1
  C  339  1  0.66953400  0.50355000  0.86113100  1
  C  340  1  0.67192000  0.50324700  0.83111600  1
  C  341  1  0.66022400  0.52630300  0.81576100  1
  C  342  1  0.64528000  0.54816200  0.83000100  1
  C  343  1  0.56960600  0.62265900  0.86001400  1
  C  344  1  0.56944100  0.62538000  0.82992800  1
  C  345  1  0.54754900  0.64023400  0.81565300  1
  C  346  1  0.52477400  0.65238700  0.83106300  1
  C  347  1  0.52543500  0.65068000  0.86111000  1
  C  348  1  0.54751400  0.63639200  0.87527900  1
  C  361  1  0.32223500  0.33819100  0.87476800  1
  C  363  1  0.33992600  0.31970800  0.91884800  1
  C  365  1  0.35872800  0.30276000  0.87460200  1
  C  367  1  0.34008800  0.31978900  0.94924400  1
  C  368  1  0.31730700  0.33166500  0.96499900  1
  C  369  1  0.31741000  0.33163800  0.99498200  1
  C  370  1  0.34046700  0.32014800  0.01069400  1
  C  371  1  0.36337500  0.30855400  0.99483800  1
  C  372  1  0.36311500  0.30818400  0.96485600  1
  C  373  1  0.30499800  0.35860000  0.86021400  1
  C  374  1  0.29160800  0.38085600  0.87554300  1
  C  375  1  0.27735600  0.40299900  0.86144600  1
  C  376  1  0.27528800  0.40355700  0.83141600  1
  C  377  1  0.28712000  0.38063300  0.81597200  1
  C  378  1  0.30198300  0.35869200  0.83015800  1
  C  379  1  0.37920900  0.28575400  0.85987100  1
  C  380  1  0.37915300  0.28280800  0.82980500  1
  C  381  1  0.40092500  0.26782000  0.81548000  1
  C  382  1  0.42381500  0.25576000  0.83079900  1
  C  383  1  0.42339700  0.25777500  0.86084000  1
  C  384  1  0.40144300  0.27218700  0.87506400  1
  C  397  1  0.32287800  0.56907200  0.17729600  1
  C  399  1  0.33983500  0.58800500  0.13312300  1
  C  401  1  0.35807300  0.60577700  0.17726900  1
  C  403  1  0.33999200  0.58782000  0.10273100  1
  C  404  1  0.32852800  0.56472600  0.08711800  1
  C  405  1  0.32893400  0.56444900  0.05714100  1
  C  406  1  0.34043600  0.58740500  0.04130400  1
  C  407  1  0.35180600  0.61052200  0.05700300  1
  C  408  1  0.35178500  0.61064800  0.08698500  1
  C  409  1  0.30599100  0.54846300  0.19195500  1
  C  410  1  0.29285400  0.52599700  0.17673600  1
  C  411  1  0.27854000  0.50396100  0.19092200  1
  C  412  1  0.27624800  0.50367800  0.22094000  1
  C  413  1  0.28788900  0.52676800  0.23627100  1
  C  414  1  0.30275000  0.54864600  0.22198700  1
  C  415  1  0.37834100  0.62308500  0.19192900  1
  C  416  1  0.37852000  0.62575200  0.22201900  1
  C  417  1  0.40042300  0.64056800  0.23630700  1
  C  418  1  0.42318300  0.65274600  0.22090200  1
  C  419  1  0.42249700  0.65111400  0.19085000  1
  C  420  1  0.40042400  0.63683500  0.17667300  1
  C  433  1  0.82279500  0.33839100  0.67711400  1
  C  435  1  0.86698200  0.31948400  0.66017200  1
  C  437  1  0.82285900  0.30171400  0.64188600  1
  C  439  1  0.89737100  0.31966600  0.66002900  1
  C  440  1  0.91297800  0.34276400  0.67149200  1
  C  441  1  0.94295400  0.34303900  0.67109000  1
  C  442  1  0.95879100  0.32008500  0.65957800  1
  C  443  1  0.94309700  0.29696400  0.64821000  1
  C  444  1  0.91311700  0.29683900  0.64822900  1
  C  445  1  0.80810700  0.35895500  0.69403800  1
  C  446  1  0.82330900  0.38138000  0.70726800  1
  C  447  1  0.80909600  0.40340400  0.72158000  1
  C  448  1  0.77907400  0.40369300  0.72382300  1
  C  449  1  0.76376400  0.38063800  0.71209000  1
  C  450  1  0.77806900  0.35878800  0.69720300  1
  C  451  1  0.80823000  0.28443800  0.62156900  1
  C  452  1  0.77815200  0.28168700  0.62142200  1
  C  453  1  0.76388700  0.26683600  0.59952600  1
  C  454  1  0.77929500  0.25476200  0.57670600  1
  C  455  1  0.80933900  0.25652800  0.57734200  1
  C  456  1  0.82350300  0.27076800  0.59944900  1
  C  469  1  0.12515300  0.56931000  0.67781300  1
  C  471  1  0.08106400  0.58777600  0.66012300  1
  C  473  1  0.12529600  0.60474800  0.64132400  1
  C  475  1  0.05066900  0.58767700  0.65995000  1
  C  476  1  0.03491400  0.57585300  0.68275800  1
  C  477  1  0.00493300  0.57588400  0.68265100  1
  C  478  1  0.98923100  0.58731600  0.65955900  1
  C  479  1  0.00508200  0.59885000  0.63662400  1
  C  480  1  0.03506100  0.59921300  0.63688500  1
  C  481  1  0.13971700  0.54887800  0.69501100  1
  C  482  1  0.12441100  0.52658400  0.70835400  1
  C  483  1  0.13852100  0.50444900  0.72260600  1
  C  484  1  0.16855000  0.50391600  0.72466600  1
  C  485  1  0.18397600  0.52686900  0.71287500  1
  C  486  1  0.16976800  0.54882100  0.69804800  1
  C  487  1  0.14002100  0.62178000  0.62086200  1
  C  488  1  0.17008500  0.62471600  0.62090500  1
  C  489  1  0.18440400  0.63968100  0.59911500  1
  C  490  1  0.16907000  0.65177400  0.57625700  1
  C  491  1  0.13902900  0.64981100  0.57670400  1
  C  492  1  0.12481900  0.63535600  0.59863600  1
  C  505  1  0.12538200  0.33880400  0.37492700  1
  C  507  1  0.08123600  0.31976400  0.39183700  1
  C  509  1  0.12541200  0.30202100  0.41005900  1
  C  511  1  0.05083900  0.31988200  0.39196100  1
  C  512  1  0.03518300  0.34294100  0.38047600  1
  C  513  1  0.00520400  0.34314800  0.38083400  1
  C  514  1  0.98940200  0.32016500  0.39232700  1
  C  515  1  0.00514500  0.29708300  0.40372000  1
  C  516  1  0.03512700  0.29702500  0.40373900  1
  C  517  1  0.14000300  0.35942500  0.35801200  1
  C  518  1  0.12474300  0.38187900  0.34489400  1
  C  519  1  0.13888200  0.40390400  0.33051300  1
  C  520  1  0.16889200  0.40418600  0.32808600  1
  C  521  1  0.18425300  0.38111300  0.33973200  1
  C  522  1  0.17002500  0.35926000  0.35469100  1
  C  523  1  0.14008800  0.28468800  0.43030800  1
  C  524  1  0.17018100  0.28207300  0.43051200  1
  C  525  1  0.18447500  0.26717300  0.45236200  1
  C  526  1  0.16908200  0.25489400  0.47508200  1
  C  527  1  0.13903000  0.25652100  0.47437900  1
  C  528  1  0.12483700  0.27080200  0.45231100  1
  C  541  1  0.82259600  0.56858500  0.37528000  1
  C  543  1  0.86676700  0.58765300  0.39210400  1
  C  545  1  0.82261800  0.60528500  0.41049800  1
  C  547  1  0.89716400  0.58756600  0.39214600  1
  C  548  1  0.91281400  0.56453100  0.38060600  1
  C  549  1  0.94279400  0.56434300  0.38091100  1
  C  550  1  0.95860300  0.58733200  0.39238200  1
  C  551  1  0.94286400  0.61039700  0.40381600  1
  C  552  1  0.91288100  0.61043400  0.40389500  1
  C  553  1  0.80798900  0.54794100  0.35837800  1
  C  554  1  0.82325700  0.52546500  0.34530100  1
  C  555  1  0.80913900  0.50345500  0.33088100  1
  C  556  1  0.77913500  0.50318100  0.32839200  1
  C  557  1  0.76376600  0.52626100  0.34002800  1
  C  558  1  0.77797400  0.54811600  0.35500400  1
  C  559  1  0.80799700  0.62259000  0.43081700  1
  C  560  1  0.77792500  0.62542600  0.43095900  1
  C  561  1  0.76368800  0.64033700  0.45284100  1
  C  562  1  0.77910600  0.65242000  0.47565000  1
  C  563  1  0.80914700  0.65056600  0.47501800  1
  C  564  1  0.82328400  0.63623100  0.45294700  1
  C  577  1  0.62578800  0.10494800  0.64146400  1
  C  579  1  0.60813000  0.06088800  0.65999300  1
  C  581  1  0.58932400  0.10512800  0.67692700  1
  C  583  1  0.60797000  0.03049900  0.65993800  1
  C  584  1  0.63078900  0.01474000  0.64814200  1
  C  585  1  0.63068300  0.98476300  0.64818700  1
  C  586  1  0.60758700  0.96907400  0.65962000  1
  C  587  1  0.58464600  0.98492700  0.67114300  1
  C  588  1  0.58490800  0.01490400  0.67148800  1
  C  589  1  0.64300100  0.11949200  0.62103100  1
  C  590  1  0.65630400  0.10417100  0.59871700  1
  C  591  1  0.67054300  0.11826800  0.57656300  1
  C  592  1  0.67268500  0.14828900  0.57605700  1
  C  593  1  0.66093300  0.16372100  0.59903400  1
  C  594  1  0.64607900  0.14953500  0.62098200  1
  C  595  1  0.56885000  0.11985600  0.69394200  1
  C  596  1  0.56889500  0.14991800  0.69687100  1
  C  597  1  0.54712000  0.16423900  0.71186200  1
  C  598  1  0.52424600  0.14891800  0.72394000  1
  C  599  1  0.52468000  0.11888200  0.72194600  1
  C  600  1  0.54664200  0.10466000  0.70754300  1
  C  613  1  0.62519500  0.80246000  0.41054300  1
  C  615  1  0.60823100  0.84663600  0.39162500  1
  C  617  1  0.58997900  0.80250400  0.37385000  1
  C  619  1  0.60808600  0.87702400  0.39181800  1
  C  620  1  0.61956700  0.89262100  0.41491700  1
  C  621  1  0.61917500  0.92259400  0.41520700  1
  C  622  1  0.60766900  0.93844300  0.39225900  1
  C  623  1  0.59628200  0.92276000  0.36913700  1
  C  624  1  0.59629300  0.89278400  0.36899800  1
  C  625  1  0.64209300  0.78778900  0.43113800  1
  C  626  1  0.65532100  0.80300700  0.45355600  1
  C  627  1  0.66964400  0.78882000  0.47558900  1
  C  628  1  0.67185100  0.75880100  0.47592100  1
  C  629  1  0.66011900  0.74346500  0.45287900  1
  C  630  1  0.64525900  0.75775200  0.43100000  1
  C  631  1  0.56970500  0.78784300  0.35654500  1
  C  632  1  0.56954900  0.75775800  0.35386300  1
  C  633  1  0.54763400  0.74346200  0.33907400  1
  C  634  1  0.52485200  0.75885500  0.32691700  1
  C  635  1  0.52552200  0.78890200  0.32855400  1
  C  636  1  0.54760200  0.80308700  0.34281900  1
  C  649  1  0.32321400  0.80233400  0.64088100  1
  C  651  1  0.34010300  0.84651300  0.65987200  1
  C  653  1  0.35846400  0.80237300  0.67755900  1
  C  655  1  0.34018200  0.87691100  0.65977200  1
  C  656  1  0.32862300  0.89256900  0.63675100  1
  C  657  1  0.32895300  0.92254700  0.63656400  1
  C  658  1  0.34048400  0.93835400  0.65952900  1
  C  659  1  0.35195000  0.92260400  0.68257200  1
  C  660  1  0.35200100  0.89262400  0.68261100  1
  C  661  1  0.30624500  0.78768800  0.62030900  1
  C  662  1  0.29300600  0.80293100  0.59791000  1
  C  663  1  0.27857300  0.78877900  0.57592300  1
  C  664  1  0.27620600  0.75876800  0.57562000  1
  C  665  1  0.28797900  0.74341900  0.59864300  1
  C  666  1  0.30298900  0.75766300  0.62045600  1
  C  667  1  0.37878900  0.78776500  0.69486600  1
  C  668  1  0.37896200  0.75769300  0.69768700  1
  C  669  1  0.40082200  0.74347500  0.71264900  1
  C  670  1  0.42360000  0.75890600  0.72477900  1
  C  671  1  0.42294200  0.78894400  0.72291200  1
  C  672  1  0.40087300  0.80306400  0.70856000  1
  C  685  1  0.32301500  0.10492900  0.41108300  1
  C  687  1  0.33991500  0.06078500  0.39203100  1
  C  689  1  0.35818800  0.10494800  0.37434100  1
  C  691  1  0.34003000  0.03039400  0.39215000  1
  C  692  1  0.32852600  0.01474900  0.41520500  1
  C  693  1  0.32889200  0.98477400  0.41542200  1
  C  694  1  0.34039600  0.96896900  0.39244000  1
  C  695  1  0.35180300  0.98470100  0.36935800  1
  C  696  1  0.35181800  0.01468100  0.36929400  1
  C  697  1  0.30612300  0.11953500  0.43173400  1
  C  698  1  0.29307600  0.10427600  0.45423100  1
  C  699  1  0.27868300  0.11840500  0.47625700  1
  C  700  1  0.27619900  0.14840600  0.47651900  1
  C  701  1  0.28779700  0.16376500  0.45341300  1
  C  702  1  0.30274500  0.14954600  0.43154500  1
  C  703  1  0.37846600  0.11961100  0.35703700  1
  C  704  1  0.37861100  0.14969300  0.35432100  1
  C  705  1  0.40050100  0.16398100  0.33947900  1
  C  706  1  0.42329100  0.14859000  0.32733000  1
  C  707  1  0.42264800  0.11854600  0.32902700  1
  C  708  1  0.40058400  0.10436700  0.34332600  1
  C  721  1  0.58934200  0.30251200  0.87464500  1
  C  723  1  0.60822700  0.31950000  0.91883300  1
  C  725  1  0.62599500  0.33777300  0.87468900  1
  C  727  1  0.60805100  0.31964300  0.94923100  1
  C  728  1  0.58498000  0.30813900  0.96485400  1
  C  729  1  0.58471400  0.30852900  0.99483500  1
  C  730  1  0.60765100  0.32007000  0.01067600  1
  C  731  1  0.63074600  0.33148100  0.99496300  1
  C  732  1  0.63086000  0.33147000  0.96498000  1
  C  733  1  0.56881000  0.28555500  0.85994600  1
  C  734  1  0.54643500  0.27222900  0.87514300  1
  C  735  1  0.52443400  0.25788800  0.86092300  1
  C  736  1  0.52410800  0.25571100  0.83089300  1
  C  737  1  0.54711900  0.26754000  0.81558300  1
  C  738  1  0.56895000  0.28244500  0.82989600  1
  C  739  1  0.64326900  0.35807400  0.86002400  1
  C  740  1  0.64600000  0.35820400  0.82993900  1
  C  741  1  0.66085000  0.38007800  0.81564200  1
  C  742  1  0.67295700  0.40289900  0.83101600  1
  C  743  1  0.67121400  0.40227600  0.86106500  1
  C  744  1  0.65696800  0.38019300  0.87526400  1
  C  757  1  0.35856500  0.30191800  0.17726200  1
  C  759  1  0.34005600  0.31956900  0.13317600  1
  C  761  1  0.32307000  0.33834900  0.17741500  1
  C  763  1  0.34015200  0.31973000  0.10278000  1
  C  764  1  0.35206600  0.29696800  0.08702900  1
  C  765  1  0.35203400  0.29706400  0.05704600  1
  C  766  1  0.34051900  0.32010500  0.04133100  1
  C  767  1  0.32889800  0.34299900  0.05718200  1
  C  768  1  0.32852800  0.34274200  0.08716400  1
  C  769  1  0.37902900  0.28474600  0.19181100  1
  C  770  1  0.40137600  0.27149400  0.17650000  1
  C  771  1  0.42352100  0.25724900  0.19060300  1
  C  772  1  0.42401300  0.25508600  0.22062700  1
  C  773  1  0.40101300  0.26680700  0.23605000  1
  C  774  1  0.37905000  0.28163400  0.22185500  1
  C  775  1  0.30601400  0.35879400  0.19214200  1
  C  776  1  0.30314600  0.35880100  0.22221500  1
  C  777  1  0.28817600  0.38059300  0.23653100  1
  C  778  1  0.27601800  0.40340200  0.22118100  1
  C  779  1  0.27791000  0.40290400  0.19113600  1
  C  780  1  0.29234900  0.38095700  0.17692900  1
  C  793  1  0.58897000  0.60468000  0.17725200  1
  C  795  1  0.60804000  0.58775900  0.13311900  1
  C  797  1  0.62575400  0.56955100  0.17731200  1
  C  799  1  0.60793300  0.58762300  0.10272100  1
  C  800  1  0.58488100  0.59910800  0.08705600  1
  C  801  1  0.58468200  0.59873400  0.05707600  1
  C  802  1  0.60766800  0.58722300  0.04128400  1
  C  803  1  0.63074200  0.57582500  0.05703600  1
  C  804  1  0.63079100  0.57582100  0.08702000  1
  C  805  1  0.56833000  0.62159400  0.19185200  1
  C  806  1  0.54585000  0.63465700  0.17657800  1
  C  807  1  0.52381200  0.64903800  0.19070200  1
  C  808  1  0.52354600  0.65153100  0.22070800  1
  C  809  1  0.54664300  0.63993500  0.23608000  1
  C  810  1  0.56850500  0.62497000  0.22186800  1
  C  811  1  0.64307600  0.54930200  0.19199900  1
  C  812  1  0.64570200  0.54912000  0.22209400  1
  C  813  1  0.66058800  0.52727100  0.23639700  1
  C  814  1  0.67284200  0.50452700  0.22101900  1
  C  815  1  0.67120400  0.50520700  0.19096400  1
  C  816  1  0.65693700  0.52727500  0.17676100  1
  C  829  1  0.35904500  0.60450500  0.87467200  1
  C  831  1  0.34003900  0.58766300  0.91886300  1
  C  833  1  0.32240500  0.56923500  0.87474000  1
  C  835  1  0.34014800  0.58760500  0.94925500  1
  C  836  1  0.36319600  0.59913900  0.96488600  1
  C  837  1  0.36340500  0.59881300  0.99486500  1
  C  838  1  0.34042500  0.58732800  0.01068200  1
  C  839  1  0.31735000  0.57589500  0.99496100  1
  C  840  1  0.31729400  0.57583800  0.96498000  1
  C  841  1  0.37966600  0.62142200  0.86005200  1
  C  842  1  0.40209500  0.63457500  0.87532100  1
  C  843  1  0.42410800  0.64898600  0.86119700  1
  C  844  1  0.42442200  0.65136800  0.83118600  1
  C  845  1  0.40138100  0.63968800  0.81580600  1
  C  846  1  0.37952300  0.62472300  0.83002600  1
  C  847  1  0.30512400  0.54887900  0.86016500  1
  C  848  1  0.30221300  0.54873700  0.83009800  1
  C  849  1  0.28731400  0.52682800  0.81590200  1
  C  850  1  0.27532900  0.50399600  0.83135900  1
  C  851  1  0.27726200  0.50461700  0.86139500  1
  C  852  1  0.29158100  0.52671500  0.87549000  1
  C  865  1  0.68290600  0.16198400  0.55119500  1
  C  867  1  0.70994500  0.19657600  0.52599100  1
  C  869  1  0.68303400  0.16208900  0.50052500  1
  C  871  1  0.26573900  0.74500700  0.55088200  1
  C  873  1  0.23844900  0.71048100  0.52583100  1
  C  875  1  0.26523100  0.74496500  0.50021000  1
  C  877  1  0.68210100  0.74501600  0.50071600  1
  C  879  1  0.70936800  0.71065900  0.52599700  1
  C  881  1  0.68209900  0.74494600  0.55138200  1
  C  883  1  0.26568800  0.16218300  0.50122300  1
  C  885  1  0.23837300  0.19677900  0.52614000  1
  C  887  1  0.26504700  0.16231500  0.55189100  1
  C  889  1  0.76537400  0.47847600  0.31785900  1
  C  891  1  0.73087500  0.45353700  0.29043100  1
  C  893  1  0.76529400  0.42781400  0.31719100  1
  C  895  1  0.18225500  0.47904600  0.73485200  1
  C  897  1  0.21677800  0.45375300  0.76189100  1
  C  899  1  0.18234000  0.42838600  0.73482200  1
  C  901  1  0.18265400  0.42892500  0.31763200  1
  C  903  1  0.21724800  0.45395600  0.29041600  1
  C  905  1  0.18268600  0.47958800  0.31709700  1
  C  907  1  0.76526500  0.42847100  0.73407700  1
  C  909  1  0.73081600  0.45365200  0.76133400  1
  C  911  1  0.76511200  0.47912900  0.73416500  1
  C  913  1  0.44886000  0.24486100  0.23434700  1
  C  915  1  0.47403800  0.21786300  0.26899400  1
  C  917  1  0.49953000  0.24472100  0.23447000  1
  C  919  1  0.44915100  0.66185800  0.81744100  1
  C  921  1  0.47417500  0.68932300  0.78305300  1
  C  923  1  0.49981700  0.66237000  0.81738600  1
  C  925  1  0.49930200  0.24549700  0.81709200  1
  C  927  1  0.47399400  0.21840700  0.78260200  1
  C  929  1  0.44863200  0.24552800  0.81703000  1
  C  931  1  0.49882600  0.66203100  0.23446600  1
  C  933  1  0.47387600  0.68940000  0.26900700  1
  C  935  1  0.44816400  0.66265300  0.23458100  1
  C  937  1  0.76564800  0.24533300  0.50108000  1
  C  939  1  0.73121000  0.21794600  0.52612900  1
  C  941  1  0.76560900  0.24482200  0.55174400  1
  C  943  1  0.18271200  0.66189400  0.50075000  1
  C  945  1  0.21716700  0.68911200  0.52596500  1
  C  947  1  0.18282000  0.66199100  0.55142300  1
  C  949  1  0.18262900  0.24563100  0.55073300  1
  C  951  1  0.21710300  0.21815400  0.52581800  1
  C  953  1  0.18275500  0.24498400  0.50006900  1
  C  955  1  0.76549600  0.66259600  0.55122100  1
  C  957  1  0.73082900  0.68947000  0.52594200  1
  C  959  1  0.76542900  0.66260600  0.50054600  1
  C  961  1  0.44874900  0.16259400  0.73416000  1
  C  963  1  0.47402700  0.19708100  0.76127200  1
  C  965  1  0.49942100  0.16267700  0.73415800  1
  C  967  1  0.44920900  0.74523900  0.31771700  1
  C  969  1  0.47415200  0.71072500  0.29032200  1
  C  971  1  0.49987100  0.74516200  0.31703600  1
  C  973  1  0.49918900  0.74540400  0.73486500  1
  C  975  1  0.47399500  0.71074100  0.76182300  1
  C  977  1  0.44851700  0.74525600  0.73493500  1
  C  979  1  0.49890400  0.16224800  0.31787400  1
  C  981  1  0.47386700  0.19663800  0.29041100  1
  C  983  1  0.44824100  0.16228100  0.31735300  1
  C  985  1  0.68236400  0.47851600  0.81733900  1
  C  987  1  0.70958200  0.45348300  0.78274900  1
  C  989  1  0.68288700  0.42785400  0.81729600  1
  C  991  1  0.26595400  0.47891500  0.23474900  1
  C  993  1  0.23866500  0.45376400  0.26918100  1
  C  995  1  0.26582200  0.42825500  0.23490400  1
  C  997  1  0.68214100  0.42888700  0.23458900  1
  C  999  1  0.70954500  0.45383100  0.26910700  1
  C  1001  1  0.68275400  0.47955000  0.23470900  1
  C  1003  1  0.26511200  0.42844500  0.81774500  1
  C  1005  1  0.23809100  0.45376400  0.78321700  1
  C  1007  1  0.26512500  0.47910800  0.81770900  1
  N  2  1  0.58994900  0.07607700  0.37547200  1
  N  4  1  0.62554600  0.07602400  0.40940200  1
  N  6  1  0.60706900  0.11897700  0.39318700  1
  N  38  1  0.35810300  0.83137000  0.37535900  1
  N  40  1  0.32244500  0.83133800  0.40923600  1
  N  42  1  0.34095800  0.78843000  0.39294200  1
  N  74  1  0.59046300  0.83152800  0.67757400  1
  N  76  1  0.62461900  0.83139500  0.64217700  1
  N  78  1  0.60678600  0.78853900  0.65928200  1
  N  110  1  0.35789600  0.07602600  0.67683100  1
  N  112  1  0.32229800  0.07598300  0.64288200  1
  N  114  1  0.34063100  0.11892400  0.65925400  1
  N  146  1  0.85178700  0.30300800  0.41001700  1
  N  148  1  0.85173200  0.33688800  0.37436500  1
  N  150  1  0.80883200  0.32055300  0.39285500  1
  N  182  1  0.09642500  0.30323300  0.64177900  1
  N  184  1  0.09636800  0.33718500  0.67735300  1
  N  186  1  0.13933100  0.32098800  0.65886700  1
  N  218  1  0.09625900  0.60454700  0.40981300  1
  N  220  1  0.09623900  0.57058800  0.37422600  1
  N  222  1  0.13917300  0.58694500  0.39260600  1
  N  254  1  0.85164500  0.60527000  0.64247300  1
  N  256  1  0.85153000  0.56989000  0.67663800  1
  N  258  1  0.80866000  0.58700700  0.65883100  1
  N  290  1  0.62448700  0.33788100  0.14834800  1
  N  292  1  0.59058700  0.30225900  0.14832400  1
  N  294  1  0.60680500  0.32075300  0.19126800  1
  N  326  1  0.62479500  0.56952000  0.90363600  1
  N  328  1  0.59087900  0.60513800  0.90364400  1
  N  330  1  0.60716300  0.58667500  0.86071000  1
  N  362  1  0.32250800  0.33714100  0.90374200  1
  N  364  1  0.35790900  0.30300000  0.90358500  1
  N  366  1  0.34075700  0.32082300  0.86073300  1
  N  398  1  0.32319900  0.56990900  0.14832000  1
  N  400  1  0.35711700  0.60552400  0.14828700  1
  N  402  1  0.34078400  0.58713600  0.19123200  1
  N  434  1  0.85177000  0.33755800  0.67682500  1
  N  436  1  0.85183800  0.30198400  0.64285900  1
  N  438  1  0.80887900  0.32033900  0.65918200  1
  N  470  1  0.09617600  0.57033900  0.67753200  1
  N  472  1  0.09631500  0.60449700  0.64214600  1
  N  474  1  0.13917400  0.58668900  0.65929000  1
  N  506  1  0.09640900  0.33790700  0.37522900  1
  N  508  1  0.09642900  0.30224100  0.40909500  1
  N  510  1  0.13934500  0.32072400  0.39280400  1
  N  542  1  0.85157000  0.56952000  0.37551200  1
  N  544  1  0.85159800  0.60511800  0.40944200  1
  N  546  1  0.80865300  0.58660900  0.39323400  1
  N  578  1  0.62553000  0.07597800  0.64253300  1
  N  580  1  0.59015500  0.07615100  0.67670800  1
  N  582  1  0.60727600  0.11898700  0.65883900  1
  N  614  1  0.62487600  0.83143100  0.40971000  1
  N  616  1  0.59093700  0.83148200  0.37410700  1
  N  618  1  0.60727500  0.78853500  0.39248200  1
  N  650  1  0.32346900  0.83130800  0.64177700  1
  N  652  1  0.35743800  0.83134900  0.67734000  1
  N  654  1  0.34117000  0.78840400  0.65891600  1
  N  686  1  0.32330700  0.07596000  0.41017400  1
  N  688  1  0.35720300  0.07597000  0.37453300  1
  N  690  1  0.34092000  0.11888900  0.39303000  1
  N  722  1  0.59017000  0.30282400  0.90362300  1
  N  724  1  0.62571800  0.33681700  0.90367200  1
  N  726  1  0.60738500  0.32045200  0.86072300  1
  N  758  1  0.35752500  0.30219100  0.14828600  1
  N  760  1  0.32331000  0.33752100  0.14843200  1
  N  762  1  0.34116200  0.32041300  0.19129000  1
  N  794  1  0.58988400  0.60437100  0.14827800  1
  N  796  1  0.62555400  0.57050700  0.14832700  1
  N  798  1  0.60704300  0.58681200  0.19123200  1
  N  830  1  0.35813500  0.60427800  0.90364900  1
  N  832  1  0.32259300  0.57029700  0.90371700  1
  N  834  1  0.34104000  0.58651800  0.86074600  1
  N  866  1  0.70071600  0.18481900  0.55096300  1
  N  868  1  0.70084400  0.18493200  0.50091600  1
  N  870  1  0.67465600  0.15115800  0.52581800  1
  N  872  1  0.24787100  0.72219500  0.55076300  1
  N  874  1  0.24739700  0.72215200  0.50071000  1
  N  876  1  0.27381200  0.75583100  0.52544800  1
  N  878  1  0.70011200  0.72232800  0.50098400  1
  N  880  1  0.70011800  0.72226400  0.55104800  1
  N  882  1  0.67369800  0.75576100  0.52606500  1
  N  884  1  0.24784800  0.18500800  0.50125900  1
  N  886  1  0.24723900  0.18515500  0.55131400  1
  N  888  1  0.27369100  0.15139600  0.52669300  1
  N  890  1  0.74259700  0.47842400  0.29995000  1
  N  892  1  0.74250300  0.42837600  0.29931800  1
  N  894  1  0.77616800  0.45301300  0.32586800  1
  N  896  1  0.20505800  0.47876300  0.75271400  1
  N  898  1  0.20513900  0.42871800  0.75268900  1
  N  900  1  0.17143600  0.45370500  0.72649900  1
  N  902  1  0.20551400  0.42903400  0.29982500  1
  N  904  1  0.20554800  0.47907900  0.29931800  1
  N  906  1  0.17180600  0.45435700  0.32567000  1
  N  908  1  0.74255200  0.42868400  0.75205200  1
  N  910  1  0.74238800  0.47873600  0.75214000  1
  N  912  1  0.77598100  0.45384500  0.72573300  1
  N  914  1  0.44907400  0.22708400  0.25721400  1
  N  916  1  0.49912200  0.22694500  0.25734800  1
  N  918  1  0.47424300  0.25308900  0.22352000  1
  N  920  1  0.44925200  0.67984300  0.79472500  1
  N  922  1  0.49930700  0.68032500  0.79466600  1
  N  924  1  0.47458600  0.65372900  0.82822300  1
  N  926  1  0.49901300  0.22759900  0.79431000  1
  N  928  1  0.44895400  0.22762400  0.79425500  1
  N  930  1  0.47395800  0.25386200  0.82787600  1
  N  932  1  0.49876500  0.67991800  0.25725600  1
  N  934  1  0.44871900  0.68050400  0.25738200  1
  N  936  1  0.47336600  0.65399900  0.22368200  1
  N  938  1  0.74289500  0.22739700  0.50119700  1
  N  940  1  0.74285400  0.22691800  0.55125000  1
  N  942  1  0.77645600  0.25343900  0.52650800  1
  N  944  1  0.20544800  0.67983800  0.50098200  1
  N  946  1  0.20556500  0.67993600  0.55104400  1
  N  948  1  0.17196600  0.65357300  0.52612300  1
  N  950  1  0.20537300  0.22768600  0.55069900  1
  N  952  1  0.20550800  0.22706700  0.50064800  1
  N  954  1  0.17186800  0.25367400  0.52526500  1
  N  956  1  0.74259200  0.68033200  0.55094600  1
  N  958  1  0.74252300  0.68034300  0.50089300  1
  N  960  1  0.77636000  0.65431700  0.52586700  1
  N  962  1  0.44901600  0.18536700  0.75206700  1
  N  964  1  0.49907900  0.18544800  0.75206500  1
  N  966  1  0.47410300  0.15182100  0.72581100  1
  N  968  1  0.44926100  0.72244800  0.29982900  1
  N  970  1  0.49931400  0.72236000  0.29918800  1
  N  972  1  0.47466900  0.75604200  0.32571700  1
  N  974  1  0.49896200  0.72253600  0.75263600  1
  N  976  1  0.44891800  0.72238000  0.75271200  1
  N  978  1  0.47381000  0.75621600  0.72660100  1
  N  980  1  0.49879000  0.18496500  0.29989300  1
  N  982  1  0.44874200  0.18500600  0.29940500  1
  N  984  1  0.47347500  0.15145400  0.32599800  1
  N  986  1  0.70017900  0.47840800  0.79448300  1
  N  988  1  0.70067100  0.42836100  0.79443600  1
  N  990  1  0.67432100  0.45308700  0.82818300  1
  N  992  1  0.24797200  0.47872500  0.25745600  1
  N  994  1  0.24783800  0.42866700  0.25762200  1
  N  996  1  0.27427700  0.45353100  0.22403500  1
  N  998  1  0.70005000  0.42894500  0.25736700  1
  N  1000  1  0.70063100  0.47898800  0.25749300  1
  N  1002  1  0.67409900  0.45435000  0.22381600  1
  N  1004  1  0.24726900  0.42875200  0.79492700  1
  N  1006  1  0.24728000  0.47878800  0.79489300  1
  N  1008  1  0.27345100  0.45378100  0.82859300  1
