# generated using pymatgen
data_H21C34(N3O2)2
_symmetry_space_group_name_H-M   'P 1'
_cell_length_a   25.67180000
_cell_length_b   44.46486192
_cell_length_c   77.01530000
_cell_angle_alpha   90.00000000
_cell_angle_beta   90.00000000
_cell_angle_gamma   90.00000000
_symmetry_Int_Tables_number   1
_chemical_formula_structural   H21C34(N3O2)2
_chemical_formula_sum   'H252 C408 N72 O48'
_cell_volume   87912.42909931
_cell_formula_units_Z   12
loop_
 _symmetry_equiv_pos_site_id
 _symmetry_equiv_pos_as_xyz
  1  'x, y, z'
loop_
 _atom_site_type_symbol
 _atom_site_label
 _atom_site_symmetry_multiplicity
 _atom_site_fract_x
 _atom_site_fract_y
 _atom_site_fract_z
 _atom_site_occupancy
  C  1  1  0.37241300  0.49568300  0.03614000  1
  C  2  1  0.41060300  0.49551900  0.04875800  1
  C  3  1  0.95889700  0.00040000  0.04079300  1
  C  5  1  0.39631400  0.50006000  0.02004900  1
  C  6  1  0.36941600  0.50168100  0.00389900  1
  C  7  1  0.89447000  0.00325800  0.98747500  1
  C  9  1  0.45612600  0.50373000  0.96681000  1
  C  10  1  0.40758800  0.50566200  0.95867400  1
  C  11  1  0.36964600  0.50528200  0.97137700  1
  C  12  1  0.50537100  0.50328500  0.95834700  1
  C  13  1  0.55426300  0.50271300  0.96713600  1
  C  15  1  0.61698300  0.50300400  0.98782400  1
  C  16  1  0.64103000  0.50218500  0.97154600  1
  C  17  1  0.60280500  0.50170100  0.95894400  1
  C  18  1  0.14381200  0.00408000  0.00399700  1
  C  19  1  0.11850300  0.00481200  0.02044200  1
  C  21  1  0.55663400  0.50416400  0.04116500  1
  C  22  1  0.10514700  0.00698700  0.04926000  1
  C  23  1  0.14310700  0.00675600  0.03657600  1
  C  24  1  0.50746800  0.50228600  0.04966500  1
  C  25  1  0.50690000  0.50203600  0.06831700  1
  C  26  1  0.52826400  0.47773200  0.07778700  1
  C  27  1  0.52781600  0.47768200  0.09607700  1
  C  28  1  0.50383700  0.50119300  0.10557200  1
  C  29  1  0.98314800  0.02540000  0.09613700  1
  C  30  1  0.98486600  0.02604900  0.07785600  1
  C  31  1  0.19976300  0.00424100  0.00376600  1
  C  32  1  0.72805200  0.47802900  0.99938000  1
  C  33  1  0.78292500  0.47829000  0.99879100  1
  C  34  1  0.81156400  0.50461200  0.00282300  1
  C  35  1  0.28308400  0.03053300  0.00773200  1
  C  36  1  0.22816800  0.03052800  0.00792000  1
  C  37  1  0.50556300  0.50328500  0.93974700  1
  C  38  1  0.01895000  0.02941900  0.93028600  1
  C  39  1  0.01955800  0.02922600  0.91199400  1
  C  40  1  0.50632200  0.50308200  0.90254900  1
  C  41  1  0.49193700  0.47713100  0.91207300  1
  C  42  1  0.49195600  0.47712000  0.93036300  1
  C  43  1  0.31364800  0.50143600  0.00411300  1
  C  44  1  0.78534800  0.02867000  0.00431700  1
  C  45  1  0.28567000  0.47407100  0.00394300  1
  C  46  1  0.23075100  0.47399900  0.00393700  1
  C  47  1  0.20204300  0.50120700  0.00394100  1
  C  48  1  0.73044300  0.02852300  0.00424700  1
  C  75  1  0.58514300  0.44016100  0.70279800  1
  C  76  1  0.56634800  0.45936200  0.71541000  1
  C  77  1  0.53484300  0.48097700  0.70742700  1
  C  79  1  0.56642600  0.44983800  0.68671400  1
  C  80  1  0.57723100  0.43548500  0.67057600  1
  C  81  1  0.56224400  0.44718000  0.65414800  1
  C  83  1  0.53080000  0.47780800  0.63348700  1
  C  84  1  0.55205700  0.45253700  0.62535300  1
  C  85  1  0.57155000  0.43374200  0.63805700  1
  C  86  1  0.50693100  0.50267700  0.62502100  1
  C  87  1  0.98334700  0.02742700  0.63383500  1
  C  89  1  0.95149100  0.05859600  0.65454100  1
  C  90  1  0.94067400  0.07104000  0.63826600  1
  C  91  1  0.96063400  0.05222800  0.62565700  1
  C  92  1  0.93644300  0.07146900  0.67075900  1
  C  93  1  0.94816900  0.05846500  0.68719600  1
  C  95  1  0.98047400  0.02792800  0.70786400  1
  C  96  1  0.95221500  0.05075900  0.71602100  1
  C  97  1  0.93309800  0.06975600  0.70335700  1
  C  98  1  0.50739300  0.50424300  0.71633000  1
  C  99  1  0.50805600  0.50407000  0.73498200  1
  C  100  1  0.03609400  0.02697900  0.74431000  1
  C  101  1  0.03777800  0.02655400  0.76259800  1
  C  102  1  0.51085200  0.50293800  0.77223700  1
  C  103  1  0.48512800  0.48011600  0.76268700  1
  C  104  1  0.48328500  0.48081500  0.74441000  1
  C  105  1  0.90823900  0.09937100  0.67053500  1
  C  106  1  0.93340900  0.12660200  0.66609500  1
  C  107  1  0.90557800  0.15390800  0.66548200  1
  C  108  1  0.85176300  0.15507100  0.66949000  1
  C  109  1  0.82710300  0.12788500  0.67442600  1
  C  110  1  0.85458800  0.10043600  0.67466300  1
  C  111  1  0.50683300  0.50276700  0.60642100  1
  C  112  1  0.96081700  0.99652100  0.59702100  1
  C  113  1  0.96080500  0.99685100  0.57872900  1
  C  114  1  0.50676000  0.50322800  0.56922300  1
  C  115  1  0.55289500  0.50898100  0.57874700  1
  C  116  1  0.55289900  0.50900100  0.59703700  1
  C  117  1  0.60548200  0.40772400  0.67079400  1
  C  118  1  0.57878600  0.37993800  0.67100500  1
  C  119  1  0.66051800  0.40741300  0.67060400  1
  C  120  1  0.68808500  0.37999200  0.67059500  1
  C  121  1  0.66162800  0.35203300  0.67061600  1
  C  122  1  0.60645900  0.35255900  0.67093800  1
  C  149  1  0.06220400  0.07400300  0.36925500  1
  C  150  1  0.04283600  0.05510200  0.38192700  1
  C  151  1  0.02589600  0.02854200  0.37401000  1
  C  153  1  0.05679600  0.05975500  0.35319100  1
  C  154  1  0.07271300  0.07225200  0.33699700  1
  C  155  1  0.06204000  0.05894200  0.32058400  1
  C  157  1  0.03020800  0.02818500  0.29998300  1
  C  158  1  0.05745200  0.05135300  0.29176000  1
  C  159  1  0.07698600  0.07027500  0.30442300  1
  C  160  1  0.00385700  0.00402900  0.29162100  1
  C  161  1  0.48177300  0.47956700  0.30047500  1
  C  163  1  0.45088000  0.44804800  0.32116300  1
  C  164  1  0.43773400  0.43640000  0.30488500  1
  C  165  1  0.45605700  0.45577500  0.29228500  1
  C  166  1  0.43899700  0.43410000  0.33737300  1
  C  167  1  0.45267500  0.44642900  0.35381300  1
  C  169  1  0.48269200  0.47767600  0.37450300  1
  C  170  1  0.46258600  0.45209400  0.38262600  1
  C  171  1  0.44336200  0.43316400  0.36995500  1
  C  172  1  0.00460500  0.00329900  0.38299700  1
  C  173  1  0.00450800  0.00382600  0.40165000  1
  C  174  1  0.45727900  0.50505500  0.41112700  1
  C  175  1  0.45744000  0.50530600  0.42941800  1
  C  176  1  0.00472900  0.00559700  0.43891000  1
  C  177  1  0.05184200  0.00413500  0.42936800  1
  C  178  1  0.05174600  0.00295700  0.41108800  1
  C  179  1  0.41127700  0.40603900  0.33714300  1
  C  180  1  0.35784600  0.40500300  0.33270800  1
  C  181  1  0.33080300  0.37743500  0.33212400  1
  C  182  1  0.35597000  0.34995500  0.33615400  1
  C  183  1  0.40908000  0.35123000  0.34108800  1
  C  184  1  0.43651400  0.37869400  0.34129200  1
  C  185  1  0.00162700  0.00400100  0.27300900  1
  C  186  1  0.53941300  0.48379700  0.26368000  1
  C  187  1  0.53890900  0.48361500  0.24538800  1
  C  188  1  0.99363900  0.00183300  0.23589300  1
  C  189  1  0.96488300  0.02307700  0.24567300  1
  C  190  1  0.96851900  0.02400700  0.26394500  1
  C  191  1  0.10023400  0.10029300  0.33716700  1
  C  192  1  0.15526100  0.10090500  0.33746700  1
  C  193  1  0.07316200  0.12797000  0.33709300  1
  C  194  1  0.10045600  0.15549300  0.33720400  1
  C  195  1  0.15562300  0.15630600  0.33725200  1
  C  196  1  0.18244200  0.12846100  0.33751600  1
  C  223  1  0.99436000  0.00238800  0.21727000  1
  C  224  1  0.94878300  0.00106600  0.20683300  1
  C  225  1  0.95368900  0.00105700  0.18849400  1
  C  226  1  0.00271100  0.00236400  0.18011900  1
  C  227  1  0.55655200  0.50431200  0.18973500  1
  C  228  1  0.55376700  0.50504100  0.20811200  1
  C  230  1  0.00406200  0.00223800  0.16152400  1
  C  231  1  0.02150100  0.02739000  0.15182800  1
  C  232  1  0.02132700  0.02597900  0.13346000  1
  C  233  1  0.00286300  0.00050800  0.12426800  1
  C  234  1  0.48463800  0.47598400  0.13419400  1
  C  235  1  0.48868500  0.47707700  0.15254500  1
  C  251  1  0.50677800  0.50304600  0.88392000  1
  C  252  1  0.53418900  0.48106300  0.87414600  1
  C  253  1  0.53303500  0.48223700  0.85577500  1
  C  254  1  0.50606400  0.50506600  0.84668600  1
  C  255  1  0.98152600  0.02768700  0.85623400  1
  C  256  1  0.98092400  0.02583800  0.87460800  1
  C  258  1  0.50670800  0.50436600  0.82809100  1
  C  259  1  0.46091000  0.49935800  0.81823100  1
  C  260  1  0.46398700  0.49905700  0.79987700  1
  C  261  1  0.01581400  0.00256400  0.79083000  1
  C  262  1  0.06207100  0.00604400  0.80092600  1
  C  263  1  0.05794300  0.00750300  0.81927600  1
  C  279  1  0.00659200  0.00346800  0.55060000  1
  C  280  1  0.02593500  0.02814200  0.54082100  1
  C  281  1  0.02473500  0.02697600  0.52245100  1
  C  282  1  0.50389900  0.50209900  0.51336000  1
  C  283  1  0.48304000  0.47764000  0.52307100  1
  C  284  1  0.48552100  0.47866700  0.54144800  1
  C  286  1  0.50462100  0.50276700  0.49476400  1
  C  287  1  0.53491800  0.48232200  0.48490100  1
  C  288  1  0.53383100  0.48401100  0.46654700  1
  C  289  1  0.50479000  0.50619000  0.45755400  1
  C  290  1  0.47647200  0.52775800  0.46753300  1
  C  291  1  0.47609900  0.52518700  0.48588400  1
  C  307  1  0.14614000  0.50123800  0.00379200  1
  C  308  1  0.11680800  0.48590700  0.99089100  1
  C  309  1  0.06165800  0.48704300  0.99135100  1
  C  310  1  0.03460600  0.50312000  0.00434300  1
  C  311  1  0.56354500  0.01856300  0.01733000  1
  C  312  1  0.61871400  0.01735800  0.01674900  1
  C  314  1  0.97900000  0.50311400  0.00389300  1
  C  315  1  0.94944500  0.48149000  0.01309400  1
  C  316  1  0.89436500  0.48271800  0.01234500  1
  C  317  1  0.36749200  0.00466900  0.00245200  1
  C  318  1  0.39750500  0.02594300  0.99280800  1
  C  319  1  0.45265300  0.02500700  0.99394200  1
  C  335  1  0.68953100  0.32406500  0.67046300  1
  C  336  1  0.72715100  0.31705000  0.65755100  1
  C  337  1  0.75301300  0.28890400  0.65800500  1
  C  338  1  0.74246700  0.26734800  0.67100700  1
  C  339  1  0.70488000  0.27410400  0.68400500  1
  C  340  1  0.67911200  0.30229200  0.68343000  1
  C  342  1  0.77028800  0.23954600  0.67055500  1
  C  343  1  0.81742200  0.23555200  0.67979700  1
  C  344  1  0.84312800  0.20739900  0.67904500  1
  C  345  1  0.82370500  0.18301500  0.66911600  1
  C  346  1  0.77687100  0.18741300  0.65943200  1
  C  347  1  0.75071300  0.21545900  0.66055700  1
  C  363  1  0.18357900  0.18428300  0.33713700  1
  C  364  1  0.17525100  0.20663700  0.32424600  1
  C  365  1  0.20452700  0.23365200  0.32470600  1
  C  366  1  0.24219200  0.23914600  0.33768700  1
  C  367  1  0.25088900  0.21694800  0.35067000  1
  C  368  1  0.22150200  0.18995700  0.35009000  1
  C  370  1  0.26999600  0.26696300  0.33723300  1
  C  371  1  0.25234300  0.29256300  0.34642700  1
  C  372  1  0.28172200  0.31949200  0.34567500  1
  C  373  1  0.32809300  0.32194800  0.33578800  1
  C  374  1  0.34499600  0.29630100  0.32614700  1
  C  375  1  0.31601300  0.26919400  0.32728200  1
  C  391  1  0.87249000  0.99574900  0.03616400  1
  C  392  1  0.91068100  0.99563700  0.04878500  1
  C  393  1  0.45882200  0.50029600  0.04076800  1
  C  395  1  0.89636900  0.00009900  0.02006600  1
  C  396  1  0.86946000  0.00168000  0.00391300  1
  C  397  1  0.39445400  0.50326200  0.98746800  1
  C  399  1  0.95609300  0.00373300  0.96679300  1
  C  400  1  0.90753300  0.00565500  0.95867200  1
  C  401  1  0.86962700  0.00526700  0.97138600  1
  C  402  1  0.00531200  0.00329200  0.95831200  1
  C  403  1  0.05420800  0.00273000  0.96710000  1
  C  405  1  0.11694500  0.00301400  0.98778800  1
  C  406  1  0.14098000  0.00220000  0.97150800  1
  C  407  1  0.10274800  0.00172700  0.95890800  1
  C  408  1  0.64384300  0.50407400  0.00403300  1
  C  409  1  0.61851200  0.50478200  0.02047300  1
  C  411  1  0.05668900  0.00424600  0.04115900  1
  C  412  1  0.60506500  0.50690300  0.04928700  1
  C  413  1  0.64307000  0.50671700  0.03661500  1
  C  414  1  0.00756100  0.00237900  0.04968900  1
  C  415  1  0.00712400  0.00204900  0.06835200  1
  C  416  1  0.02873400  0.97775100  0.07777200  1
  C  417  1  0.02852100  0.97762700  0.09606700  1
  C  418  1  0.00449900  0.00104100  0.10562400  1
  C  419  1  0.48258200  0.52550900  0.09602900  1
  C  420  1  0.48452400  0.52608000  0.07775200  1
  C  421  1  0.69979100  0.50423600  0.00380400  1
  C  422  1  0.22803200  0.97803000  0.99935300  1
  C  423  1  0.28291000  0.97828600  0.99877900  1
  C  424  1  0.31154800  0.00460600  0.00281600  1
  C  425  1  0.78310900  0.53053500  0.00774700  1
  C  426  1  0.72819500  0.53052600  0.00795100  1
  C  427  1  0.00545600  0.00327800  0.93970500  1
  C  428  1  0.51908300  0.52943300  0.93034000  1
  C  429  1  0.51962900  0.52926700  0.91204800  1
  C  430  1  0.00634500  0.00302300  0.90249600  1
  C  431  1  0.99189300  0.97709200  0.91203000  1
  C  432  1  0.99184400  0.97711200  0.93032300  1
  C  433  1  0.81368600  0.00143000  0.00412900  1
  C  434  1  0.28531600  0.52867800  0.00431000  1
  C  435  1  0.78569900  0.97406700  0.00394900  1
  C  436  1  0.73077900  0.97399500  0.00393400  1
  C  437  1  0.70206600  0.00120300  0.00393900  1
  C  438  1  0.23041300  0.52852700  0.00424700  1
  C  465  1  0.08541700  0.94012800  0.70272400  1
  C  466  1  0.06695700  0.95941700  0.71533800  1
  C  467  1  0.03532300  0.98101700  0.70739200  1
  C  469  1  0.06646300  0.94977800  0.68667000  1
  C  470  1  0.07716800  0.93542300  0.67053000  1
  C  471  1  0.06218000  0.94714300  0.65411300  1
  C  473  1  0.03077300  0.97781600  0.63347700  1
  C  474  1  0.05203000  0.95256000  0.62532600  1
  C  475  1  0.07149800  0.93373400  0.63801700  1
  C  476  1  0.00691000  0.00270300  0.62502900  1
  C  477  1  0.48337900  0.52742100  0.63380900  1
  C  479  1  0.45155400  0.55863200  0.65449400  1
  C  480  1  0.44074500  0.57105700  0.63821600  1
  C  481  1  0.46068100  0.55221500  0.62561700  1
  C  482  1  0.43649500  0.57152300  0.67070200  1
  C  483  1  0.44809900  0.55850300  0.68714100  1
  C  485  1  0.47996300  0.52787500  0.70783200  1
  C  486  1  0.45156200  0.55068600  0.71595400  1
  C  487  1  0.43279000  0.56976600  0.70328100  1
  C  488  1  0.00816400  0.00435700  0.71632500  1
  C  489  1  0.00955100  0.00427600  0.73496900  1
  C  490  1  0.53373300  0.52693700  0.74445800  1
  C  491  1  0.53403300  0.52672100  0.76274800  1
  C  492  1  0.01500400  0.00276000  0.77218300  1
  C  493  1  0.98865200  0.98002500  0.76275000  1
  C  494  1  0.98543800  0.98093100  0.74450600  1
  C  495  1  0.40825400  0.59940800  0.67047000  1
  C  496  1  0.43341900  0.62664900  0.66605400  1
  C  497  1  0.40557400  0.65395000  0.66546500  1
  C  498  1  0.35176400  0.65509200  0.66948000  1
  C  499  1  0.32711500  0.62789500  0.67440000  1
  C  500  1  0.35460600  0.60044900  0.67460500  1
  C  501  1  0.00680800  0.00281600  0.60642900  1
  C  502  1  0.46083300  0.49649100  0.59701500  1
  C  503  1  0.46081300  0.49683900  0.57872200  1
  C  504  1  0.00675800  0.00323300  0.56923000  1
  C  505  1  0.05288600  0.00899300  0.57875400  1
  C  506  1  0.05288300  0.00903200  0.59704400  1
  C  507  1  0.10544300  0.90767800  0.67073900  1
  C  508  1  0.07876300  0.87989000  0.67097900  1
  C  509  1  0.16048000  0.90739200  0.67056700  1
  C  510  1  0.18806900  0.87998000  0.67058300  1
  C  511  1  0.16162800  0.85201600  0.67061500  1
  C  512  1  0.10646000  0.85252200  0.67093300  1
  C  539  1  0.56198200  0.57404800  0.36947200  1
  C  540  1  0.54263000  0.55503800  0.38208900  1
  C  541  1  0.52579000  0.52851600  0.37410200  1
  C  543  1  0.55669200  0.55988400  0.35338400  1
  C  544  1  0.57269400  0.57248800  0.33723900  1
  C  545  1  0.56260200  0.55916200  0.32081000  1
  C  547  1  0.53238600  0.52812000  0.30015100  1
  C  548  1  0.55958200  0.55141200  0.29201600  1
  C  549  1  0.57802000  0.57056000  0.30471900  1
  C  550  1  0.50705600  0.50373400  0.29168700  1
  C  551  1  0.97952300  0.97970100  0.30056600  1
  C  553  1  0.95042000  0.94788500  0.32136100  1
  C  554  1  0.93615300  0.93636300  0.30516500  1
  C  555  1  0.95304600  0.95601700  0.29252100  1
  C  556  1  0.93911200  0.93388900  0.33758700  1
  C  557  1  0.95292200  0.94628800  0.35398400  1
  C  559  1  0.98284400  0.97770400  0.37457600  1
  C  560  1  0.96283100  0.95215600  0.38276800  1
  C  561  1  0.94369200  0.93310500  0.37014700  1
  C  562  1  0.50450600  0.50318800  0.38300300  1
  C  563  1  0.50442200  0.50360400  0.40165500  1
  C  564  1  0.95735400  0.00521600  0.41111900  1
  C  565  1  0.95748600  0.00537800  0.42941100  1
  C  566  1  0.50469700  0.50556100  0.43890900  1
  C  567  1  0.55179900  0.50406300  0.42936400  1
  C  568  1  0.55168000  0.50279400  0.41108700  1
  C  569  1  0.91126700  0.90589400  0.33741300  1
  C  570  1  0.85782500  0.90493900  0.33298400  1
  C  571  1  0.83079900  0.87738900  0.33226800  1
  C  572  1  0.85597500  0.84987700  0.33620600  1
  C  573  1  0.90907500  0.85107100  0.34115400  1
  C  574  1  0.93653200  0.87851500  0.34145200  1
  C  575  1  0.50696400  0.50364000  0.27308600  1
  C  576  1  0.03023200  0.98267800  0.26330100  1
  C  577  1  0.02587600  0.98146000  0.24510200  1
  C  578  1  0.50631100  0.50337500  0.23588700  1
  C  579  1  0.47458200  0.52354800  0.24541200  1
  C  580  1  0.47455500  0.52354100  0.26370200  1
  C  581  1  0.60020400  0.60049600  0.33745400  1
  C  582  1  0.65523200  0.60104300  0.33764800  1
  C  583  1  0.57314300  0.62816700  0.33728500  1
  C  584  1  0.60048500  0.65566300  0.33728400  1
  C  585  1  0.65565000  0.65641400  0.33728100  1
  C  586  1  0.68245600  0.62857000  0.33757700  1
  C  613  1  0.50603500  0.50316500  0.21725800  1
  C  614  1  0.45935000  0.50049800  0.20747900  1
  C  615  1  0.46169700  0.50048500  0.18911000  1
  C  616  1  0.50943300  0.50251100  0.18002300  1
  C  617  1  0.04849200  0.00383900  0.19051000  1
  C  618  1  0.04322700  0.00417300  0.20880300  1
  C  620  1  0.50807200  0.50254000  0.16142600  1
  C  621  1  0.52360900  0.52791100  0.15156500  1
  C  622  1  0.52162300  0.52652500  0.13321100  1
  C  623  1  0.50285500  0.50092100  0.12421700  1
  C  624  1  0.98357800  0.97560300  0.13405300  1
  C  625  1  0.98559600  0.97676600  0.15244100  1
  C  641  1  0.00731600  0.00292800  0.88386400  1
  C  642  1  0.03516700  0.98099000  0.87419500  1
  C  643  1  0.03498000  0.98228300  0.85582100  1
  C  644  1  0.00850400  0.00517200  0.84662500  1
  C  645  1  0.47973600  0.52770200  0.85639500  1
  C  646  1  0.48003400  0.52595000  0.87477100  1
  C  648  1  0.00981500  0.00447600  0.82802900  1
  C  649  1  0.96426100  0.99955900  0.81803500  1
  C  650  1  0.96782100  0.99921700  0.79970300  1
  C  651  1  0.51175600  0.50257200  0.79088300  1
  C  652  1  0.55825400  0.50602800  0.80085900  1
  C  653  1  0.55457800  0.50750400  0.81921000  1
  C  669  1  0.50659100  0.50346900  0.55059400  1
  C  670  1  0.52593100  0.52814500  0.54081700  1
  C  671  1  0.52473400  0.52698000  0.52244700  1
  C  672  1  0.00390300  0.00209600  0.51336400  1
  C  673  1  0.98304100  0.97763600  0.52307600  1
  C  674  1  0.98552100  0.97866600  0.54145500  1
  C  676  1  0.00462000  0.00276200  0.49476800  1
  C  677  1  0.03491400  0.98231900  0.48490200  1
  C  678  1  0.03383200  0.98401200  0.46654900  1
  C  679  1  0.00479400  0.00619500  0.45755700  1
  C  680  1  0.97647400  0.02775800  0.46753800  1
  C  681  1  0.97609900  0.02518100  0.48588900  1
  C  697  1  0.64615600  0.00123700  0.00379000  1
  C  698  1  0.61681500  0.98590600  0.99089100  1
  C  699  1  0.56166300  0.98704100  0.99135200  1
  C  700  1  0.53461100  0.00311900  0.00434300  1
  C  701  1  0.06353500  0.51856200  0.01733100  1
  C  702  1  0.11870100  0.51735600  0.01675100  1
  C  704  1  0.47899500  0.00311300  0.00389500  1
  C  705  1  0.44943900  0.98149100  0.01309500  1
  C  706  1  0.39435600  0.98271400  0.01234500  1
  C  707  1  0.86750400  0.50467200  0.00245200  1
  C  708  1  0.89751300  0.52594300  0.99280600  1
  C  709  1  0.95266000  0.52500700  0.99394000  1
  C  725  1  0.18954700  0.82405900  0.67046800  1
  C  726  1  0.22715700  0.81704900  0.65755200  1
  C  727  1  0.25301700  0.78890300  0.65800500  1
  C  728  1  0.24246600  0.76734900  0.67100700  1
  C  729  1  0.20488600  0.77410300  0.68400900  1
  C  730  1  0.17912600  0.80229100  0.68343500  1
  C  732  1  0.27028100  0.73955200  0.67055600  1
  C  733  1  0.31741100  0.73555800  0.67980000  1
  C  734  1  0.34311500  0.70740500  0.67904900  1
  C  735  1  0.32369300  0.68302600  0.66911700  1
  C  736  1  0.27685700  0.68742100  0.65943200  1
  C  737  1  0.25070000  0.71546500  0.66055800  1
  C  753  1  0.68364100  0.68434900  0.33713200  1
  C  754  1  0.67529700  0.70667900  0.32423200  1
  C  755  1  0.70456800  0.73368400  0.32469000  1
  C  756  1  0.74221800  0.73916500  0.33767800  1
  C  757  1  0.75093600  0.71698600  0.35066800  1
  C  758  1  0.72154700  0.69000700  0.35008900  1
  C  760  1  0.76999600  0.76696500  0.33722500  1
  C  761  1  0.75231400  0.79254900  0.34642500  1
  C  762  1  0.78169500  0.81946900  0.34567900  1
  C  763  1  0.82806000  0.82190900  0.33579000  1
  C  764  1  0.84497800  0.79628400  0.32613600  1
  C  765  1  0.81600400  0.76918200  0.32726900  1
  H  49  1  0.71123900  0.04869500  0.00413500  1
  H  50  1  0.80455200  0.04884600  0.00438000  1
  H  51  1  0.21180100  0.45375800  0.00408500  1
  H  52  1  0.30515200  0.45398700  0.00387300  1
  H  53  1  0.83366900  0.99280100  0.03857200  1
  H  54  1  0.40346600  0.49235200  0.06168100  1
  H  55  1  0.47379400  0.50726800  0.01490300  1
  H  56  1  0.53872100  0.50463000  0.99323100  1
  H  57  1  0.33049200  0.50629800  0.96904500  1
  H  58  1  0.40027200  0.50721400  0.94566200  1
  H  59  1  0.02893600  0.04873300  0.93670800  1
  H  60  1  0.03055400  0.04841700  0.90563800  1
  H  61  1  0.48160400  0.45789200  0.93680600  1
  H  62  1  0.48078800  0.45795200  0.90574400  1
  H  63  1  0.61011200  0.50112600  0.94590500  1
  H  64  1  0.18000300  0.00225800  0.96890500  1
  H  65  1  0.11258700  0.00850200  0.06226100  1
  H  66  1  0.18216000  0.00812100  0.03899700  1
  H  67  1  0.70874300  0.45859100  0.99633200  1
  H  68  1  0.80191100  0.45902000  0.99521200  1
  H  69  1  0.20896100  0.04984000  0.01128700  1
  H  70  1  0.30225700  0.04984000  0.01112400  1
  H  71  1  0.96894300  0.04404200  0.07148400  1
  H  72  1  0.96545900  0.04284500  0.10249300  1
  H  73  1  0.54483000  0.46002800  0.10244600  1
  H  74  1  0.54496700  0.45999700  0.07139800  1
  H  123  1  0.58580200  0.33287200  0.67084300  1
  H  124  1  0.53892000  0.37945400  0.67108300  1
  H  125  1  0.72792200  0.38063500  0.67072800  1
  H  126  1  0.68090700  0.42719500  0.67051700  1
  H  127  1  0.60905700  0.42225900  0.70519900  1
  H  128  1  0.57472000  0.45740800  0.72833000  1
  H  129  1  0.51627100  0.48469500  0.68159900  1
  H  130  1  0.98831200  0.01868000  0.65992700  1
  H  131  1  0.58954300  0.41363900  0.63572800  1
  H  132  1  0.55335500  0.44809300  0.61234300  1
  H  133  1  0.92685800  0.99187200  0.60345000  1
  H  134  1  0.92653800  0.99270400  0.57237400  1
  H  135  1  0.58693100  0.51340500  0.60348000  1
  H  136  1  0.58725100  0.51295100  0.57241900  1
  H  137  1  0.95772400  0.05614900  0.61261800  1
  H  138  1  0.92104600  0.09051600  0.63567100  1
  H  139  1  0.94654300  0.05371700  0.72903900  1
  H  140  1  0.91153600  0.08859800  0.70580500  1
  H  141  1  0.97222700  0.12666600  0.66305600  1
  H  142  1  0.92499600  0.17303200  0.66190200  1
  H  143  1  0.83521300  0.08118100  0.67803100  1
  H  144  1  0.78853600  0.12782200  0.67779200  1
  H  145  1  0.46430800  0.46389600  0.73798800  1
  H  146  1  0.46772800  0.46252200  0.76899400  1
  H  147  1  0.05604100  0.04386800  0.76889100  1
  H  148  1  0.05394200  0.04424100  0.73783400  1
  H  197  1  0.22230300  0.12800200  0.33746800  1
  H  198  1  0.17596900  0.08123400  0.33753200  1
  H  199  1  0.07952000  0.17507000  0.33739000  1
  H  200  1  0.03329600  0.12825500  0.33701700  1
  H  201  1  0.07725200  0.09488800  0.37161300  1
  H  202  1  0.04171900  0.06033700  0.39484100  1
  H  203  1  0.02904700  0.01733200  0.34817600  1
  H  204  1  0.49215900  0.48647100  0.32657500  1
  H  205  1  0.09824400  0.08926500  0.30202600  1
  H  206  1  0.06274200  0.05427000  0.27871700  1
  H  207  1  0.56338400  0.46915200  0.27010700  1
  H  208  1  0.56225400  0.46855200  0.23903300  1
  H  209  1  0.94709400  0.03961800  0.27060800  1
  H  210  1  0.94216800  0.03870200  0.23953300  1
  H  211  1  0.45162500  0.45237700  0.27924400  1
  H  212  1  0.41833000  0.41685000  0.30228300  1
  H  213  1  0.46124700  0.44762500  0.39563000  1
  H  214  1  0.42592200  0.41294800  0.37238700  1
  H  215  1  0.33834000  0.42437500  0.32965600  1
  H  216  1  0.29241700  0.37757200  0.32853500  1
  H  217  1  0.47507300  0.37864700  0.34467300  1
  H  218  1  0.42845400  0.33199000  0.34447800  1
  H  219  1  0.08661700  0.00186700  0.40467300  1
  H  220  1  0.08691700  0.00414600  0.43568300  1
  H  221  1  0.42245600  0.50560600  0.43578700  1
  H  222  1  0.42232200  0.50555200  0.40474000  1
  H  229  1  0.58770200  0.50683600  0.21503900  1
  H  236  1  0.03512700  0.04417100  0.12672500  1
  H  237  1  0.47620300  0.45900500  0.15968400  1
  H  238  1  0.92046800  0.00010600  0.18114100  1
  H  241  1  0.63616800  0.50511100  0.18902600  1
  H  242  1  0.10355400  0.00201700  0.17129700  1
  H  244  1  0.44814000  0.43508000  0.13414100  1
  H  245  1  0.45286200  0.45056400  0.11472900  1
  H  257  1  0.96086600  0.04184600  0.88145600  1
  H  264  1  0.43015600  0.49632200  0.79300800  1
  H  265  1  0.09110800  0.01033500  0.82651200  1
  H  266  1  0.55267200  0.46602800  0.84894900  1
  H  269  1  0.94008600  0.06693600  0.85536900  1
  H  270  1  0.95944900  0.05490700  0.83610100  1
  H  272  1  0.14166400  0.00829500  0.80105900  1
  H  273  1  0.11637300  0.00300000  0.78158100  1
  H  285  1  0.47124400  0.46080400  0.54837500  1
  H  292  1  0.05478400  0.96843800  0.45967600  1
  H  293  1  0.45521800  0.54045600  0.49302400  1
  H  294  1  0.03929200  0.04487900  0.51562300  1
  H  297  1  0.44442900  0.43743300  0.52236100  1
  H  298  1  0.45371000  0.45263600  0.50300900  1
  H  300  1  0.43332400  0.56644200  0.46748100  1
  H  301  1  0.45419100  0.55634700  0.44806800  1
  H  313  1  0.63948800  0.02828400  0.02619700  1
  H  320  1  0.87364700  0.46728100  0.01939800  1
  H  321  1  0.47428000  0.04030400  0.98707400  1
  H  322  1  0.04104500  0.47600900  0.98190600  1
  H  325  1  0.56064900  0.04498700  0.03903200  1
  H  326  1  0.50259200  0.03606400  0.03120200  1
  H  328  1  0.39718300  0.06031900  0.97516700  1
  H  329  1  0.33873700  0.04665700  0.97941300  1
  H  341  1  0.65235800  0.30722200  0.69288400  1
  H  348  1  0.87659200  0.20474100  0.68612300  1
  H  349  1  0.71701100  0.21864100  0.65366100  1
  H  350  1  0.77984700  0.28411200  0.64855300  1
  H  353  1  0.66674400  0.25945400  0.70572100  1
  H  354  1  0.70911300  0.23487500  0.69787700  1
  H  356  1  0.72541500  0.17001900  0.64181100  1
  H  357  1  0.77503700  0.14758700  0.64609900  1
  H  369  1  0.22753400  0.17409900  0.35953100  1
  H  376  1  0.26891800  0.33757400  0.35272600  1
  H  377  1  0.32815300  0.25073300  0.32041500  1
  H  378  1  0.19827200  0.24947300  0.31525900  1
  H  381  1  0.29200100  0.20519200  0.37236700  1
  H  382  1  0.30762800  0.23868300  0.36453500  1
  H  384  1  0.39674400  0.27927600  0.30851300  1
  H  385  1  0.40547200  0.31533000  0.31276100  1
  H  439  1  0.21120900  0.54870000  0.00413700  1
  H  440  1  0.30452200  0.54885300  0.00437300  1
  H  441  1  0.71182700  0.95375500  0.00407800  1
  H  442  1  0.80517800  0.95398200  0.00387700  1
  H  443  1  0.33359100  0.49274400  0.03854600  1
  H  444  1  0.90355600  0.99250000  0.06171100  1
  H  445  1  0.97383100  0.00730700  0.01491300  1
  H  446  1  0.03869600  0.00462500  0.99320200  1
  H  447  1  0.83046800  0.00627800  0.96906400  1
  H  448  1  0.90018300  0.00720300  0.94566100  1
  H  449  1  0.52905900  0.54874300  0.93676800  1
  H  450  1  0.53053300  0.54847500  0.90569400  1
  H  451  1  0.98151200  0.95788400  0.93677100  1
  H  452  1  0.98084800  0.95789000  0.90570500  1
  H  453  1  0.11004700  0.00115600  0.94586800  1
  H  454  1  0.68005400  0.50224100  0.96894400  1
  H  455  1  0.61245000  0.50839000  0.06229200  1
  H  456  1  0.68211400  0.50809100  0.03904700  1
  H  457  1  0.20872700  0.95859200  0.99630300  1
  H  458  1  0.30189600  0.95901500  0.99520700  1
  H  459  1  0.70899100  0.54983600  0.01132100  1
  H  460  1  0.80228600  0.54984500  0.01113400  1
  H  461  1  0.46874500  0.54406500  0.07133400  1
  H  462  1  0.46498100  0.54303100  0.10234000  1
  H  463  1  0.04550900  0.95992100  0.10239200  1
  H  464  1  0.04538400  0.96004900  0.07134000  1
  H  513  1  0.08582100  0.83283000  0.67085000  1
  H  514  1  0.03889800  0.87939700  0.67106000  1
  H  515  1  0.22790500  0.88063600  0.67072400  1
  H  516  1  0.18084900  0.92718100  0.67047700  1
  H  517  1  0.10945900  0.92227600  0.70510100  1
  H  518  1  0.07571400  0.95754400  0.72823400  1
  H  519  1  0.01625100  0.98463500  0.68159800  1
  H  520  1  0.48834100  0.51871500  0.65990500  1
  H  521  1  0.08949600  0.91363500  0.63567700  1
  H  522  1  0.05333900  0.94814300  0.61231300  1
  H  523  1  0.42687400  0.49184600  0.60344400  1
  H  524  1  0.42653900  0.49270300  0.57236800  1
  H  525  1  0.08691600  0.01343400  0.60348800  1
  H  526  1  0.08724800  0.01295400  0.57242500  1
  H  527  1  0.45777100  0.55611700  0.61257700  1
  H  528  1  0.42112700  0.59053300  0.63561100  1
  H  529  1  0.44552500  0.55358700  0.72895600  1
  H  530  1  0.41115500  0.58858100  0.70571300  1
  H  531  1  0.47224200  0.62672600  0.66302000  1
  H  532  1  0.42498200  0.67308600  0.66189800  1
  H  533  1  0.33524600  0.58118700  0.67796500  1
  H  534  1  0.28855300  0.62781900  0.67777300  1
  H  535  1  0.96600800  0.96407300  0.73818000  1
  H  536  1  0.97148800  0.96242900  0.76912700  1
  H  537  1  0.55193600  0.54407400  0.76912100  1
  H  538  1  0.55190900  0.54418700  0.73807400  1
  H  587  1  0.72231400  0.62808900  0.33747600  1
  H  588  1  0.67589400  0.58135300  0.33771200  1
  H  589  1  0.57959800  0.67525800  0.33742900  1
  H  590  1  0.53327300  0.62846700  0.33721600  1
  H  591  1  0.57697600  0.59493200  0.37187700  1
  H  592  1  0.54142900  0.56019500  0.39501100  1
  H  593  1  0.52907000  0.51746000  0.34825700  1
  H  594  1  0.99230300  0.98616700  0.32659300  1
  H  595  1  0.59913100  0.58962500  0.30238700  1
  H  596  1  0.56555400  0.55430000  0.27900300  1
  H  597  1  0.05411900  0.96764200  0.26946100  1
  H  598  1  0.04724600  0.96566700  0.23855800  1
  H  599  1  0.45090300  0.53834100  0.27014500  1
  H  600  1  0.45142500  0.53873100  0.23908400  1
  H  601  1  0.94698100  0.95285300  0.27953900  1
  H  602  1  0.91628600  0.91694800  0.30263100  1
  H  603  1  0.96152600  0.94777200  0.39578000  1
  H  604  1  0.92629600  0.91288900  0.37262300  1
  H  605  1  0.83835400  0.92434500  0.32997700  1
  H  606  1  0.79242100  0.87757100  0.32866700  1
  H  607  1  0.97511700  0.87842500  0.34480000  1
  H  608  1  0.92843000  0.83179100  0.34447800  1
  H  609  1  0.58654500  0.50171500  0.40466800  1
  H  610  1  0.58688600  0.50411200  0.43567400  1
  H  611  1  0.92249100  0.00564100  0.43577600  1
  H  612  1  0.92240100  0.00570100  0.40473000  1
  H  619  1  0.07630800  0.00557000  0.21618800  1
  H  626  1  0.53453100  0.54478500  0.12634300  1
  H  627  1  0.97203100  0.95880100  0.15945000  1
  H  628  1  0.42756300  0.49880900  0.18228300  1
  H  631  1  0.12809400  0.00464000  0.19108700  1
  H  632  1  0.60872400  0.50214400  0.16967400  1
  H  634  1  0.94700300  0.93472600  0.13364900  1
  H  635  1  0.95366900  0.95011100  0.11428400  1
  H  647  1  0.46032500  0.54200100  0.88169700  1
  H  654  1  0.93411700  0.99655200  0.79275700  1
  H  655  1  0.58790500  0.51036900  0.82635000  1
  H  656  1  0.05492000  0.96609900  0.84907500  1
  H  659  1  0.43857000  0.56705400  0.85567900  1
  H  660  1  0.45677200  0.55482200  0.83632800  1
  H  662  1  0.63782700  0.50817800  0.80081900  1
  H  663  1  0.61222400  0.50272200  0.78141200  1
  H  675  1  0.97124000  0.96080500  0.54838200  1
  H  682  1  0.55477600  0.46843000  0.45967700  1
  H  683  1  0.95521900  0.04044900  0.49303000  1
  H  684  1  0.53928800  0.54488400  0.51561900  1
  H  687  1  0.94442500  0.93743200  0.52236700  1
  H  688  1  0.95371100  0.95263200  0.50301500  1
  H  690  1  0.93332900  0.06644500  0.46749300  1
  H  691  1  0.95421000  0.05636500  0.44808000  1
  H  703  1  0.13947500  0.52828200  0.02620000  1
  H  710  1  0.37363600  0.96727800  0.01939600  1
  H  711  1  0.97428300  0.54030300  0.98707100  1
  H  712  1  0.54105000  0.97600800  0.98190700  1
  H  715  1  0.06063400  0.54498500  0.03903400  1
  H  716  1  0.00257900  0.53606300  0.03120200  1
  H  718  1  0.89718600  0.56031800  0.97516600  1
  H  719  1  0.83874100  0.54665800  0.97941500  1
  H  731  1  0.15236900  0.80722100  0.69288900  1
  H  738  1  0.37658000  0.70474700  0.68612600  1
  H  739  1  0.21699700  0.71865000  0.65366200  1
  H  740  1  0.27984700  0.78411100  0.64855300  1
  H  743  1  0.16674600  0.75945100  0.70572300  1
  H  744  1  0.20910700  0.73487000  0.69787500  1
  H  746  1  0.22540200  0.67003000  0.64181000  1
  H  747  1  0.27502900  0.64759800  0.64609400  1
  H  759  1  0.72755700  0.67415600  0.35953600  1
  H  766  1  0.76891400  0.83753900  0.35274100  1
  H  767  1  0.82814100  0.75072000  0.32040200  1
  H  768  1  0.69832000  0.74951000  0.31524400  1
  H  771  1  0.79203900  0.70523300  0.37236700  1
  H  772  1  0.80766800  0.73872000  0.36453300  1
  H  774  1  0.89672500  0.77927800  0.30849700  1
  H  775  1  0.90543200  0.81533100  0.31275100  1
  N  4  1  0.44800900  0.50258500  0.02355300  1
  N  8  1  0.44614000  0.50235600  0.98404300  1
  N  14  1  0.56504800  0.50327800  0.98440200  1
  N  20  1  0.56683600  0.50312000  0.02392000  1
  N  78  1  0.53679200  0.47443000  0.69021100  1
  N  82  1  0.53788500  0.47351300  0.65072000  1
  N  88  1  0.97707800  0.03250600  0.65110400  1
  N  94  1  0.97662400  0.03349500  0.69062100  1
  N  152  1  0.03467200  0.03268800  0.35677400  1
  N  156  1  0.03417800  0.03375000  0.31722000  1
  N  162  1  0.47723600  0.47388600  0.31774100  1
  N  168  1  0.47603500  0.47309500  0.35726000  1
  N  239  1  0.03774200  0.05372900  0.16066000  1
  N  240  1  0.60442500  0.50457300  0.18211800  1
  N  243  1  0.46146000  0.45141200  0.12698300  1
  N  246  1  0.89903300  0.99911600  0.21473800  1
  N  267  1  0.41305000  0.49415600  0.82689000  1
  N  268  1  0.95731400  0.05144600  0.84852600  1
  N  271  1  0.11062300  0.00691900  0.79380600  1
  N  274  1  0.56409800  0.45885600  0.88279400  1
  N  295  1  0.56655700  0.46094300  0.49355900  1
  N  296  1  0.45949200  0.45357400  0.51545300  1
  N  299  1  0.45117600  0.55162200  0.46032300  1
  N  302  1  0.04436300  0.05418500  0.54946700  1
  N  323  1  0.97566500  0.45908600  0.02280600  1
  N  324  1  0.54023300  0.03450300  0.03026700  1
  N  327  1  0.37572700  0.04664900  0.98198000  1
  N  330  1  0.14290700  0.47049700  0.97734300  1
  N  351  1  0.83784100  0.25983900  0.68954800  1
  N  352  1  0.69265200  0.25448200  0.69694800  1
  N  355  1  0.75679500  0.16620500  0.64856400  1
  N  358  1  0.73717900  0.33779900  0.64399500  1
  N  379  1  0.20562300  0.29066700  0.35613700  1
  N  380  1  0.28647100  0.22063900  0.36360300  1
  N  383  1  0.38695600  0.29683900  0.31532300  1
  N  386  1  0.13909400  0.20130700  0.31069400  1
  N  394  1  0.94806300  0.00265200  0.02357400  1
  N  398  1  0.94614700  0.00236100  0.98403100  1
  N  404  1  0.06501200  0.00328900  0.98436600  1
  N  410  1  0.06683200  0.00317800  0.02391000  1
  N  468  1  0.03687300  0.97437500  0.69018600  1
  N  472  1  0.03784000  0.97348900  0.65070600  1
  N  478  1  0.47711600  0.53252800  0.65107400  1
  N  484  1  0.47647100  0.53351100  0.69058900  1
  N  542  1  0.53462500  0.53277300  0.35688600  1
  N  546  1  0.53533000  0.53379600  0.31738400  1
  N  552  1  0.97664600  0.97371900  0.31783300  1
  N  558  1  0.97617500  0.97300800  0.35734700  1
  N  629  1  0.53987300  0.55441700  0.16022400  1
  N  630  1  0.09744100  0.00416100  0.18369900  1
  N  633  1  0.96102600  0.95102900  0.12662300  1
  N  636  1  0.41107400  0.49668400  0.21612600  1
  N  657  1  0.91606800  0.99446800  0.82650700  1
  N  658  1  0.45531300  0.55146900  0.84877400  1
  N  661  1  0.60668900  0.50684500  0.79364100  1
  N  664  1  0.06451900  0.95867500  0.88296100  1
  N  685  1  0.06655700  0.96094000  0.49356000  1
  N  686  1  0.95949200  0.95357200  0.51546000  1
  N  689  1  0.95118400  0.05163000  0.46033200  1
  N  692  1  0.54436500  0.55418500  0.54946300  1
  N  713  1  0.47565700  0.95908500  0.02280600  1
  N  714  1  0.04021900  0.53450300  0.03026800  1
  N  717  1  0.87573100  0.54664900  0.98197900  1
  N  720  1  0.64291100  0.97049600  0.97734200  1
  N  741  1  0.33783400  0.75984700  0.68955000  1
  N  742  1  0.19265500  0.75447800  0.69695100  1
  N  745  1  0.25678300  0.66621500  0.64856300  1
  N  748  1  0.23717900  0.83779800  0.64399700  1
  N  769  1  0.70560000  0.79065500  0.35613800  1
  N  770  1  0.78651200  0.72067900  0.36360200  1
  N  773  1  0.88693900  0.79683300  0.31531400  1
  N  776  1  0.63912900  0.70133700  0.31068400  1
  O  247  1  0.00870300  0.07562200  0.15711500  1
  O  248  1  0.87089000  0.02112400  0.21059100  1
  O  249  1  0.08386200  0.06070000  0.15693800  1
  O  250  1  0.87565300  0.97538700  0.21048100  1
  O  275  1  0.39571500  0.46835100  0.82359700  1
  O  276  1  0.54909600  0.43275000  0.87903000  1
  O  277  1  0.37911200  0.51320000  0.82271900  1
  O  278  1  0.61168200  0.46111900  0.87919100  1
  O  303  1  0.11395200  0.96510500  0.49026600  1
  O  304  1  0.09104100  0.05969400  0.54570000  1
  O  305  1  0.55484100  0.43446900  0.48938700  1
  O  306  1  0.01724000  0.07687100  0.54586400  1
  O  331  1  0.96515100  0.43321800  0.01724300  1
  O  332  1  0.13143300  0.44301700  0.97718700  1
  O  333  1  0.96399600  0.46038800  0.03862900  1
  O  334  1  0.13236300  0.48154200  0.96274100  1
  O  359  1  0.88194000  0.26753200  0.68403000  1
  O  360  1  0.78413800  0.34579600  0.64382300  1
  O  361  1  0.84159700  0.25331400  0.70536900  1
  O  362  1  0.72583600  0.32700200  0.62939800  1
  O  387  1  0.17209100  0.30885900  0.35057000  1
  O  388  1  0.10362300  0.22079200  0.31054100  1
  O  389  1  0.21341400  0.29586000  0.37196000  1
  O  390  1  0.16094200  0.20106600  0.29609400  1
  O  637  1  0.50994200  0.57603600  0.15693000  1
  O  638  1  0.37946300  0.51726200  0.21236000  1
  O  639  1  0.58544300  0.56178700  0.15605300  1
  O  640  1  0.39061500  0.47177700  0.21252100  1
  O  665  1  0.89875200  0.96868100  0.82315400  1
  O  666  1  0.04946600  0.93262800  0.87908200  1
  O  667  1  0.88238400  0.01354400  0.82214900  1
  O  668  1  0.11228000  0.96082300  0.87960500  1
  O  693  1  0.61395300  0.46510600  0.49026300  1
  O  694  1  0.59103900  0.55969500  0.54569700  1
  O  695  1  0.05484300  0.93446500  0.48939100  1
  O  696  1  0.51723700  0.57687100  0.54586000  1
  O  721  1  0.46514500  0.93321900  0.01724300  1
  O  722  1  0.63143500  0.94301600  0.97718700  1
  O  723  1  0.46399100  0.96038700  0.03862900  1
  O  724  1  0.63236600  0.98154100  0.96274100  1
  O  749  1  0.38193600  0.76753600  0.68403100  1
  O  750  1  0.28413700  0.84580200  0.64382400  1
  O  751  1  0.34159000  0.75332200  0.70537000  1
  O  752  1  0.22583200  0.82700500  0.62940100  1
  O  777  1  0.67207300  0.80885100  0.35057300  1
  O  778  1  0.60365000  0.72081800  0.31053000  1
  O  779  1  0.71340400  0.79585500  0.37195800  1
  O  780  1  0.66096500  0.70109200  0.29608100  1
