# generated using pymatgen
data_H12C12N5
_symmetry_space_group_name_H-M   'P 1'
_cell_length_a   27.83360000
_cell_length_b   49.05400000
_cell_length_c   49.05400000
_cell_angle_alpha   90.00000000
_cell_angle_beta   90.00000000
_cell_angle_gamma   90.00000000
_symmetry_Int_Tables_number   1
_chemical_formula_structural   H12C12N5
_chemical_formula_sum   'H768 C768 N320'
_cell_volume   66975.85017398
_cell_formula_units_Z   64
loop_
 _symmetry_equiv_pos_site_id
 _symmetry_equiv_pos_as_xyz
  1  'x, y, z'
loop_
 _atom_site_type_symbol
 _atom_site_label
 _atom_site_symmetry_multiplicity
 _atom_site_fract_x
 _atom_site_fract_y
 _atom_site_fract_z
 _atom_site_occupancy
  H  7  1  0.19498100  0.12613200  0.33964200  1
  H  8  1  0.08357000  0.15313000  0.39065900  1
  H  15  1  0.17035300  0.06598600  0.23458600  1
  H  16  1  0.14207400  0.06144000  0.31853700  1
  H  19  1  0.05164100  0.09273400  0.30033200  1
  H  20  1  0.00819900  0.10326900  0.32029800  1
  H  21  1  0.14445000  0.15672900  0.26341000  1
  H  22  1  0.13337600  0.15489200  0.29618400  1
  H  29  1  0.19753400  0.87696200  0.80033200  1
  H  30  1  0.08555100  0.84900500  0.75024600  1
  H  37  1  0.16655500  0.93743200  0.90612700  1
  H  38  1  0.14487800  0.94212000  0.82156600  1
  H  41  1  0.05448000  0.91161700  0.83905000  1
  H  42  1  0.01108000  0.90145500  0.81890100  1
  H  43  1  0.14822100  0.84651400  0.87618100  1
  H  44  1  0.13849800  0.84839300  0.84327600  1
  H  51  1  0.19495300  0.73206800  0.19485500  1
  H  52  1  0.08334800  0.68138300  0.22217700  1
  H  59  1  0.17044400  0.83714800  0.13466900  1
  H  60  1  0.14230800  0.75319000  0.12992900  1
  H  63  1  0.05178700  0.77099700  0.16069800  1
  H  64  1  0.00833100  0.75099200  0.17116000  1
  H  65  1  0.14445900  0.80813100  0.22533100  1
  H  66  1  0.13330800  0.77537200  0.22342100  1
  H  73  1  0.19682400  0.27153700  0.94533700  1
  H  74  1  0.08449600  0.32146400  0.91759000  1
  H  81  1  0.16949300  0.16594900  0.00565800  1
  H  82  1  0.14341700  0.25008800  0.01057700  1
  H  85  1  0.05420500  0.23266200  0.98041300  1
  H  86  1  0.01062900  0.25270500  0.97023000  1
  H  87  1  0.14989800  0.19584200  0.91481600  1
  H  88  1  0.13835100  0.22855200  0.91678100  1
  H  95  1  0.72718800  0.87672700  0.33965600  1
  H  96  1  0.83860000  0.84971600  0.39066700  1
  H  103  1  0.75181000  0.93688700  0.23461100  1
  H  104  1  0.78010600  0.94141900  0.31856100  1
  H  107  1  0.87053300  0.91012500  0.30035000  1
  H  108  1  0.91397300  0.89958800  0.32031600  1
  H  109  1  0.77771000  0.84614100  0.26342000  1
  H  110  1  0.78879000  0.84797100  0.29619200  1
  H  117  1  0.72460500  0.12590800  0.80037300  1
  H  118  1  0.83657000  0.15385100  0.75026700  1
  H  125  1  0.75562200  0.06543500  0.90616600  1
  H  126  1  0.77727200  0.06074600  0.82160400  1
  H  129  1  0.86767300  0.09124900  0.83907500  1
  H  130  1  0.91106300  0.10140500  0.81891500  1
  H  131  1  0.77394100  0.15635300  0.87621800  1
  H  132  1  0.78365200  0.15447200  0.84331300  1
  H  139  1  0.72723900  0.27085200  0.19485900  1
  H  140  1  0.83872600  0.32177200  0.22193700  1
  H  147  1  0.75182400  0.16576500  0.13468600  1
  H  148  1  0.78006300  0.24971900  0.13008200  1
  H  151  1  0.87054400  0.23157300  0.16134200  1
  H  152  1  0.91399800  0.25150400  0.17193200  1
  H  153  1  0.77762000  0.19465700  0.22541100  1
  H  154  1  0.78872900  0.22742500  0.22355400  1
  H  161  1  0.72534900  0.73132000  0.94538000  1
  H  162  1  0.83766300  0.68139600  0.91760900  1
  H  169  1  0.75276500  0.83690200  0.00572800  1
  H  170  1  0.77880200  0.75275800  0.01061800  1
  H  173  1  0.86798900  0.77019000  0.98043500  1
  H  174  1  0.91155900  0.75014800  0.97024000  1
  H  175  1  0.77227100  0.80702500  0.91487300  1
  H  176  1  0.78379600  0.77431200  0.91682800  1
  H  183  1  0.72723500  0.87673700  0.80045800  1
  H  184  1  0.83911100  0.85006700  0.74959400  1
  H  191  1  0.75193900  0.93661200  0.90589300  1
  H  192  1  0.77946300  0.94129700  0.82187100  1
  H  195  1  0.87023500  0.90984200  0.84040800  1
  H  196  1  0.91385100  0.89945500  0.82047900  1
  H  197  1  0.77752300  0.84591400  0.87684800  1
  H  198  1  0.78840600  0.84781600  0.84405300  1
  H  205  1  0.72474500  0.12591800  0.34024100  1
  H  206  1  0.83698400  0.15357400  0.39031300  1
  H  213  1  0.75588000  0.06561200  0.23420700  1
  H  214  1  0.77692300  0.06093800  0.31881600  1
  H  217  1  0.86765500  0.09186100  0.30087200  1
  H  218  1  0.91115600  0.10180900  0.32106600  1
  H  219  1  0.77381200  0.15654000  0.26420500  1
  H  220  1  0.78341200  0.15464600  0.29712100  1
  H  227  1  0.72652700  0.27090700  0.94588000  1
  H  228  1  0.83805800  0.32189200  0.91894800  1
  H  235  1  0.75485300  0.16524400  0.00591600  1
  H  236  1  0.77801500  0.24970200  0.01035600  1
  H  239  1  0.86996500  0.23101300  0.97840900  1
  H  240  1  0.91340900  0.25104800  0.96804100  1
  H  241  1  0.77890300  0.19443300  0.91513800  1
  H  242  1  0.78805700  0.22740000  0.91693600  1
  H  249  1  0.72475600  0.73133000  0.19464500  1
  H  250  1  0.83672100  0.68096800  0.22214900  1
  H  257  1  0.75629000  0.83738100  0.13448400  1
  H  258  1  0.77731500  0.75276600  0.12991100  1
  H  261  1  0.86794300  0.77108000  0.16147500  1
  H  262  1  0.91141200  0.75095600  0.17160000  1
  H  263  1  0.77349600  0.80743000  0.22547600  1
  H  264  1  0.78303800  0.77450300  0.22362700  1
  H  271  1  0.19490300  0.12610900  0.80041300  1
  H  272  1  0.08300900  0.15279100  0.74956900  1
  H  279  1  0.17025200  0.06624400  0.90585000  1
  H  280  1  0.14268300  0.06155700  0.82183500  1
  H  283  1  0.05192000  0.09301500  0.84038600  1
  H  284  1  0.00829500  0.10340400  0.82046700  1
  H  285  1  0.14464800  0.15694100  0.87680900  1
  H  286  1  0.13374800  0.15503800  0.84401600  1
  H  293  1  0.19741800  0.87693300  0.34021900  1
  H  294  1  0.08519400  0.84928800  0.39030400  1
  H  301  1  0.16630800  0.93724200  0.23419100  1
  H  302  1  0.14524400  0.94191700  0.31879700  1
  H  305  1  0.05449800  0.91099400  0.30086200  1
  H  306  1  0.01100500  0.90104700  0.32105800  1
  H  307  1  0.14831000  0.84631600  0.26418000  1
  H  308  1  0.13870600  0.84821200  0.29709900  1
  H  315  1  0.19564500  0.73195600  0.94583700  1
  H  316  1  0.08410300  0.68096300  0.91893400  1
  H  323  1  0.16738500  0.83762700  0.00584600  1
  H  324  1  0.14420700  0.75317200  0.01031400  1
  H  327  1  0.05221900  0.77184900  0.97838500  1
  H  328  1  0.00877200  0.75181200  0.96803100  1
  H  329  1  0.14324300  0.80842100  0.91508300  1
  H  330  1  0.13407700  0.77545500  0.91689100  1
  H  337  1  0.19740100  0.27145800  0.19465500  1
  H  338  1  0.08538600  0.32164500  0.22237700  1
  H  345  1  0.16596000  0.16543900  0.13447500  1
  H  346  1  0.14499000  0.25004900  0.12975100  1
  H  349  1  0.05430900  0.23213200  0.16082600  1
  H  350  1  0.01087500  0.25235400  0.17080100  1
  H  351  1  0.14847100  0.19551900  0.22539800  1
  H  352  1  0.13887000  0.22843600  0.22349400  1
  H  359  1  0.69492900  0.62609900  0.83965000  1
  H  360  1  0.58356700  0.65320800  0.89064300  1
  H  367  1  0.67035800  0.56594100  0.73463700  1
  H  368  1  0.64200000  0.56137100  0.81857900  1
  H  371  1  0.55155200  0.59257300  0.80048700  1
  H  372  1  0.50813300  0.60313700  0.82045700  1
  H  373  1  0.64436100  0.65667000  0.76346800  1
  H  374  1  0.63322300  0.65482500  0.79623400  1
  H  381  1  0.69747600  0.37704100  0.30028900  1
  H  382  1  0.58547100  0.34906800  0.25023000  1
  H  389  1  0.66655700  0.43745000  0.40612400  1
  H  390  1  0.64483100  0.44216600  0.32156800  1
  H  393  1  0.55442600  0.41163800  0.33906700  1
  H  394  1  0.51101500  0.40146600  0.31892800  1
  H  395  1  0.64819000  0.34654200  0.37615300  1
  H  396  1  0.63845000  0.34843400  0.34325200  1
  H  403  1  0.69492200  0.23203400  0.69484000  1
  H  404  1  0.58328000  0.18141200  0.72222800  1
  H  411  1  0.67049800  0.33710200  0.63463900  1
  H  412  1  0.64232300  0.25314900  0.62988300  1
  H  415  1  0.55178900  0.27090900  0.66057000  1
  H  416  1  0.50832700  0.25090900  0.67103000  1
  H  417  1  0.64439300  0.30808500  0.72528800  1
  H  418  1  0.63321900  0.27532900  0.72337400  1
  H  425  1  0.69681500  0.77155100  0.44541700  1
  H  426  1  0.58450100  0.82148000  0.41765400  1
  H  433  1  0.66938800  0.66595600  0.50574400  1
  H  434  1  0.64335100  0.75009700  0.51065300  1
  H  437  1  0.55417100  0.73267200  0.48046000  1
  H  438  1  0.51060200  0.75271500  0.47026700  1
  H  439  1  0.64989700  0.69585300  0.41489600  1
  H  440  1  0.63837900  0.72856800  0.41685700  1
  H  447  1  0.22727900  0.37675800  0.83963100  1
  H  448  1  0.33859600  0.34959800  0.89062600  1
  H  455  1  0.25175800  0.43689400  0.73464300  1
  H  456  1  0.28017700  0.44150500  0.81857700  1
  H  459  1  0.37067400  0.41039600  0.80058900  1
  H  460  1  0.41407400  0.39983500  0.82057500  1
  H  461  1  0.27790000  0.34618800  0.76349700  1
  H  462  1  0.28909700  0.34804900  0.79625500  1
  H  469  1  0.22462400  0.62586900  0.30032600  1
  H  470  1  0.33661100  0.65385300  0.25026100  1
  H  477  1  0.25559900  0.56539900  0.40612200  1
  H  478  1  0.27727900  0.56070800  0.32156200  1
  H  481  1  0.36768100  0.59121300  0.33904700  1
  H  482  1  0.41108200  0.60139000  0.31890300  1
  H  483  1  0.27394000  0.65631500  0.37617500  1
  H  484  1  0.28366800  0.65443600  0.34327500  1
  H  491  1  0.22723400  0.77082200  0.69483600  1
  H  492  1  0.33886300  0.82146800  0.72219400  1
  H  499  1  0.25169100  0.66574800  0.63463900  1
  H  500  1  0.27985700  0.74970200  0.62989300  1
  H  503  1  0.37037900  0.73191300  0.66062300  1
  H  504  1  0.41384100  0.75191200  0.67108500  1
  H  505  1  0.27772000  0.69476500  0.72529600  1
  H  506  1  0.28888600  0.72752200  0.72338600  1
  H  513  1  0.22534900  0.23130600  0.44541100  1
  H  514  1  0.33765800  0.18137600  0.41764800  1
  H  521  1  0.25279400  0.33689800  0.50574900  1
  H  522  1  0.27882100  0.25275400  0.51064900  1
  H  525  1  0.36799700  0.27018400  0.48045200  1
  H  526  1  0.41156300  0.25013800  0.47025900  1
  H  527  1  0.27226700  0.30700600  0.41489600  1
  H  528  1  0.28378100  0.27429100  0.41685300  1
  H  535  1  0.22716800  0.37664400  0.30050500  1
  H  536  1  0.33905000  0.34996100  0.24964700  1
  H  543  1  0.25190700  0.43659600  0.40589300  1
  H  544  1  0.27939000  0.44124600  0.32186800  1
  H  547  1  0.37015600  0.40983800  0.34039400  1
  H  548  1  0.41376900  0.39945100  0.32046900  1
  H  549  1  0.27748500  0.34588800  0.37688400  1
  H  550  1  0.28835600  0.34777600  0.34408800  1
  H  557  1  0.22470900  0.62596100  0.84021200  1
  H  558  1  0.33697400  0.65350000  0.89032900  1
  H  565  1  0.25581500  0.56565600  0.73416200  1
  H  566  1  0.27685300  0.56099800  0.81877100  1
  H  569  1  0.36759800  0.59199400  0.80074000  1
  H  570  1  0.41111000  0.60190600  0.82094200  1
  H  571  1  0.27376600  0.65659000  0.76414300  1
  H  572  1  0.28334700  0.65469900  0.79706400  1
  H  579  1  0.22651600  0.77088900  0.44579200  1
  H  580  1  0.33807100  0.82189400  0.41892800  1
  H  587  1  0.25475400  0.66522800  0.50582400  1
  H  588  1  0.27793200  0.74968400  0.51028000  1
  H  591  1  0.36992300  0.73099400  0.47836400  1
  H  592  1  0.41337400  0.75103900  0.46802700  1
  H  593  1  0.27889900  0.69442000  0.41505700  1
  H  594  1  0.28806500  0.72738800  0.41686100  1
  H  601  1  0.22470100  0.23132900  0.69464000  1
  H  602  1  0.33667100  0.18092600  0.72207100  1
  H  609  1  0.25630500  0.33741200  0.63451300  1
  H  610  1  0.27729000  0.25279700  0.62994800  1
  H  613  1  0.36789700  0.27118500  0.66161500  1
  H  614  1  0.41137300  0.25106200  0.67173300  1
  H  615  1  0.27339400  0.30745700  0.72551200  1
  H  616  1  0.28289700  0.27452400  0.72366500  1
  H  623  1  0.69493600  0.62615700  0.30045600  1
  H  624  1  0.58303600  0.65282300  0.24960400  1
  H  631  1  0.67025700  0.56627400  0.40588900  1
  H  632  1  0.64272200  0.56159500  0.32187000  1
  H  635  1  0.55195400  0.59303400  0.34041200  1
  H  636  1  0.50833100  0.60341200  0.32048700  1
  H  637  1  0.64465200  0.65697400  0.37685200  1
  H  638  1  0.63376500  0.65507200  0.34405700  1
  H  645  1  0.69748300  0.37688900  0.84022300  1
  H  646  1  0.58518800  0.34941900  0.89035700  1
  H  653  1  0.66629400  0.43720800  0.73415400  1
  H  654  1  0.64531300  0.44183700  0.81876900  1
  H  657  1  0.55460900  0.41075900  0.80065200  1
  H  658  1  0.51108300  0.40085400  0.82084600  1
  H  659  1  0.64849200  0.34625500  0.76412500  1
  H  660  1  0.63895300  0.34813900  0.79705000  1
  H  667  1  0.69564400  0.23196700  0.44579600  1
  H  668  1  0.58409200  0.18096200  0.41893200  1
  H  675  1  0.66742300  0.33763200  0.50582000  1
  H  676  1  0.64423800  0.25317600  0.51028000  1
  H  679  1  0.55223800  0.27186400  0.47836400  1
  H  680  1  0.50878700  0.25182000  0.46802900  1
  H  681  1  0.64325800  0.30843300  0.41505500  1
  H  682  1  0.63408900  0.27546800  0.41686100  1
  H  689  1  0.69744700  0.77151900  0.69466300  1
  H  690  1  0.58547500  0.82191400  0.72210200  1
  H  697  1  0.66587400  0.66544800  0.63451500  1
  H  698  1  0.64487800  0.75006300  0.62994200  1
  H  701  1  0.55426100  0.73171400  0.66155400  1
  H  702  1  0.51078800  0.75184500  0.67166400  1
  H  703  1  0.64872900  0.69540500  0.72551000  1
  H  704  1  0.63921200  0.72833600  0.72366100  1
  H  712  1  0.27615400  0.98172200  0.27233200  1
  H  713  1  0.24666400  0.95314900  0.27362900  1
  H  715  1  0.24516800  0.04995500  0.28578500  1
  H  716  1  0.27353500  0.02130200  0.29001500  1
  H  718  1  0.06986500  0.95342400  0.27374300  1
  H  719  1  0.04074900  0.98200700  0.27627900  1
  H  721  1  0.07273100  0.05019900  0.26394400  1
  H  722  1  0.04445800  0.02166500  0.25909800  1
  H  730  1  0.27687100  0.02222500  0.86516200  1
  H  731  1  0.24685800  0.05049300  0.86334600  1
  H  733  1  0.24556000  0.95283500  0.85838400  1
  H  734  1  0.27484500  0.98100000  0.85362400  1
  H  736  1  0.07252000  0.05068100  0.87447100  1
  H  737  1  0.04373000  0.02241900  0.87941600  1
  H  739  1  0.07034000  0.95340800  0.86872600  1
  H  740  1  0.04070700  0.98172600  0.86598600  1
  H  748  1  0.27616800  0.79928000  0.05012100  1
  H  749  1  0.24655500  0.79798100  0.02158500  1
  H  751  1  0.24529900  0.78595200  0.11841700  1
  H  752  1  0.27362200  0.78168700  0.08974600  1
  H  754  1  0.06972200  0.79807500  0.02207200  1
  H  755  1  0.04075500  0.79558400  0.05069800  1
  H  757  1  0.07291000  0.80784800  0.11884700  1
  H  758  1  0.04452400  0.81266500  0.09037300  1
  H  766  1  0.27610200  0.20357600  0.09035500  1
  H  767  1  0.24639200  0.20487400  0.11882500  1
  H  769  1  0.24565200  0.21680800  0.02200200  1
  H  770  1  0.27379600  0.22105400  0.05071500  1
  H  772  1  0.06955800  0.20502700  0.11814600  1
  H  773  1  0.04059500  0.20750600  0.08950700  1
  H  775  1  0.07313800  0.19523200  0.02132900  1
  H  776  1  0.04441700  0.19059600  0.04974400  1
  H  784  1  0.64602000  0.02113800  0.27233900  1
  H  785  1  0.67551000  0.04971100  0.27362900  1
  H  787  1  0.67700500  0.95290700  0.28580900  1
  H  788  1  0.64863600  0.98156100  0.29002700  1
  H  790  1  0.85231000  0.04943600  0.27375300  1
  H  791  1  0.88142600  0.02085400  0.27629500  1
  H  793  1  0.84944300  0.95266000  0.26397000  1
  H  794  1  0.87771900  0.98119200  0.25912000  1
  H  802  1  0.64530200  0.98063700  0.86521100  1
  H  803  1  0.67531200  0.95236800  0.86339300  1
  H  805  1  0.67660900  0.05002100  0.85840300  1
  H  806  1  0.64733200  0.02185400  0.85363600  1
  H  808  1  0.84965500  0.95218100  0.87449100  1
  H  809  1  0.87844800  0.98044100  0.87943200  1
  H  811  1  0.85182200  0.04945400  0.86875600  1
  H  812  1  0.88145900  0.02113800  0.86601500  1
  H  820  1  0.64611000  0.20360600  0.05022700  1
  H  821  1  0.67569300  0.20487600  0.02168100  1
  H  823  1  0.67703700  0.21702400  0.11849800  1
  H  824  1  0.64868600  0.22124400  0.08983100  1
  H  826  1  0.85252200  0.20479700  0.02211600  1
  H  827  1  0.88151600  0.20732400  0.05073000  1
  H  829  1  0.84943300  0.19514400  0.11890500  1
  H  830  1  0.87779000  0.19028900  0.09042700  1
  H  838  1  0.64617500  0.79926200  0.09043100  1
  H  839  1  0.67588000  0.79790000  0.11890100  1
  H  841  1  0.67658800  0.78607400  0.02206800  1
  H  842  1  0.64845300  0.78180500  0.05078000  1
  H  844  1  0.85273100  0.79759400  0.11820400  1
  H  845  1  0.88167100  0.79517400  0.08955300  1
  H  847  1  0.84912000  0.80760100  0.02140400  1
  H  848  1  0.87785500  0.81218000  0.04982400  1
  H  856  1  0.77616200  0.48169100  0.77230400  1
  H  857  1  0.74668600  0.45311100  0.77358200  1
  H  859  1  0.74513800  0.54991000  0.78581500  1
  H  860  1  0.77353200  0.52126000  0.79001100  1
  H  862  1  0.56988200  0.45335500  0.77377300  1
  H  863  1  0.54076300  0.48193600  0.77633400  1
  H  865  1  0.57269600  0.55013000  0.76398000  1
  H  866  1  0.54444200  0.52159200  0.75912600  1
  H  874  1  0.77688400  0.52224700  0.36516100  1
  H  875  1  0.74687700  0.55051800  0.36336700  1
  H  877  1  0.74554400  0.45285600  0.35839900  1
  H  878  1  0.77485000  0.48101700  0.35365500  1
  H  880  1  0.57254100  0.55071900  0.37451000  1
  H  881  1  0.54374100  0.52245900  0.37944300  1
  H  883  1  0.57032400  0.45345100  0.36872200  1
  H  884  1  0.54070200  0.48177300  0.36599000  1
  H  892  1  0.77620800  0.29926600  0.55009100  1
  H  893  1  0.74659700  0.29798800  0.52155600  1
  H  895  1  0.74533200  0.28590700  0.61838100  1
  H  896  1  0.77366100  0.28166100  0.58970900  1
  H  898  1  0.56976400  0.29809000  0.52203900  1
  H  899  1  0.54079500  0.29557800  0.55066000  1
  H  901  1  0.57294300  0.30781400  0.61881600  1
  H  902  1  0.54456400  0.31264900  0.59034300  1
  H  910  1  0.77599300  0.70356100  0.59044900  1
  H  911  1  0.74629500  0.70491700  0.61892200  1
  H  913  1  0.74556500  0.71677300  0.52209200  1
  H  914  1  0.77371100  0.72103000  0.55080300  1
  H  916  1  0.56944800  0.70524700  0.61824100  1
  H  917  1  0.54050100  0.70767500  0.58959100  1
  H  919  1  0.57303300  0.69525600  0.52143700  1
  H  920  1  0.54430200  0.69067300  0.54985900  1
  H  928  1  0.14596600  0.52116400  0.77231800  1
  H  929  1  0.17544300  0.54974300  0.77359000  1
  H  931  1  0.17699500  0.45293900  0.78580700  1
  H  932  1  0.14860100  0.48158900  0.79000900  1
  H  934  1  0.35224600  0.54949600  0.77373100  1
  H  935  1  0.38136900  0.52091700  0.77628300  1
  H  937  1  0.34942300  0.45272300  0.76393700  1
  H  938  1  0.37766900  0.48126300  0.75907500  1
  H  946  1  0.14526000  0.48061300  0.36517300  1
  H  947  1  0.17526600  0.45234200  0.36337100  1
  H  949  1  0.17659600  0.55000000  0.35837800  1
  H  950  1  0.14729700  0.52183700  0.35363500  1
  H  952  1  0.34960600  0.45214000  0.37448500  1
  H  953  1  0.37840900  0.48040100  0.37941600  1
  H  955  1  0.35181400  0.54941100  0.36870800  1
  H  956  1  0.38143800  0.52108900  0.36597600  1
  H  964  1  0.14597200  0.70359000  0.55009800  1
  H  965  1  0.17558200  0.70487200  0.52156000  1
  H  967  1  0.17685200  0.71694800  0.61838800  1
  H  968  1  0.14852300  0.72119700  0.58971500  1
  H  970  1  0.35241500  0.70477600  0.52204100  1
  H  971  1  0.38138700  0.70728300  0.55066200  1
  H  973  1  0.34924000  0.69504600  0.61881800  1
  H  974  1  0.37762200  0.69021500  0.59034500  1
  H  982  1  0.14618600  0.29931100  0.59044500  1
  H  983  1  0.17587800  0.29795500  0.61891800  1
  H  985  1  0.17661100  0.28608700  0.52209200  1
  H  986  1  0.14846400  0.28183600  0.55080300  1
  H  988  1  0.35273000  0.29759000  0.61824100  1
  H  989  1  0.38167500  0.29515600  0.58959300  1
  H  991  1  0.34915400  0.30758300  0.52143900  1
  H  992  1  0.37788400  0.31216200  0.54986100  1
  H  1000  1  0.20192200  0.11028800  0.43084700  1
  H  1001  1  0.16637500  0.10737900  0.40465600  1
  H  1003  1  0.25518500  0.16645900  0.46380700  1
  H  1004  1  0.21968300  0.14027200  0.46091000  1
  H  1006  1  0.14485200  0.18501700  0.34193300  1
  H  1007  1  0.17462500  0.21305700  0.34706800  1
  H  1009  1  0.27642300  0.22917400  0.38614800  1
  H  1010  1  0.24668400  0.22397600  0.35807900  1
  H  1018  1  0.20368700  0.89215300  0.70923600  1
  H  1019  1  0.16844300  0.89520100  0.73554000  1
  H  1021  1  0.25610700  0.83575400  0.67620100  1
  H  1022  1  0.22096800  0.86208400  0.67918800  1
  H  1024  1  0.14680500  0.81772300  0.79836900  1
  H  1025  1  0.17613100  0.78953000  0.79309300  1
  H  1027  1  0.27731100  0.77291300  0.75380600  1
  H  1028  1  0.24794100  0.77822000  0.78195200  1
  H  1036  1  0.20133800  0.64081000  0.17921700  1
  H  1037  1  0.16620800  0.66716800  0.17622200  1
  H  1039  1  0.25367200  0.60763200  0.23555300  1
  H  1040  1  0.21849400  0.61067000  0.20923300  1
  H  1042  1  0.14503000  0.73001600  0.25377300  1
  H  1043  1  0.17440800  0.72471700  0.28191600  1
  H  1045  1  0.27530600  0.68509400  0.29845900  1
  H  1046  1  0.24602200  0.71328100  0.29323200  1
  H  1054  1  0.20249300  0.36252900  0.96089800  1
  H  1055  1  0.16696300  0.33635400  0.96374400  1
  H  1057  1  0.25618600  0.39540500  0.90475100  1
  H  1058  1  0.22073100  0.39249400  0.93095300  1
  H  1060  1  0.14579600  0.27358600  0.88610700  1
  H  1061  1  0.17554800  0.27871700  0.85806000  1
  H  1063  1  0.27724300  0.31785800  0.84188000  1
  H  1064  1  0.24743400  0.28980700  0.84694200  1
  H  1072  1  0.72024400  0.89256700  0.43085600  1
  H  1073  1  0.75579400  0.89547400  0.40466400  1
  H  1075  1  0.66697400  0.83639600  0.46381300  1
  H  1076  1  0.70247700  0.86258400  0.46091800  1
  H  1078  1  0.77731100  0.81783700  0.34193900  1
  H  1079  1  0.74753800  0.78979700  0.34707400  1
  H  1081  1  0.64573700  0.77368200  0.38615400  1
  H  1082  1  0.67547800  0.77888000  0.35808500  1
  H  1090  1  0.71845100  0.11070800  0.70926500  1
  H  1091  1  0.75368200  0.10765900  0.73557500  1
  H  1093  1  0.66605000  0.16710800  0.67622000  1
  H  1094  1  0.70118400  0.14077600  0.67921400  1
  H  1096  1  0.77532100  0.18514200  0.79839900  1
  H  1097  1  0.74600400  0.21333800  0.79311500  1
  H  1099  1  0.64484200  0.22996100  0.75381400  1
  H  1100  1  0.67420200  0.22465400  0.78196600  1
  H  1108  1  0.72066400  0.36215600  0.17915200  1
  H  1109  1  0.75580800  0.33580300  0.17614400  1
  H  1111  1  0.66834200  0.39530900  0.23551200  1
  H  1112  1  0.70350500  0.39229000  0.20918000  1
  H  1114  1  0.77717100  0.27298100  0.25370400  1
  H  1115  1  0.74777900  0.27826300  0.28184200  1
  H  1117  1  0.64680700  0.31781100  0.29838700  1
  H  1118  1  0.67612100  0.28963800  0.29314200  1
  H  1126  1  0.71969000  0.64031600  0.96092000  1
  H  1127  1  0.75520100  0.66650200  0.96377000  1
  H  1129  1  0.66601800  0.60743800  0.90477000  1
  H  1130  1  0.70146800  0.61035400  0.93097200  1
  H  1132  1  0.77634500  0.72927800  0.88613900  1
  H  1133  1  0.74660400  0.72413600  0.85808900  1
  H  1135  1  0.64492500  0.68498800  0.84190400  1
  H  1136  1  0.67472300  0.71304000  0.84697200  1
  H  1144  1  0.72094400  0.89274400  0.70916500  1
  H  1145  1  0.75631100  0.89567600  0.73543600  1
  H  1147  1  0.66798700  0.83650200  0.67611000  1
  H  1148  1  0.70329300  0.86277100  0.67907400  1
  H  1150  1  0.77787500  0.81797200  0.79809100  1
  H  1151  1  0.74823800  0.78990500  0.79286300  1
  H  1153  1  0.64653400  0.77377700  0.75375900  1
  H  1154  1  0.67612400  0.77903500  0.78186700  1
  H  1162  1  0.71917700  0.11048900  0.43143000  1
  H  1163  1  0.75421300  0.10745700  0.40503300  1
  H  1165  1  0.66699900  0.16690100  0.46461600  1
  H  1166  1  0.70202500  0.14052800  0.46153800  1
  H  1168  1  0.77567700  0.18505300  0.34230800  1
  H  1169  1  0.74639500  0.21324200  0.34769000  1
  H  1171  1  0.64527700  0.22974700  0.38703900  1
  H  1172  1  0.67450800  0.22443400  0.35884900  1
  H  1180  1  0.72002400  0.36233700  0.96153000  1
  H  1181  1  0.75504700  0.33594000  0.96462800  1
  H  1183  1  0.66801200  0.39544000  0.90502500  1
  H  1184  1  0.70298000  0.39243100  0.93144200  1
  H  1186  1  0.77673300  0.27305200  0.88713600  1
  H  1187  1  0.74750200  0.27834800  0.85894700  1
  H  1189  1  0.64655200  0.31782500  0.84226900  1
  H  1190  1  0.67580500  0.28965000  0.84761200  1
  H  1198  1  0.71891100  0.64011100  0.17905600  1
  H  1199  1  0.75423800  0.66636900  0.17613500  1
  H  1201  1  0.66547900  0.60724900  0.23532000  1
  H  1202  1  0.70076700  0.61017000  0.20904500  1
  H  1204  1  0.77558300  0.72917800  0.25373900  1
  H  1205  1  0.74597900  0.72399400  0.28182400  1
  H  1207  1  0.64433200  0.68489800  0.29807500  1
  H  1208  1  0.67401900  0.71296900  0.29291200  1
  H  1216  1  0.20118900  0.11010200  0.70913400  1
  H  1217  1  0.16581000  0.10717600  0.73539900  1
  H  1219  1  0.25417200  0.16634000  0.67608100  1
  H  1220  1  0.21885700  0.14007500  0.67904100  1
  H  1222  1  0.14425200  0.18487900  0.79805500  1
  H  1223  1  0.17390100  0.21294300  0.79283000  1
  H  1225  1  0.27561700  0.22906200  0.75373600  1
  H  1226  1  0.24602000  0.22380600  0.78184000  1
  H  1234  1  0.20298800  0.89236700  0.43141600  1
  H  1235  1  0.16796100  0.89540300  0.40501500  1
  H  1237  1  0.25515600  0.83595600  0.46460800  1
  H  1238  1  0.22013400  0.86233100  0.46152600  1
  H  1240  1  0.14650400  0.81780400  0.34229200  1
  H  1241  1  0.17577900  0.78961500  0.34768000  1
  H  1243  1  0.27688700  0.77310700  0.38703200  1
  H  1244  1  0.24766100  0.77842100  0.35884100  1
  H  1252  1  0.20215300  0.64053300  0.96151100  1
  H  1253  1  0.16712000  0.66692600  0.96460400  1
  H  1255  1  0.25417200  0.60742800  0.90501000  1
  H  1256  1  0.21920000  0.61043700  0.93142600  1
  H  1258  1  0.14541800  0.72980600  0.88710400  1
  H  1259  1  0.17466000  0.72451300  0.85891800  1
  H  1261  1  0.27561900  0.68503900  0.84224700  1
  H  1262  1  0.24636100  0.71321400  0.84758600  1
  H  1270  1  0.20315900  0.36263500  0.17912700  1
  H  1271  1  0.16784000  0.33637400  0.17621000  1
  H  1273  1  0.25655700  0.39552100  0.23538100  1
  H  1274  1  0.22126400  0.39258600  0.20911000  1
  H  1276  1  0.14656800  0.27356000  0.25381200  1
  H  1277  1  0.17617300  0.27874600  0.28189700  1
  H  1279  1  0.27776500  0.31790100  0.29816100  1
  H  1280  1  0.24809600  0.28981900  0.29301200  1
  H  1288  1  0.27557500  0.13546100  0.23168300  1
  H  1289  1  0.24729300  0.11177700  0.24852000  1
  H  1291  1  0.24720800  0.17295600  0.17229200  1
  H  1292  1  0.27763800  0.15252300  0.19183200  1
  H  1294  1  0.07625900  0.09519400  0.23288400  1
  H  1295  1  0.04703500  0.11192700  0.20962600  1
  H  1297  1  0.07139600  0.17136200  0.17191200  1
  H  1298  1  0.04213800  0.15183300  0.19297800  1
  H  1306  1  0.27697900  0.87993000  0.91989000  1
  H  1307  1  0.24699100  0.89949400  0.89923700  1
  H  1309  1  0.24581800  0.82324900  0.96032300  1
  H  1310  1  0.27446100  0.83997800  0.93671400  1
  H  1312  1  0.07128800  0.90027900  0.89996300  1
  H  1313  1  0.04155900  0.87930800  0.91936400  1
  H  1315  1  0.07454400  0.83913000  0.97607100  1
  H  1316  1  0.04567200  0.86243100  0.95918700  1
  H  1324  1  0.27564200  0.83996400  0.20409300  1
  H  1325  1  0.24732600  0.82313300  0.18042400  1
  H  1327  1  0.24729500  0.89936100  0.24157700  1
  H  1328  1  0.27774700  0.87979300  0.22117200  1
  H  1330  1  0.07618600  0.83858400  0.16408100  1
  H  1331  1  0.04694800  0.86185000  0.18078000  1
  H  1333  1  0.07167500  0.90009700  0.23986400  1
  H  1334  1  0.04223100  0.87910200  0.22037100  1
  H  1342  1  0.27927500  0.15287400  0.94759600  1
  H  1343  1  0.24922300  0.17331900  0.96730500  1
  H  1345  1  0.24768000  0.11185400  0.89129700  1
  H  1346  1  0.27642600  0.13549000  0.90793000  1
  H  1348  1  0.07345500  0.17171400  0.96896800  1
  H  1349  1  0.04369900  0.15221200  0.94812600  1
  H  1351  1  0.07692700  0.09559600  0.90793600  1
  H  1352  1  0.04814700  0.11236000  0.93135900  1
  H  1360  1  0.64658100  0.86742700  0.23168300  1
  H  1361  1  0.67486700  0.89110100  0.24853400  1
  H  1363  1  0.67496700  0.82995000  0.17228100  1
  H  1364  1  0.64452600  0.85036700  0.19183300  1
  H  1366  1  0.84590800  0.90768500  0.23291100  1
  H  1367  1  0.87513200  0.89095600  0.20964800  1
  H  1369  1  0.85077300  0.83152800  0.17192500  1
  H  1370  1  0.88002900  0.85104900  0.19300100  1
  H  1378  1  0.64519800  0.12294600  0.91993700  1
  H  1379  1  0.67517900  0.10338800  0.89927600  1
  H  1381  1  0.67636900  0.17960600  0.96039400  1
  H  1382  1  0.64772300  0.16289200  0.93677500  1
  H  1384  1  0.85088400  0.10259900  0.89999100  1
  H  1385  1  0.88061400  0.12356400  0.91939700  1
  H  1387  1  0.84764300  0.16371900  0.97612200  1
  H  1388  1  0.87651100  0.14042400  0.95922800  1
  H  1396  1  0.64657000  0.16291200  0.20413400  1
  H  1397  1  0.67488500  0.17973700  0.18045700  1
  H  1399  1  0.67487400  0.10347900  0.24156800  1
  H  1400  1  0.64443600  0.12304900  0.22115600  1
  H  1402  1  0.84599100  0.16420600  0.16406500  1
  H  1403  1  0.87521400  0.14094100  0.18077800  1
  H  1405  1  0.85051800  0.10279900  0.23992900  1
  H  1406  1  0.87995000  0.12379300  0.22042600  1
  H  1414  1  0.64293100  0.84997900  0.94765900  1
  H  1415  1  0.67299500  0.82954500  0.96737600  1
  H  1417  1  0.67450400  0.89098300  0.89134600  1
  H  1418  1  0.64576900  0.86735000  0.90798700  1
  H  1420  1  0.84875700  0.83115300  0.96901700  1
  H  1421  1  0.87850500  0.85064800  0.94816300  1
  H  1423  1  0.84526100  0.90725300  0.90796200  1
  H  1424  1  0.87404700  0.89049800  0.93138900  1
  H  1432  1  0.77555400  0.63539900  0.73173800  1
  H  1433  1  0.74725800  0.61173800  0.74859500  1
  H  1435  1  0.74721500  0.67285400  0.67231600  1
  H  1436  1  0.77763800  0.65243600  0.69187400  1
  H  1438  1  0.57623400  0.59514200  0.73291400  1
  H  1439  1  0.54704300  0.61186000  0.70963600  1
  H  1441  1  0.57140600  0.67131500  0.67195700  1
  H  1442  1  0.54214300  0.65179200  0.69302800  1
  H  1450  1  0.77697700  0.37995500  0.41986000  1
  H  1451  1  0.74697700  0.39951900  0.39921300  1
  H  1453  1  0.74584200  0.32326600  0.46028800  1
  H  1454  1  0.77447300  0.34000100  0.43667800  1
  H  1456  1  0.57127600  0.40029700  0.39996100  1
  H  1457  1  0.54155700  0.37932100  0.41936000  1
  H  1459  1  0.57456700  0.33912800  0.47605300  1
  H  1460  1  0.54568500  0.36243100  0.45917900  1
  H  1468  1  0.77564800  0.33988200  0.70409500  1
  H  1469  1  0.74733300  0.32303600  0.68043300  1
  H  1471  1  0.74735100  0.39934700  0.74147800  1
  H  1472  1  0.77778500  0.37976300  0.72108000  1
  H  1474  1  0.57622000  0.33857600  0.66402500  1
  H  1475  1  0.54700400  0.36185200  0.68072700  1
  H  1477  1  0.57171100  0.40001000  0.73986400  1
  H  1478  1  0.54227500  0.37900300  0.72037500  1
  H  1486  1  0.77923700  0.65290300  0.44767800  1
  H  1487  1  0.74916500  0.67332700  0.46739900  1
  H  1489  1  0.74768200  0.61191100  0.39135000  1
  H  1490  1  0.77640900  0.63553800  0.40800100  1
  H  1492  1  0.57340300  0.67170600  0.46903000  1
  H  1493  1  0.54366200  0.65221800  0.44816700  1
  H  1495  1  0.57692400  0.59562500  0.40795400  1
  H  1496  1  0.54813200  0.61237200  0.43138600  1
  H  1504  1  0.14664100  0.36740900  0.73177700  1
  H  1505  1  0.17493000  0.39106700  0.74865000  1
  H  1507  1  0.17494800  0.33003400  0.67230600  1
  H  1508  1  0.14453300  0.35044200  0.69188200  1
  H  1510  1  0.34593900  0.40770800  0.73292300  1
  H  1511  1  0.37512200  0.39100400  0.70962600  1
  H  1513  1  0.35075500  0.33154500  0.67194900  1
  H  1514  1  0.38002200  0.35106600  0.69302200  1
  H  1522  1  0.14517400  0.62290100  0.41988000  1
  H  1523  1  0.17516600  0.60332900  0.39923500  1
  H  1525  1  0.17632600  0.67959600  0.46029700  1
  H  1526  1  0.14768600  0.66285700  0.43669200  1
  H  1528  1  0.35086800  0.60255000  0.39996500  1
  H  1529  1  0.38059300  0.62353100  0.41935800  1
  H  1531  1  0.34760300  0.66372900  0.47604900  1
  H  1532  1  0.37648000  0.64042200  0.45917500  1
  H  1540  1  0.14650000  0.66294900  0.70406000  1
  H  1541  1  0.17482500  0.67978100  0.68039700  1
  H  1543  1  0.17481600  0.60353300  0.74151900  1
  H  1544  1  0.14437600  0.62310500  0.72111300  1
  H  1546  1  0.34595900  0.66429800  0.66404700  1
  H  1547  1  0.37518300  0.64102800  0.68075100  1
  H  1549  1  0.35044200  0.60280900  0.73985000  1
  H  1550  1  0.37989300  0.62380600  0.72035900  1
  H  1558  1  0.14292900  0.34995500  0.44769800  1
  H  1559  1  0.17300500  0.32952200  0.46740900  1
  H  1561  1  0.17446400  0.39096500  0.39138100  1
  H  1562  1  0.14574300  0.36732800  0.40802400  1
  H  1564  1  0.34877300  0.33114700  0.46902400  1
  H  1565  1  0.37850200  0.35064600  0.44816500  1
  H  1567  1  0.34522400  0.40724700  0.40796900  1
  H  1568  1  0.37402900  0.39049200  0.43138800  1
  H  1576  1  0.99551500  0.07642600  0.39870500  1
  H  1577  1  0.04567100  0.09164200  0.39097500  1
  H  1579  1  0.87410100  0.09776100  0.39808600  1
  H  1580  1  0.92399300  0.08580500  0.41043500  1
  H  1582  1  0.04564200  0.17713900  0.33977400  1
  H  1583  1  0.99564100  0.19222500  0.33188500  1
  H  1585  1  0.87468600  0.17149300  0.33085600  1
  H  1586  1  0.92504600  0.18289500  0.31848600  1
  H  1594  1  0.99817000  0.91654900  0.72954100  1
  H  1595  1  0.04816700  0.90450700  0.74176800  1
  H  1597  1  0.87701800  0.91187200  0.75008300  1
  H  1598  1  0.92737400  0.92685000  0.74227800  1
  H  1600  1  0.04758500  0.83146500  0.80971100  1
  H  1601  1  0.99715300  0.82019800  0.82213200  1
  H  1603  1  0.87668400  0.82583400  0.80065200  1
  H  1604  1  0.92669500  0.81067800  0.80842500  1
  H  1612  1  0.99732200  0.66345200  0.15234800  1
  H  1613  1  0.04657900  0.67579200  0.16496000  1
  H  1615  1  0.87383500  0.67789100  0.16264600  1
  H  1616  1  0.92331800  0.66956400  0.14725500  1
  H  1618  1  0.04606700  0.73419300  0.24445300  1
  H  1619  1  0.99654200  0.74203500  0.25991300  1
  H  1621  1  0.87395700  0.73817600  0.24202700  1
  H  1622  1  0.92359100  0.75105400  0.25365900  1
  H  1630  1  0.99764500  0.34191300  0.98549100  1
  H  1631  1  0.04752600  0.32971400  0.97334700  1
  H  1633  1  0.87628100  0.32164900  0.98059200  1
  H  1634  1  0.92664100  0.32948400  0.99554100  1
  H  1636  1  0.04665600  0.26189500  0.90011000  1
  H  1637  1  0.99621500  0.24948000  0.88887300  1
  H  1639  1  0.87576000  0.27100700  0.89468500  1
  H  1640  1  0.92570000  0.26315700  0.87946900  1
  H  1648  1  0.92664500  0.92640900  0.39874400  1
  H  1649  1  0.87649300  0.91118500  0.39101600  1
  H  1651  1  0.04808100  0.90511200  0.39806300  1
  H  1652  1  0.99819900  0.91706600  0.41042300  1
  H  1654  1  0.87652600  0.82571400  0.33978300  1
  H  1655  1  0.92652600  0.81063300  0.33188300  1
  H  1657  1  0.04748300  0.83135900  0.33086000  1
  H  1658  1  0.99712800  0.81995100  0.31849600  1
  H  1666  1  0.92392900  0.08631000  0.72954900  1
  H  1667  1  0.87393900  0.09834800  0.74178800  1
  H  1669  1  0.04509300  0.09098400  0.75006300  1
  H  1670  1  0.99473200  0.07600700  0.74227300  1
  H  1672  1  0.87456800  0.17139400  0.80972800  1
  H  1673  1  0.92500700  0.18266500  0.82213400  1
  H  1675  1  0.04546300  0.17702400  0.80063000  1
  H  1676  1  0.99545700  0.19218100  0.80841700  1
  H  1684  1  0.92645100  0.33036200  0.14546800  1
  H  1685  1  0.87640700  0.32244400  0.16067700  1
  H  1687  1  0.04810000  0.32926400  0.16651900  1
  H  1688  1  0.99828500  0.34151300  0.15437200  1
  H  1690  1  0.87651900  0.27059800  0.24570300  1
  H  1691  1  0.92645400  0.26281600  0.26089200  1
  H  1693  1  0.04773500  0.26264900  0.24064900  1
  H  1694  1  0.99754100  0.25013800  0.25208500  1
  H  1702  1  0.92455000  0.66094700  0.98549900  1
  H  1703  1  0.87466100  0.67314600  0.97336200  1
  H  1705  1  0.04591000  0.68120600  0.98057600  1
  H  1706  1  0.99556200  0.67337200  0.99553500  1
  H  1708  1  0.87549500  0.74096700  0.90012600  1
  H  1709  1  0.92593400  0.75338000  0.88887900  1
  H  1711  1  0.04638500  0.73184400  0.89466700  1
  H  1712  1  0.99643800  0.73969500  0.87946100  1
  H  1720  1  0.49585700  0.57681300  0.89941900  1
  H  1721  1  0.54582900  0.59213900  0.89159500  1
  H  1723  1  0.37393200  0.59736800  0.89765100  1
  H  1724  1  0.42370300  0.58534600  0.91005200  1
  H  1726  1  0.54566300  0.67702300  0.83963100  1
  H  1727  1  0.49571700  0.69211600  0.83168700  1
  H  1729  1  0.37459000  0.67162700  0.83108200  1
  H  1730  1  0.42487800  0.68308800  0.81870300  1
  H  1738  1  0.49801600  0.41655700  0.22955300  1
  H  1739  1  0.54803800  0.40455200  0.24178400  1
  H  1741  1  0.37686800  0.41180100  0.25007700  1
  H  1742  1  0.42719900  0.42680900  0.24227400  1
  H  1744  1  0.54757800  0.33150600  0.30973000  1
  H  1745  1  0.49716800  0.32021200  0.32215100  1
  H  1747  1  0.37668400  0.32578400  0.30067900  1
  H  1748  1  0.42672500  0.31065500  0.30845400  1
  H  1756  1  0.49706000  0.16280600  0.65304900  1
  H  1757  1  0.54643200  0.17534300  0.66535800  1
  H  1759  1  0.37392900  0.17836900  0.66221900  1
  H  1760  1  0.42356700  0.17037200  0.64677300  1
  H  1762  1  0.54610900  0.23460700  0.74419200  1
  H  1763  1  0.49667600  0.24266900  0.75961100  1
  H  1765  1  0.37379600  0.23778500  0.74227100  1
  H  1766  1  0.42330100  0.25060300  0.75410500  1
  H  1774  1  0.49757100  0.84191100  0.48553200  1
  H  1775  1  0.54747100  0.82971600  0.47340500  1
  H  1777  1  0.37621400  0.82164700  0.48057200  1
  H  1778  1  0.42655200  0.82948300  0.49554500  1
  H  1780  1  0.54670200  0.76190100  0.40016100  1
  H  1781  1  0.49627400  0.74948600  0.38890400  1
  H  1783  1  0.37581500  0.77101700  0.39465900  1
  H  1784  1  0.42577600  0.76317300  0.37946500  1
  H  1792  1  0.42584800  0.42551700  0.90035600  1
  H  1793  1  0.37611300  0.41012100  0.89229200  1
  H  1795  1  0.54839000  0.40598300  0.89711100  1
  H  1796  1  0.49877400  0.41820000  0.90945900  1
  H  1798  1  0.37647300  0.32596900  0.83945000  1
  H  1799  1  0.42636500  0.31085900  0.83147500  1
  H  1801  1  0.54767500  0.33107200  0.83135700  1
  H  1802  1  0.49747000  0.31956400  0.81895200  1
  H  1810  1  0.42401600  0.58631900  0.22954500  1
  H  1811  1  0.37400800  0.59834800  0.24177200  1
  H  1813  1  0.54516400  0.59100800  0.25008800  1
  H  1814  1  0.49481100  0.57602600  0.24228200  1
  H  1816  1  0.37455800  0.67138000  0.30973000  1
  H  1817  1  0.42498600  0.68265300  0.32215100  1
  H  1819  1  0.54545900  0.67703900  0.30066800  1
  H  1820  1  0.49543600  0.69218800  0.30844400  1
  H  1828  1  0.42500400  0.83977600  0.65273300  1
  H  1829  1  0.37568200  0.82732000  0.66516900  1
  H  1831  1  0.54829700  0.82469900  0.66240200  1
  H  1832  1  0.49873100  0.83283500  0.64697000  1
  H  1834  1  0.37608100  0.76846700  0.74431400  1
  H  1835  1  0.42555700  0.76052500  0.75976200  1
  H  1837  1  0.54829000  0.76487100  0.74214300  1
  H  1838  1  0.49871700  0.75201600  0.75386500  1
  H  1846  1  0.42458700  0.16094400  0.48552800  1
  H  1847  1  0.37469000  0.17313700  0.47339600  1
  H  1849  1  0.54594400  0.18121300  0.48057600  1
  H  1850  1  0.49560500  0.17337300  0.49554500  1
  H  1852  1  0.37546300  0.24094900  0.40015300  1
  H  1853  1  0.42589100  0.25336800  0.38890000  1
  H  1855  1  0.54635000  0.23184200  0.39466300  1
  H  1856  1  0.49639200  0.23968500  0.37946500  1
  C  1  1  0.12561400  0.11304000  0.32758600  1
  C  2  1  0.15923400  0.12623800  0.34470200  1
  C  3  1  0.14419200  0.14081600  0.36796600  1
  C  4  1  0.09482000  0.14187700  0.37423800  1
  C  5  1  0.06049400  0.12923200  0.35718400  1
  C  6  1  0.07545800  0.11456300  0.33350400  1
  C  9  1  0.14271300  0.10160900  0.30270100  1
  C  10  1  0.14751100  0.11768100  0.27858700  1
  C  11  1  0.15834400  0.10421700  0.25349200  1
  C  12  1  0.16407800  0.07557000  0.25281300  1
  C  13  1  0.15836600  0.05974000  0.27659300  1
  C  14  1  0.14792500  0.07297000  0.30141300  1
  C  23  1  0.12836400  0.89050800  0.81224900  1
  C  24  1  0.16178000  0.87692300  0.79529500  1
  C  25  1  0.14644700  0.86190700  0.77236700  1
  C  26  1  0.09699800  0.86064500  0.76635300  1
  C  27  1  0.06295200  0.87423200  0.78283700  1
  C  28  1  0.07819700  0.88931300  0.80620300  1
  C  31  1  0.14539800  0.90187900  0.83722000  1
  C  32  1  0.14987200  0.88569900  0.86129700  1
  C  33  1  0.15857000  0.89912900  0.88668600  1
  C  34  1  0.16197300  0.92788100  0.88771900  1
  C  35  1  0.15803800  0.94375900  0.86386800  1
  C  36  1  0.14997600  0.93055000  0.83873900  1
  C  45  1  0.12566200  0.74402500  0.18151300  1
  C  46  1  0.15921500  0.72699200  0.19489500  1
  C  47  1  0.14406800  0.70386300  0.20965700  1
  C  48  1  0.09467400  0.69768600  0.21077600  1
  C  49  1  0.06044100  0.71449200  0.19771800  1
  C  50  1  0.07550900  0.73804300  0.18288100  1
  C  53  1  0.14277800  0.76894400  0.17012300  1
  C  54  1  0.14755600  0.79303000  0.18625400  1
  C  55  1  0.15841900  0.81816100  0.17285700  1
  C  56  1  0.16421900  0.81889300  0.14420900  1
  C  57  1  0.15856100  0.79514400  0.12831700  1
  C  58  1  0.14809600  0.77029800  0.14149300  1
  C  67  1  0.12776000  0.25948100  0.95894100  1
  C  68  1  0.16104200  0.27651600  0.94535800  1
  C  69  1  0.14554400  0.29943900  0.93040500  1
  C  70  1  0.09606200  0.30537600  0.92921600  1
  C  71  1  0.06215100  0.28881600  0.94283400  1
  C  72  1  0.07757400  0.26546600  0.95788300  1
  C  75  1  0.14508900  0.23459000  0.97028700  1
  C  76  1  0.15071500  0.21063900  0.95403800  1
  C  77  1  0.16054800  0.18534700  0.96739900  1
  C  78  1  0.16427400  0.18431700  0.99613600  1
  C  79  1  0.15882900  0.20803600  0.01206900  1
  C  80  1  0.14943300  0.23304100  0.99895800  1
  C  89  1  0.79655800  0.88981700  0.32760200  1
  C  90  1  0.76293700  0.87661700  0.34471600  1
  C  91  1  0.77797900  0.86203500  0.36797600  1
  C  92  1  0.82735100  0.86097100  0.37424900  1
  C  93  1  0.86167700  0.87361800  0.35719600  1
  C  94  1  0.84671300  0.88829200  0.33351800  1
  C  97  1  0.77946000  0.90125300  0.30271900  1
  C  98  1  0.77465600  0.88518500  0.27860300  1
  C  99  1  0.76381700  0.89865400  0.25351200  1
  C  100  1  0.75808600  0.92730000  0.25283800  1
  C  101  1  0.76380600  0.94312500  0.27662000  1
  C  102  1  0.77425000  0.92989100  0.30143500  1
  C  111  1  0.79377700  0.11236000  0.81228400  1
  C  112  1  0.76035700  0.12594500  0.79533100  1
  C  113  1  0.77568400  0.14095600  0.77239700  1
  C  114  1  0.82512700  0.14221400  0.76637700  1
  C  115  1  0.85918000  0.12862700  0.78285700  1
  C  116  1  0.84394300  0.11355100  0.80622900  1
  C  119  1  0.77675400  0.10098800  0.83725600  1
  C  120  1  0.77228500  0.11716700  0.86133600  1
  C  121  1  0.76359800  0.10373800  0.88672600  1
  C  122  1  0.76019500  0.07498500  0.88775800  1
  C  123  1  0.76412600  0.05910500  0.86390700  1
  C  124  1  0.77217700  0.07231700  0.83877500  1
  C  133  1  0.79658300  0.25880400  0.18169700  1
  C  134  1  0.76298300  0.27591600  0.19493400  1
  C  135  1  0.77807600  0.29912900  0.20958500  1
  C  136  1  0.82745600  0.30536700  0.21066600  1
  C  137  1  0.86174900  0.28834300  0.19795900  1
  C  138  1  0.84674900  0.26470200  0.18323900  1
  C  141  1  0.77946000  0.23390900  0.17025700  1
  C  142  1  0.77463500  0.20980500  0.18634900  1
  C  143  1  0.76380600  0.18469500  0.17290500  1
  C  144  1  0.75805400  0.18400400  0.14425300  1
  C  145  1  0.76375900  0.20777300  0.12839500  1
  C  146  1  0.77423600  0.23259700  0.14161700  1
  C  155  1  0.79442000  0.74337200  0.95897500  1
  C  156  1  0.76112900  0.72634200  0.94539400  1
  C  157  1  0.77661800  0.70341800  0.93043300  1
  C  158  1  0.82610100  0.69748400  0.92923700  1
  C  159  1  0.86002000  0.71404100  0.94285000  1
  C  160  1  0.84460400  0.73739100  0.95790300  1
  C  163  1  0.77710300  0.76826500  0.97033400  1
  C  164  1  0.77147700  0.79222200  0.95409100  1
  C  165  1  0.76166800  0.81751300  0.96746000  1
  C  166  1  0.75797100  0.81853600  0.99620200  1
  C  167  1  0.76342200  0.79481100  0.01212900  1
  C  168  1  0.77278800  0.76980800  0.99900500  1
  C  177  1  0.79648200  0.88977400  0.81278800  1
  C  178  1  0.76302600  0.87668000  0.79549400  1
  C  179  1  0.77829200  0.86224700  0.77218700  1
  C  180  1  0.82771400  0.86123600  0.76604100  1
  C  181  1  0.86187800  0.87377500  0.78327100  1
  C  182  1  0.84669800  0.88827800  0.80700800  1
  C  185  1  0.77914400  0.90111300  0.83766600  1
  C  186  1  0.77436900  0.88499000  0.86174800  1
  C  187  1  0.76357600  0.89839900  0.88687500  1
  C  188  1  0.75812900  0.92706000  0.88764000  1
  C  189  1  0.76346800  0.94293400  0.86385200  1
  C  190  1  0.77369000  0.92973600  0.83898500  1
  C  199  1  0.79386300  0.11250100  0.32808700  1
  C  200  1  0.76053300  0.12594200  0.34520300  1
  C  201  1  0.77599600  0.14080600  0.36820000  1
  C  202  1  0.82546900  0.14203800  0.37414700  1
  C  203  1  0.85944900  0.12860600  0.35749800  1
  C  204  1  0.84407200  0.11372000  0.33403200  1
  C  207  1  0.77663600  0.10116500  0.30313900  1
  C  208  1  0.77214100  0.11735000  0.27906800  1
  C  209  1  0.76345700  0.10392500  0.25367500  1
  C  210  1  0.76036100  0.07516200  0.25262400  1
  C  211  1  0.76396800  0.05927800  0.27649700  1
  C  212  1  0.77186100  0.07250300  0.30163700  1
  C  221  1  0.79588600  0.25871100  0.95886100  1
  C  222  1  0.76227900  0.27594700  0.94580000  1
  C  223  1  0.77740500  0.29921700  0.93124500  1
  C  224  1  0.82679100  0.30543700  0.93015000  1
  C  225  1  0.86108800  0.28828000  0.94265700  1
  C  226  1  0.84608100  0.26452100  0.95717700  1
  C  229  1  0.77879100  0.23377300  0.97023400  1
  C  230  1  0.77506600  0.20958700  0.95417500  1
  C  231  1  0.76540100  0.18434800  0.96765100  1
  C  232  1  0.76027100  0.18356000  0.99633400  1
  C  233  1  0.76423000  0.20746900  0.01215100  1
  C  234  1  0.77306800  0.23247200  0.99885200  1
  C  243  1  0.79399200  0.74356400  0.18151200  1
  C  244  1  0.76053700  0.72635400  0.19472400  1
  C  245  1  0.77586300  0.70326100  0.20948300  1
  C  246  1  0.82531100  0.69722900  0.21071900  1
  C  247  1  0.85942400  0.71412700  0.19770800  1
  C  248  1  0.84420500  0.73771500  0.18297200  1
  C  251  1  0.77681200  0.76847900  0.17012700  1
  C  252  1  0.77219200  0.79255300  0.18629000  1
  C  253  1  0.76365100  0.81793300  0.17282100  1
  C  254  1  0.76072700  0.81897300  0.14405700  1
  C  255  1  0.76442000  0.79508500  0.12821100  1
  C  256  1  0.77217400  0.76994900  0.14146000  1
  C  265  1  0.12565900  0.11307800  0.81275500  1
  C  266  1  0.15911200  0.12616800  0.79545400  1
  C  267  1  0.14383600  0.14060300  0.77215300  1
  C  268  1  0.09441200  0.14161900  0.76601300  1
  C  269  1  0.06025400  0.12908200  0.78324900  1
  C  270  1  0.07544300  0.11457900  0.80698400  1
  C  273  1  0.14301100  0.10174100  0.83762700  1
  C  274  1  0.14779500  0.11786600  0.86170900  1
  C  275  1  0.15860300  0.10445500  0.88683200  1
  C  276  1  0.16405000  0.07579500  0.88759900  1
  C  277  1  0.15870100  0.05992300  0.86381100  1
  C  278  1  0.14846600  0.07311700  0.83894600  1
  C  287  1  0.12829900  0.89035500  0.32807100  1
  C  288  1  0.16163300  0.87691100  0.34518300  1
  C  289  1  0.14617500  0.86205200  0.36818400  1
  C  290  1  0.09670600  0.86082200  0.37413400  1
  C  291  1  0.06272100  0.87425200  0.35748700  1
  C  292  1  0.07809100  0.88913800  0.33401900  1
  C  295  1  0.14552100  0.90169000  0.30311900  1
  C  296  1  0.15000800  0.88550500  0.27904500  1
  C  297  1  0.15870800  0.89892900  0.25365500  1
  C  298  1  0.16181900  0.92769300  0.25260500  1
  C  299  1  0.15820600  0.94357800  0.27647900  1
  C  300  1  0.15030600  0.93035200  0.30161600  1
  C  309  1  0.12629000  0.74415300  0.95882700  1
  C  310  1  0.15989200  0.72691500  0.94576300  1
  C  311  1  0.14476000  0.70364300  0.93121600  1
  C  312  1  0.09537500  0.69742100  0.93013000  1
  C  313  1  0.06108000  0.71457900  0.94264000  1
  C  314  1  0.07609500  0.73833900  0.95715300  1
  C  317  1  0.14339000  0.76909100  0.97019000  1
  C  318  1  0.14710700  0.79327400  0.95412200  1
  C  319  1  0.15679200  0.81851400  0.96759000  1
  C  320  1  0.16195400  0.81930900  0.99627100  1
  C  321  1  0.15800600  0.79540500  0.01209000  1
  C  322  1  0.14914900  0.77039800  0.99880300  1
  C  331  1  0.12820700  0.25935500  0.18132200  1
  C  332  1  0.16163300  0.27646500  0.19468900  1
  C  333  1  0.14627800  0.29948000  0.20955700  1
  C  334  1  0.09682600  0.30548200  0.21081700  1
  C  335  1  0.06275800  0.28883300  0.19744800  1
  C  336  1  0.07802100  0.26532600  0.18259600  1
  C  339  1  0.14535100  0.23440300  0.16999100  1
  C  340  1  0.14992000  0.21035000  0.18619600  1
  C  341  1  0.15851900  0.18494700  0.17277700  1
  C  342  1  0.16150800  0.18386200  0.14401800  1
  C  343  1  0.15785300  0.20772600  0.12813300  1
  C  344  1  0.15009100  0.23288400  0.14133300  1
  C  353  1  0.62554900  0.61297700  0.82764500  1
  C  354  1  0.65918800  0.62621200  0.84472200  1
  C  355  1  0.64416300  0.64083800  0.86795700  1
  C  356  1  0.59479800  0.64192100  0.87424200  1
  C  357  1  0.56045900  0.62922300  0.85723900  1
  C  358  1  0.57540100  0.61449600  0.83358700  1
  C  361  1  0.64261800  0.60154300  0.80275200  1
  C  362  1  0.64743200  0.61762100  0.77864200  1
  C  363  1  0.65831100  0.60416400  0.75354900  1
  C  364  1  0.66405600  0.57551900  0.75286400  1
  C  365  1  0.65832600  0.55968300  0.77664000  1
  C  366  1  0.64785300  0.57290500  0.80145700  1
  C  375  1  0.62830400  0.39055700  0.31223900  1
  C  376  1  0.66171700  0.37699500  0.29526400  1
  C  377  1  0.64637600  0.36198700  0.27233200  1
  C  378  1  0.59692200  0.36070600  0.26633700  1
  C  379  1  0.56288000  0.37427100  0.28283900  1
  C  380  1  0.57813100  0.38934600  0.30620900  1
  C  383  1  0.64534900  0.40192000  0.33721000  1
  C  384  1  0.64983600  0.38573400  0.36128300  1
  C  385  1  0.65855200  0.39915400  0.38667400  1
  C  386  1  0.66196200  0.42790600  0.38771300  1
  C  387  1  0.65801700  0.44379200  0.36386800  1
  C  388  1  0.64993700  0.43059100  0.33873500  1
  C  397  1  0.62564200  0.24397800  0.68146300  1
  C  398  1  0.65918100  0.22696200  0.69487500  1
  C  399  1  0.64401900  0.20385200  0.70966200  1
  C  400  1  0.59462200  0.19768800  0.71079400  1
  C  401  1  0.56040500  0.21446600  0.69768400  1
  C  402  1  0.57548700  0.23799300  0.68281500  1
  C  405  1  0.64276200  0.26889900  0.67007800  1
  C  406  1  0.64753300  0.29298300  0.68621300  1
  C  407  1  0.65842600  0.31811300  0.67282100  1
  C  408  1  0.66425400  0.31884600  0.64417500  1
  C  409  1  0.65859200  0.29510100  0.62828100  1
  C  410  1  0.64810800  0.27025300  0.64145000  1
  C  419  1  0.62774400  0.75949500  0.45901000  1
  C  420  1  0.66103500  0.77653000  0.44543300  1
  C  421  1  0.64554600  0.79945700  0.43047800  1
  C  422  1  0.59606300  0.80539200  0.42928200  1
  C  423  1  0.56214400  0.78882800  0.44288700  1
  C  424  1  0.57755700  0.76547600  0.45793800  1
  C  427  1  0.64506100  0.73460200  0.47036500  1
  C  428  1  0.65068700  0.71064900  0.45411800  1
  C  429  1  0.66049200  0.68535500  0.46748000  1
  C  430  1  0.66418200  0.68432300  0.49622200  1
  C  431  1  0.65872800  0.70804400  0.51215600  1
  C  432  1  0.64936500  0.73305100  0.49903800  1
  C  441  1  0.29666600  0.38990500  0.82766300  1
  C  442  1  0.26301500  0.37664800  0.84471600  1
  C  443  1  0.27802300  0.36200300  0.86794100  1
  C  444  1  0.32737900  0.36090800  0.87423600  1
  C  445  1  0.36173500  0.37365100  0.85727500  1
  C  446  1  0.34680600  0.38840600  0.83363800  1
  C  449  1  0.27961500  0.40132900  0.80276200  1
  C  450  1  0.27479400  0.38524100  0.77865800  1
  C  451  1  0.26386500  0.39868300  0.75356500  1
  C  452  1  0.25808100  0.42732500  0.75287200  1
  C  453  1  0.26381400  0.44317100  0.77664000  1
  C  454  1  0.27433000  0.42996300  0.80145900  1
  C  463  1  0.29379400  0.61232500  0.31224600  1
  C  464  1  0.26037800  0.62591000  0.29529300  1
  C  465  1  0.27571400  0.64093600  0.27236900  1
  C  466  1  0.32516300  0.64220600  0.26636100  1
  C  467  1  0.35920900  0.62861700  0.28284300  1
  C  468  1  0.34396300  0.61353000  0.30620500  1
  C  471  1  0.27676100  0.60095000  0.33721600  1
  C  472  1  0.27228700  0.61713000  0.36129300  1
  C  473  1  0.26358800  0.60370000  0.38668200  1
  C  474  1  0.26018300  0.57494800  0.38771300  1
  C  475  1  0.26411800  0.55906900  0.36386200  1
  C  476  1  0.27218200  0.57227900  0.33873300  1
  C  485  1  0.29651700  0.75886900  0.68147500  1
  C  486  1  0.26297400  0.77589400  0.69487300  1
  C  487  1  0.27813000  0.79901100  0.70964800  1
  C  488  1  0.32752800  0.80518000  0.71077600  1
  C  489  1  0.36175300  0.78838800  0.69769000  1
  C  490  1  0.34667200  0.76485100  0.68283700  1
  C  493  1  0.27939500  0.73395000  0.67008800  1
  C  494  1  0.27461300  0.70986600  0.68621900  1
  C  495  1  0.26373500  0.68473700  0.67282600  1
  C  496  1  0.25792600  0.68400300  0.64418000  1
  C  497  1  0.26359000  0.70775000  0.62828500  1
  C  498  1  0.27406600  0.73259600  0.64145800  1
  C  507  1  0.29442100  0.24336000  0.45900600  1
  C  508  1  0.26113000  0.22632800  0.44542700  1
  C  509  1  0.27661400  0.20339900  0.43047200  1
  C  510  1  0.32609700  0.19746400  0.42927600  1
  C  511  1  0.36001800  0.21402500  0.44288100  1
  C  512  1  0.34460600  0.23737700  0.45793400  1
  C  515  1  0.27710700  0.26825300  0.47036300  1
  C  516  1  0.27148000  0.29220800  0.45411600  1
  C  517  1  0.26168300  0.31750300  0.46748500  1
  C  518  1  0.25799900  0.31853000  0.49622400  1
  C  519  1  0.26345000  0.29481000  0.51215600  1
  C  520  1  0.27280700  0.26980300  0.49903600  1
  C  529  1  0.29641000  0.38971900  0.31280600  1
  C  530  1  0.26295500  0.37659500  0.29553300  1
  C  531  1  0.27823500  0.36213500  0.27224900  1
  C  532  1  0.32764900  0.36114100  0.26608400  1
  C  533  1  0.36180700  0.37371700  0.28329200  1
  C  534  1  0.34662200  0.38823700  0.30701900  1
  C  537  1  0.27907300  0.40107000  0.33767900  1
  C  538  1  0.27431500  0.38495500  0.36176800  1
  C  539  1  0.26353300  0.39837700  0.38689200  1
  C  540  1  0.25808800  0.42703700  0.38764400  1
  C  541  1  0.26341700  0.44290100  0.36384800  1
  C  542  1  0.27362100  0.42969400  0.33898700  1
  C  551  1  0.29381500  0.61255300  0.82803000  1
  C  552  1  0.26049600  0.62597300  0.84517000  1
  C  553  1  0.27597500  0.64079800  0.86819000  1
  C  554  1  0.32544700  0.64199800  0.87413800  1
  C  555  1  0.35941800  0.62860100  0.85745500  1
  C  556  1  0.34403000  0.61376600  0.83396000  1
  C  559  1  0.27656400  0.60122100  0.80308600  1
  C  560  1  0.27208000  0.61740100  0.77901000  1
  C  561  1  0.26339700  0.60397300  0.75362200  1
  C  562  1  0.26029200  0.57520900  0.75257600  1
  C  563  1  0.26389600  0.55932800  0.77645200  1
  C  564  1  0.27178700  0.57255900  0.80158800  1
  C  573  1  0.29586300  0.75869400  0.45879400  1
  C  574  1  0.26226800  0.77593000  0.44572700  1
  C  575  1  0.27740900  0.79920900  0.43119000  1
  C  576  1  0.32679400  0.80543400  0.43011800  1
  C  577  1  0.36108100  0.78827400  0.44263200  1
  C  578  1  0.34605900  0.76450800  0.45713700  1
  C  581  1  0.27875600  0.73375600  0.47015700  1
  C  582  1  0.27503800  0.70957300  0.45409300  1
  C  583  1  0.26535000  0.68433500  0.46756600  1
  C  584  1  0.26018400  0.68354400  0.49624500  1
  C  585  1  0.26412900  0.70745300  0.51206200  1
  C  586  1  0.27299100  0.73245600  0.49877000  1
  C  595  1  0.29394300  0.24359500  0.68154700  1
  C  596  1  0.26048500  0.22635900  0.69472200  1
  C  597  1  0.27581100  0.20324100  0.70944200  1
  C  598  1  0.32525900  0.19720600  0.71066500  1
  C  599  1  0.35937800  0.21415200  0.69772500  1
  C  600  1  0.34415900  0.23776600  0.68303100  1
  C  603  1  0.27675000  0.26850800  0.67016300  1
  C  604  1  0.27212600  0.29258100  0.68632500  1
  C  605  1  0.26362000  0.31796400  0.67285200  1
  C  606  1  0.26072000  0.31900300  0.64408600  1
  C  607  1  0.26441100  0.29511300  0.62824200  1
  C  608  1  0.27214200  0.26998000  0.64149500  1
  C  617  1  0.62569300  0.61311400  0.31279200  1
  C  618  1  0.65914500  0.62621000  0.29549500  1
  C  619  1  0.64385800  0.64064700  0.27219600  1
  C  620  1  0.59443900  0.64165400  0.26605000  1
  C  621  1  0.56028600  0.62910400  0.28328000  1
  C  622  1  0.57547600  0.61460400  0.30701500  1
  C  625  1  0.64304200  0.60177700  0.33766600  1
  C  626  1  0.64781300  0.61789800  0.36175000  1
  C  627  1  0.65861300  0.60448900  0.38687500  1
  C  628  1  0.66406300  0.57582600  0.38763800  1
  C  629  1  0.65872500  0.55995600  0.36384800  1
  C  630  1  0.64849900  0.57315400  0.33898300  1
  C  639  1  0.62838400  0.39027800  0.82801200  1
  C  640  1  0.66169200  0.37687600  0.84517200  1
  C  641  1  0.64620400  0.36207200  0.86820200  1
  C  642  1  0.59672800  0.36089200  0.87415000  1
  C  643  1  0.56276500  0.37425300  0.85743000  1
  C  644  1  0.57816400  0.38905300  0.83391700  1
  C  647  1  0.64565000  0.40161800  0.80307600  1
  C  648  1  0.65013800  0.38544400  0.77899800  1
  C  649  1  0.65877500  0.39888300  0.75360800  1
  C  650  1  0.66184300  0.42764900  0.75256800  1
  C  651  1  0.65823900  0.44352300  0.77645000  1
  C  652  1  0.65038600  0.43028300  0.80158400  1
  C  661  1  0.62629600  0.24416300  0.45879600  1
  C  662  1  0.65989200  0.22692500  0.44573100  1
  C  663  1  0.64475200  0.20364800  0.43119600  1
  C  664  1  0.59536600  0.19742300  0.43012200  1
  C  665  1  0.56108000  0.21458400  0.44263400  1
  C  666  1  0.57610100  0.23834900  0.45713900  1
  C  669  1  0.64340500  0.26910100  0.47015700  1
  C  670  1  0.64712300  0.29328300  0.45409100  1
  C  671  1  0.65681700  0.31852200  0.46756200  1
  C  672  1  0.66199000  0.31931500  0.49624100  1
  C  673  1  0.65804900  0.29540700  0.51205800  1
  C  674  1  0.64917800  0.27040200  0.49876800  1
  C  683  1  0.62821100  0.75926900  0.68154200  1
  C  684  1  0.66166700  0.77649300  0.69473800  1
  C  685  1  0.64633700  0.79960400  0.70946900  1
  C  686  1  0.59688900  0.80564000  0.71068800  1
  C  687  1  0.56277600  0.78871600  0.69771400  1
  C  688  1  0.57799800  0.76510900  0.68300800  1
  C  691  1  0.64539900  0.73435400  0.67015900  1
  C  692  1  0.65001900  0.71028000  0.68632300  1
  C  693  1  0.65853800  0.68489800  0.67285200  1
  C  694  1  0.66145100  0.68385600  0.64408800  1
  C  695  1  0.65776200  0.70774600  0.62824200  1
  C  696  1  0.65002300  0.73288200  0.64149300  1
  C  705  1  0.15876600  0.03057500  0.27526600  1
  C  706  1  0.20301500  0.01616100  0.27842600  1
  C  707  1  0.20321000  0.98704400  0.27638900  1
  C  708  1  0.15852800  0.97275600  0.27502700  1
  C  709  1  0.11401300  0.98718900  0.27316600  1
  C  710  1  0.11447600  0.01631100  0.27147000  1
  C  723  1  0.15861600  0.97294000  0.86536800  1
  C  724  1  0.20326300  0.98714200  0.86280200  1
  C  725  1  0.20355600  0.01634800  0.86333600  1
  C  726  1  0.15900000  0.03073500  0.86514600  1
  C  727  1  0.11448400  0.01653300  0.86842800  1
  C  728  1  0.11413900  0.98736000  0.86773100  1
  C  741  1  0.15892300  0.79652600  0.09913800  1
  C  742  1  0.20311400  0.79333100  0.08466600  1
  C  743  1  0.20322200  0.79535400  0.05554000  1
  C  744  1  0.15851300  0.79676000  0.04128700  1
  C  745  1  0.11404700  0.79865200  0.05577900  1
  C  746  1  0.11460800  0.80034600  0.08490400  1
  C  759  1  0.15896400  0.20653800  0.04120600  1
  C  760  1  0.20315100  0.20961800  0.05570200  1
  C  761  1  0.20313000  0.20757900  0.08481100  1
  C  762  1  0.15833200  0.20626200  0.09897700  1
  C  763  1  0.11389500  0.20443600  0.08446100  1
  C  764  1  0.11455400  0.20276000  0.05534300  1
  C  777  1  0.76341100  0.97228700  0.27529200  1
  C  778  1  0.71915900  0.98670000  0.27844600  1
  C  779  1  0.71896500  0.01581700  0.27640300  1
  C  780  1  0.76364800  0.03010200  0.27504400  1
  C  781  1  0.80816600  0.01567100  0.27318500  1
  C  782  1  0.80770300  0.98654900  0.27149500  1
  C  795  1  0.76355100  0.02992300  0.86540300  1
  C  796  1  0.71890700  0.01571800  0.86283200  1
  C  797  1  0.71861600  0.98651000  0.86337300  1
  C  798  1  0.76317000  0.97212400  0.86518300  1
  C  799  1  0.80768500  0.98632700  0.86845900  1
  C  800  1  0.80802900  0.01550200  0.86776400  1
  C  813  1  0.76339600  0.20642300  0.09921100  1
  C  814  1  0.71919100  0.20959700  0.08474600  1
  C  815  1  0.71905800  0.20754700  0.05562000  1
  C  816  1  0.76375200  0.20612800  0.04135200  1
  C  817  1  0.80823100  0.20425800  0.05583700  1
  C  818  1  0.80769500  0.20259500  0.08496500  1
  C  831  1  0.76329200  0.79629300  0.04127000  1
  C  832  1  0.71910800  0.79321500  0.05577000  1
  C  833  1  0.71914100  0.79522700  0.08488200  1
  C  834  1  0.76394300  0.79650500  0.09904900  1
  C  835  1  0.80837800  0.79831600  0.08452800  1
  C  836  1  0.80771000  0.80003200  0.05541100  1
  C  849  1  0.65874200  0.53051900  0.77529800  1
  C  850  1  0.70300500  0.51611300  0.77843800  1
  C  851  1  0.70321700  0.48699600  0.77637700  1
  C  852  1  0.65854100  0.47270100  0.77501500  1
  C  853  1  0.61401600  0.48712600  0.77318000  1
  C  854  1  0.61446200  0.51624900  0.77150000  1
  C  867  1  0.65861000  0.47297200  0.36537700  1
  C  868  1  0.70326400  0.48716900  0.36281600  1
  C  869  1  0.70356600  0.51637600  0.36335700  1
  C  870  1  0.65901600  0.53076800  0.36517700  1
  C  871  1  0.61449400  0.51656900  0.36845500  1
  C  872  1  0.61413800  0.48739500  0.36774400  1
  C  885  1  0.65895800  0.29649100  0.59910300  1
  C  886  1  0.70314900  0.29330500  0.58463300  1
  C  887  1  0.70326400  0.29534200  0.55550800  1
  C  888  1  0.65855200  0.29675600  0.54125400  1
  C  889  1  0.61408400  0.29864400  0.55574600  1
  C  890  1  0.61464500  0.30032400  0.58487100  1
  C  903  1  0.65886500  0.70655400  0.54129700  1
  C  904  1  0.70305200  0.70962400  0.55579500  1
  C  905  1  0.70302700  0.70760400  0.58490600  1
  C  906  1  0.65822900  0.70632500  0.59907800  1
  C  907  1  0.61379000  0.70452500  0.58456000  1
  C  908  1  0.61445100  0.70281500  0.55544100  1
  C  921  1  0.26338600  0.47233400  0.77528600  1
  C  922  1  0.21912500  0.48673900  0.77843200  1
  C  923  1  0.21891300  0.51585600  0.77637500  1
  C  924  1  0.26358700  0.53015000  0.77500900  1
  C  925  1  0.30811100  0.51572500  0.77315600  1
  C  926  1  0.30766500  0.48660400  0.77147400  1
  C  939  1  0.26353200  0.52988700  0.36536500  1
  C  940  1  0.21888000  0.51569100  0.36280600  1
  C  941  1  0.21857800  0.48648200  0.36335000  1
  C  942  1  0.26312800  0.47209000  0.36516700  1
  C  943  1  0.30764900  0.48629000  0.36843900  1
  C  944  1  0.30800500  0.51546400  0.36772900  1
  C  957  1  0.26322400  0.70636400  0.59910700  1
  C  958  1  0.21903100  0.70955000  0.58463700  1
  C  959  1  0.21891800  0.70751600  0.55551200  1
  C  960  1  0.26362600  0.70610300  0.54125800  1
  C  961  1  0.30809400  0.70421700  0.55574800  1
  C  962  1  0.30753700  0.70253600  0.58487400  1
  C  975  1  0.26331600  0.29629800  0.54129700  1
  C  976  1  0.21912600  0.29323400  0.55579500  1
  C  977  1  0.21914900  0.29525800  0.58490600  1
  C  978  1  0.26394800  0.29653000  0.59907800  1
  C  979  1  0.30838700  0.29832200  0.58456200  1
  C  980  1  0.30773000  0.30003000  0.55544300  1
  C  993  1  0.24326000  0.18765600  0.41485500  1
  C  994  1  0.22547100  0.16251700  0.42553100  1
  C  995  1  0.19571600  0.14568300  0.40872700  1
  C  996  1  0.17780900  0.15635700  0.38361800  1
  C  997  1  0.19234400  0.18261600  0.37407300  1
  C  998  1  0.22878400  0.19715300  0.38857600  1
  C  1011  1  0.24463000  0.81471200  0.72522700  1
  C  1012  1  0.22694800  0.83988800  0.71458800  1
  C  1013  1  0.19751900  0.85682500  0.73147500  1
  C  1014  1  0.17983700  0.84624900  0.75668200  1
  C  1015  1  0.19411300  0.81992900  0.76617200  1
  C  1016  1  0.23024300  0.80526300  0.75154300  1
  C  1029  1  0.24232500  0.65660300  0.25669000  1
  C  1030  1  0.22460100  0.64602000  0.23149600  1
  C  1031  1  0.19520000  0.66296300  0.21459800  1
  C  1032  1  0.17757500  0.68816000  0.22522700  1
  C  1033  1  0.19200700  0.69762100  0.25153300  1
  C  1034  1  0.22810300  0.68293500  0.26616600  1
  C  1047  1  0.24437700  0.34646300  0.88357100  1
  C  1048  1  0.22654000  0.35711900  0.90870200  1
  C  1049  1  0.19673700  0.34030000  0.92549200  1
  C  1050  1  0.17890000  0.31518300  0.91479300  1
  C  1051  1  0.19335100  0.30569400  0.88850800  1
  C  1052  1  0.22978500  0.32022400  0.87399600  1
  C  1065  1  0.67890200  0.81519900  0.41486100  1
  C  1066  1  0.69669300  0.84033900  0.42553900  1
  C  1067  1  0.72644800  0.85717100  0.40873500  1
  C  1068  1  0.74435800  0.84649700  0.38362600  1
  C  1069  1  0.72982200  0.82023600  0.37407900  1
  C  1070  1  0.69337700  0.80570100  0.38858400  1
  C  1083  1  0.67751800  0.18815400  0.72524500  1
  C  1084  1  0.69519800  0.16297400  0.71461200  1
  C  1085  1  0.72461600  0.14603800  0.73150400  1
  C  1086  1  0.74228900  0.15661400  0.75671300  1
  C  1087  1  0.72801800  0.18293700  0.76619600  1
  C  1088  1  0.69190000  0.19760500  0.75156300  1
  C  1101  1  0.67976000  0.34633900  0.25663300  1
  C  1102  1  0.69745800  0.35693300  0.23143900  1
  C  1103  1  0.72686900  0.34000700  0.21453100  1
  C  1104  1  0.74454200  0.31482000  0.22515200  1
  C  1105  1  0.73013100  0.30534500  0.25145700  1
  C  1106  1  0.69401300  0.32000600  0.26609600  1
  C  1119  1  0.67779500  0.65638200  0.88359300  1
  C  1120  1  0.69564000  0.64572900  0.90872700  1
  C  1121  1  0.72543200  0.66255100  0.92551800  1
  C  1122  1  0.74325900  0.68767400  0.91482400  1
  C  1123  1  0.72880500  0.69716200  0.88853700  1
  C  1124  1  0.69238200  0.68262500  0.87402200  1
  C  1137  1  0.67973900  0.81533000  0.72506200  1
  C  1138  1  0.69748300  0.84049400  0.71442900  1
  C  1139  1  0.72708800  0.85735100  0.73129400  1
  C  1140  1  0.74488300  0.84668300  0.75643100  1
  C  1141  1  0.73045100  0.82038500  0.76592100  1
  C  1142  1  0.69411300  0.80583200  0.75136100  1
  C  1155  1  0.67820100  0.18795600  0.41559100  1
  C  1156  1  0.69591000  0.16276500  0.42617300  1
  C  1157  1  0.72520500  0.14583600  0.40920800  1
  C  1158  1  0.74273400  0.15644000  0.38397900  1
  C  1159  1  0.72847100  0.18278100  0.37455000  1
  C  1160  1  0.69241400  0.19742500  0.38924800  1
  C  1173  1  0.67944000  0.34643200  0.88400100  1
  C  1174  1  0.69701300  0.35704900  0.90921400  1
  C  1175  1  0.72629000  0.34012300  0.92619700  1
  C  1176  1  0.74394200  0.31490600  0.91563700  1
  C  1177  1  0.72968200  0.30541600  0.88930900  1
  C  1178  1  0.69366100  0.32007400  0.87460100  1
  C  1191  1  0.67726300  0.65621500  0.25643600  1
  C  1192  1  0.69500100  0.64555600  0.23128200  1
  C  1193  1  0.72465900  0.66239200  0.21442700  1
  C  1194  1  0.74244300  0.68754200  0.22507200  1
  C  1195  1  0.72808700  0.69704000  0.25137400  1
  C  1196  1  0.69174900  0.68249600  0.26594100  1
  C  1209  1  0.24240600  0.18751500  0.72503300  1
  C  1210  1  0.22466100  0.16235200  0.71439800  1
  C  1211  1  0.19504400  0.14549800  0.73125900  1
  C  1212  1  0.17724500  0.15616900  0.75639500  1
  C  1213  1  0.19168200  0.18246200  0.76588600  1
  C  1214  1  0.22802800  0.19701400  0.75133100  1
  C  1227  1  0.24396100  0.81489900  0.41558300  1
  C  1228  1  0.22625500  0.84009200  0.42616300  1
  C  1229  1  0.19696200  0.85702000  0.40919600  1
  C  1230  1  0.17944000  0.84641800  0.38396400  1
  C  1231  1  0.19370200  0.82007500  0.37453800  1
  C  1232  1  0.22975100  0.80543000  0.38923800  1
  C  1245  1  0.24272800  0.65643300  0.88398000  1
  C  1246  1  0.22515900  0.64581700  0.90919300  1
  C  1247  1  0.19587800  0.66274100  0.92617300  1
  C  1248  1  0.17822000  0.68795400  0.91561100  1
  C  1249  1  0.19247800  0.69744500  0.88928300  1
  C  1250  1  0.22850700  0.68279000  0.87457700  1
  C  1263  1  0.24483100  0.34655300  0.25650300  1
  C  1264  1  0.22708000  0.35720200  0.23134900  1
  C  1265  1  0.19743400  0.34035300  0.21450000  1
  C  1266  1  0.17968000  0.31519700  0.22515400  1
  C  1267  1  0.19404100  0.30571000  0.25145500  1
  C  1268  1  0.23036100  0.32027100  0.26601900  1
  C  1281  1  0.15983400  0.15976100  0.18762000  1
  C  1282  1  0.20471300  0.15053200  0.19827700  1
  C  1283  1  0.20480500  0.13118900  0.22009000  1
  C  1284  1  0.16052800  0.11895800  0.22826700  1
  C  1285  1  0.11649000  0.12533800  0.21473100  1
  C  1286  1  0.11561400  0.14719700  0.19546700  1
  C  1299  1  0.15919400  0.84368400  0.95275800  1
  C  1300  1  0.20370500  0.85173800  0.94070200  1
  C  1301  1  0.20406300  0.87355100  0.92135800  1
  C  1302  1  0.15940200  0.88431300  0.91190900  1
  C  1303  1  0.11495300  0.87656600  0.92429300  1
  C  1304  1  0.11534300  0.85729200  0.94615700  1
  C  1317  1  0.15995900  0.88408000  0.22845200  1
  C  1318  1  0.20480800  0.87336600  0.21922200  1
  C  1319  1  0.20485600  0.85155100  0.19987100  1
  C  1320  1  0.16055000  0.84337200  0.18766500  1
  C  1321  1  0.11652900  0.85691400  0.19407500  1
  C  1322  1  0.11573600  0.87626400  0.21586600  1
  C  1335  1  0.16128500  0.11927600  0.91199700  1
  C  1336  1  0.20577600  0.13145600  0.91989000  1
  C  1337  1  0.20619600  0.15084900  0.94166200  1
  C  1338  1  0.16156500  0.16011700  0.95260500  1
  C  1339  1  0.11714400  0.14758100  0.94505600  1
  C  1340  1  0.11753500  0.12571200  0.92580000  1
  C  1353  1  0.76232900  0.84313600  0.18762600  1
  C  1354  1  0.71744800  0.85236200  0.19828100  1
  C  1355  1  0.71735500  0.87169800  0.22010000  1
  C  1356  1  0.76163600  0.88392100  0.22828300  1
  C  1357  1  0.80567600  0.87754700  0.21474700  1
  C  1358  1  0.80655300  0.85569300  0.19548000  1
  C  1371  1  0.76299000  0.15917400  0.95281700  1
  C  1372  1  0.71848000  0.15112600  0.94075900  1
  C  1373  1  0.71811700  0.12931900  0.92140500  1
  C  1374  1  0.76277100  0.11855700  0.91195000  1
  C  1375  1  0.80722100  0.12630200  0.92433400  1
  C  1376  1  0.80683700  0.14556900  0.94620600  1
  C  1389  1  0.76221800  0.11877000  0.22847300  1
  C  1390  1  0.71737300  0.12948000  0.21923200  1
  C  1391  1  0.71733700  0.15130000  0.19988800  1
  C  1392  1  0.76164300  0.15946800  0.18767900  1
  C  1393  1  0.80565800  0.14591900  0.19408700  1
  C  1394  1  0.80644900  0.12658700  0.21589500  1
  C  1407  1  0.76090300  0.88357700  0.91204100  1
  C  1408  1  0.71642100  0.87139400  0.91994100  1
  C  1409  1  0.71600800  0.85200800  0.94171900  1
  C  1410  1  0.76064400  0.84274400  0.95266400  1
  C  1411  1  0.80505800  0.85527900  0.94510500  1
  C  1412  1  0.80465900  0.87714300  0.92584000  1
  C  1425  1  0.65984200  0.65969300  0.68765800  1
  C  1426  1  0.70471600  0.65045800  0.69832000  1
  C  1427  1  0.70478700  0.63112900  0.72014500  1
  C  1428  1  0.66049900  0.61891100  0.72833200  1
  C  1429  1  0.61648100  0.62528200  0.71476900  1
  C  1430  1  0.61561500  0.64714000  0.69550500  1
  C  1443  1  0.65921000  0.34369500  0.45273100  1
  C  1444  1  0.70371300  0.35175300  0.44067500  1
  C  1445  1  0.70406200  0.37357000  0.42133300  1
  C  1446  1  0.65939600  0.38433100  0.41189100  1
  C  1447  1  0.61495400  0.37657900  0.42427900  1
  C  1448  1  0.61535300  0.35730000  0.44613900  1
  C  1461  1  0.66000700  0.38404200  0.72840300  1
  C  1462  1  0.70484900  0.37332500  0.71916600  1
  C  1463  1  0.70488400  0.35149400  0.69983700  1
  C  1464  1  0.66057500  0.34332100  0.68763000  1
  C  1465  1  0.61656300  0.35687400  0.69403500  1
  C  1466  1  0.61577600  0.37621600  0.71583300  1
  C  1479  1  0.66127500  0.61930700  0.41204400  1
  C  1480  1  0.70575800  0.63148900  0.41994900  1
  C  1481  1  0.70616000  0.65087000  0.44173300  1
  C  1482  1  0.66152300  0.66012700  0.45267800  1
  C  1483  1  0.61711300  0.64759000  0.44511300  1
  C  1484  1  0.61751900  0.62573300  0.42584300  1
  C  1497  1  0.26232200  0.34316900  0.68765800  1
  C  1498  1  0.21745700  0.35239900  0.69833000  1
  C  1499  1  0.21739500  0.37171300  0.72016900  1
  C  1500  1  0.26168900  0.38392800  0.72835200  1
  C  1501  1  0.30569400  0.37757100  0.71477300  1
  C  1502  1  0.30655200  0.35571800  0.69550500  1
  C  1515  1  0.26295300  0.65916100  0.45273800  1
  C  1516  1  0.21844400  0.65110300  0.44068600  1
  C  1517  1  0.21808900  0.62928200  0.42134800  1
  C  1518  1  0.26275100  0.61851800  0.41190300  1
  C  1519  1  0.30720000  0.62627100  0.42428500  1
  C  1520  1  0.30680600  0.64555400  0.44614100  1
  C  1533  1  0.26216000  0.61881600  0.72841500  1
  C  1534  1  0.21731600  0.62953200  0.71918100  1
  C  1535  1  0.21728100  0.65135100  0.69983500  1
  C  1536  1  0.26159200  0.65952800  0.68763400  1
  C  1537  1  0.30560700  0.64598000  0.69404500  1
  C  1538  1  0.30639000  0.62663200  0.71583900  1
  C  1551  1  0.26087600  0.38356300  0.41206200  1
  C  1552  1  0.21639800  0.37137800  0.41997000  1
  C  1553  1  0.21600300  0.35198900  0.44174800  1
  C  1554  1  0.26064600  0.34273200  0.45268500  1
  C  1555  1  0.30505400  0.35527200  0.44511900  1
  C  1556  1  0.30463900  0.37713300  0.42585300  1
  C  1569  1  0.90936000  0.13303600  0.36309600  1
  C  1570  1  0.93431200  0.11392300  0.37986500  1
  C  1571  1  0.98561000  0.11295300  0.37868500  1
  C  1572  1  0.01066600  0.13317400  0.36330100  1
  C  1573  1  0.98567400  0.15466900  0.34971000  1
  C  1574  1  0.93444500  0.15364400  0.34820000  1
  C  1587  1  0.91174200  0.86985500  0.77724500  1
  C  1588  1  0.93685200  0.89008200  0.76190100  1
  C  1589  1  0.98811000  0.88888500  0.76047600  1
  C  1590  1  0.01305800  0.86977000  0.77723900  1
  C  1591  1  0.98790500  0.84927000  0.79224500  1
  C  1592  1  0.93668000  0.84828700  0.79074400  1
  C  1605  1  0.90932800  0.70829500  0.20200100  1
  C  1606  1  0.93434100  0.69233100  0.18217600  1
  C  1607  1  0.98575000  0.69218400  0.18236200  1
  C  1608  1  0.01055600  0.70858800  0.20187000  1
  C  1609  1  0.98561300  0.72247500  0.22320700  1
  C  1610  1  0.93427200  0.72289700  0.22289700  1
  C  1623  1  0.91091600  0.29436900  0.93865100  1
  C  1624  1  0.93609400  0.30973800  0.95883300  1
  C  1625  1  0.98735200  0.31112600  0.95761600  1
  C  1626  1  0.01221900  0.29437300  0.93845900  1
  C  1627  1  0.98702100  0.27933900  0.91800200  1
  C  1628  1  0.93579200  0.28084100  0.91706800  1
  C  1641  1  0.01281100  0.86982300  0.36309200  1
  C  1642  1  0.98786200  0.88893600  0.37986500  1
  C  1643  1  0.93656500  0.88989400  0.37869700  1
  C  1644  1  0.91150500  0.86967600  0.36331400  1
  C  1645  1  0.93650000  0.84818300  0.34971600  1
  C  1646  1  0.98772600  0.84921100  0.34820200  1
  C  1659  1  0.01038600  0.13300400  0.77723300  1
  C  1660  1  0.98526800  0.11277700  0.76189500  1
  C  1661  1  0.93401000  0.11397100  0.76048200  1
  C  1662  1  0.90907300  0.13308700  0.77725100  1
  C  1663  1  0.93423300  0.15358900  0.79224900  1
  C  1664  1  0.98546200  0.15457200  0.79073800  1
  C  1677  1  0.01286200  0.29446500  0.20191900  1
  C  1678  1  0.98788700  0.31113700  0.18272100  1
  C  1679  1  0.93657900  0.30996000  0.18178700  1
  C  1680  1  0.91158000  0.29444700  0.20193800  1
  C  1681  1  0.93657200  0.28088000  0.22345000  1
  C  1682  1  0.98782600  0.27957100  0.22254600  1
  C  1695  1  0.01125500  0.70848800  0.93864300  1
  C  1696  1  0.98608700  0.69311900  0.95882700  1
  C  1697  1  0.93482900  0.69173100  0.95762000  1
  C  1698  1  0.90994900  0.70848400  0.93846700  1
  C  1699  1  0.93513800  0.72351900  0.91800600  1
  C  1700  1  0.98636800  0.72201400  0.91706400  1
  C  1713  1  0.40933900  0.63299200  0.86307500  1
  C  1714  1  0.43427300  0.61384200  0.87982400  1
  C  1715  1  0.48559900  0.61302200  0.87882700  1
  C  1716  1  0.51063000  0.63319200  0.86336000  1
  C  1717  1  0.48564300  0.65464800  0.84970000  1
  C  1718  1  0.43440600  0.65365900  0.84824600  1
  C  1731  1  0.41167100  0.36981700  0.27726000  1
  C  1732  1  0.43674500  0.39005400  0.26191100  1
  C  1733  1  0.48800300  0.38889000  0.26048800  1
  C  1734  1  0.51298700  0.36979000  0.27725600  1
  C  1735  1  0.48787000  0.34927600  0.29226300  1
  C  1736  1  0.43664400  0.34826500  0.29076500  1
  C  1749  1  0.40928200  0.20831900  0.70202000  1
  C  1750  1  0.43431300  0.19243200  0.68214600  1
  C  1751  1  0.48570400  0.19213000  0.68246000  1
  C  1752  1  0.51051200  0.20861500  0.70188900  1
  C  1753  1  0.48557100  0.22258500  0.72318000  1
  C  1754  1  0.43421200  0.22286900  0.72296200  1
  C  1767  1  0.41090900  0.79436900  0.43864700  1
  C  1768  1  0.43605900  0.80973800  0.45883900  1
  C  1769  1  0.48731700  0.81112800  0.45764400  1
  C  1770  1  0.51221500  0.79437900  0.43849600  1
  C  1771  1  0.48704400  0.77934700  0.41802900  1
  C  1772  1  0.43581400  0.78084700  0.41707300  1
  C  1785  1  0.51283600  0.36990600  0.86307500  1
  C  1786  1  0.48791300  0.38912200  0.87976900  1
  C  1787  1  0.43655100  0.38977000  0.87897600  1
  C  1788  1  0.41156300  0.36965800  0.86340300  1
  C  1789  1  0.43654700  0.34824100  0.84968200  1
  C  1790  1  0.48779500  0.34917800  0.84831400  1
  C  1803  1  0.51041800  0.63301600  0.27725600  1
  C  1804  1  0.48531900  0.61279000  0.26190900  1
  C  1805  1  0.43406100  0.61397600  0.26048400  1
  C  1806  1  0.40910200  0.63308600  0.27725100  1
  C  1807  1  0.43424400  0.65358800  0.29225900  1
  C  1808  1  0.48547000  0.65458000  0.29075900  1
  C  1821  1  0.51287200  0.79454800  0.70200400  1
  C  1822  1  0.48785200  0.81047200  0.68215200  1
  C  1823  1  0.43645400  0.81070600  0.68240500  1
  C  1824  1  0.41163900  0.79426100  0.70187100  1
  C  1825  1  0.43658000  0.78033100  0.72318600  1
  C  1826  1  0.48793100  0.77997500  0.72292300  1
  C  1839  1  0.51125500  0.20848800  0.43864900  1
  C  1840  1  0.48610200  0.19311900  0.45883900  1
  C  1841  1  0.43484400  0.19172600  0.45764200  1
  C  1842  1  0.40994600  0.20847400  0.43849200  1
  C  1843  1  0.43512100  0.22350700  0.41802500  1
  C  1844  1  0.48635000  0.22200800  0.41707300  1
  N  17  1  0.04241600  0.10268600  0.31659800  1
  N  18  1  0.14097800  0.14531500  0.27943100  1
  N  39  1  0.04523900  0.90166100  0.82281500  1
  N  40  1  0.14470200  0.85798300  0.86019900  1
  N  61  1  0.04252400  0.75479600  0.17074800  1
  N  62  1  0.14094300  0.79213900  0.21388100  1
  N  83  1  0.04480300  0.24882600  0.97035900  1
  N  84  1  0.14547700  0.21172200  0.92632600  1
  N  105  1  0.87975600  0.90017100  0.31661600  1
  N  106  1  0.78118800  0.85755000  0.27944300  1
  N  127  1  0.87690700  0.10120100  0.82283600  1
  N  128  1  0.77745500  0.14488400  0.86023700  1
  N  149  1  0.87977700  0.24781700  0.17132700  1
  N  150  1  0.78116600  0.21066400  0.21398200  1
  N  171  1  0.87738400  0.75402800  0.97037700  1
  N  172  1  0.77669000  0.79114200  0.92637700  1
  N  193  1  0.87960100  0.90002600  0.82408500  1
  N  194  1  0.78088600  0.85735700  0.86083900  1
  N  215  1  0.87696400  0.10157300  0.31723800  1
  N  216  1  0.77727500  0.14506600  0.28018500  1
  N  237  1  0.87916600  0.24745000  0.96876000  1
  N  238  1  0.78150400  0.21051900  0.92653600  1
  N  259  1  0.87719000  0.75466000  0.17111800  1
  N  260  1  0.77708800  0.79144600  0.21402100  1
  N  281  1  0.04254800  0.10283200  0.82406700  1
  N  282  1  0.14127700  0.14549800  0.86080000  1
  N  303  1  0.04519400  0.90128400  0.31722800  1
  N  304  1  0.14485400  0.85779100  0.28016300  1
  N  325  1  0.04301600  0.75541200  0.96874000  1
  N  326  1  0.14064200  0.79233900  0.92648500  1
  N  347  1  0.04506100  0.24852200  0.17051600  1
  N  348  1  0.14491700  0.21148900  0.21391700  1
  N  369  1  0.54234400  0.60256800  0.81673200  1
  N  370  1  0.64087600  0.64525400  0.77948800  1
  N  391  1  0.54517800  0.40168000  0.32283400  1
  N  392  1  0.64466200  0.35801800  0.36017600  1
  N  413  1  0.54251600  0.25472500  0.67064200  1
  N  414  1  0.64088600  0.29209200  0.71383500  1
  N  435  1  0.54477600  0.74883600  0.47040400  1
  N  436  1  0.64547800  0.71173600  0.42640300  1
  N  457  1  0.37987500  0.40037700  0.81682000  1
  N  458  1  0.28139300  0.35761200  0.77951000  1
  N  479  1  0.37692200  0.60117800  0.32281600  1
  N  480  1  0.27746000  0.64484600  0.36019500  1
  N  501  1  0.37964900  0.74810400  0.67068300  1
  N  502  1  0.28123800  0.71075700  0.71384600  1
  N  523  1  0.37738900  0.25401800  0.47039800  1
  N  524  1  0.27668400  0.29112400  0.42640300  1
  N  545  1  0.37952300  0.40001400  0.32407900  1
  N  546  1  0.28083700  0.35732200  0.36087200  1
  N  567  1  0.37691400  0.60166100  0.81713000  1
  N  568  1  0.27722200  0.64511700  0.78012600  1
  N  589  1  0.37913100  0.74743700  0.46872800  1
  N  590  1  0.28150300  0.71050400  0.42645600  1
  N  611  1  0.37714800  0.25474800  0.67123100  1
  N  612  1  0.27699000  0.29147300  0.71405600  1
  N  633  1  0.54258100  0.60285000  0.32409200  1
  N  634  1  0.64128900  0.64553100  0.36084300  1
  N  655  1  0.54528600  0.40112100  0.81705800  1
  N  656  1  0.64503600  0.35772600  0.78010900  1
  N  677  1  0.54303000  0.25542200  0.46873000  1
  N  678  1  0.64065300  0.29234900  0.42645600  1
  N  699  1  0.54501300  0.74814700  0.67117800  1
  N  700  1  0.64513700  0.71138900  0.71405400  1
  N  711  1  0.24563200  0.97282500  0.27545100  1
  N  714  1  0.24443000  0.03026200  0.28402000  1
  N  717  1  0.07137700  0.97314300  0.27338200  1
  N  720  1  0.07320100  0.03053100  0.26574400  1
  N  729  1  0.24586600  0.03074000  0.86283400  1
  N  732  1  0.24483900  0.97259700  0.85881800  1
  N  735  1  0.07304300  0.03097100  0.87325100  1
  N  738  1  0.07165100  0.97313900  0.86843200  1
  N  747  1  0.24559000  0.79621200  0.04126800  1
  N  750  1  0.24457500  0.78773100  0.09872300  1
  N  753  1  0.07134400  0.79847300  0.04179100  1
  N  756  1  0.07341200  0.80612800  0.09916900  1
  N  765  1  0.24543500  0.20657200  0.09913500  1
  N  768  1  0.24471600  0.21511400  0.04169700  1
  N  771  1  0.07118000  0.20464800  0.09842800  1
  N  774  1  0.07339600  0.19706700  0.04100500  1
  N  783  1  0.67654100  0.03003600  0.27545800  1
  N  786  1  0.67774100  0.97259900  0.28403800  1
  N  789  1  0.85079800  0.02971700  0.27339700  1
  N  792  1  0.84897600  0.97232800  0.26576800  1
  N  801  1  0.67630400  0.97212000  0.86287500  1
  N  804  1  0.67733100  0.03025900  0.85884100  1
  N  807  1  0.84913100  0.97189000  0.87327400  1
  N  810  1  0.85051400  0.02972400  0.86846300  1
  N  819  1  0.67667800  0.20666800  0.04136100  1
  N  822  1  0.67774100  0.21521000  0.09880700  1
  N  825  1  0.85092000  0.20442600  0.04183600  1
  N  828  1  0.84890800  0.19683400  0.09922400  1
  N  837  1  0.67683900  0.79623600  0.09920700  1
  N  840  1  0.67753300  0.78774800  0.04176500  1
  N  843  1  0.85110000  0.79804300  0.09848700  1
  N  846  1  0.84886900  0.80573000  0.04107700  1
  N  855  1  0.74564500  0.47278500  0.77542100  1
  N  858  1  0.74441600  0.53021700  0.78403100  1
  N  861  1  0.57138800  0.47307600  0.77341300  1
  N  864  1  0.57317700  0.53046200  0.76577800  1
  N  873  1  0.74587800  0.53076400  0.36285100  1
  N  876  1  0.74483300  0.47262000  0.35883500  1
  N  879  1  0.57305800  0.53101000  0.37328200  1
  N  882  1  0.57164300  0.47318200  0.36843700  1
  N  891  1  0.74563000  0.29620600  0.54123600  1
  N  894  1  0.74461000  0.28769900  0.59868900  1
  N  897  1  0.57138400  0.29847300  0.54175600  1
  N  900  1  0.57345000  0.30610100  0.59913700  1
  N  909  1  0.74533600  0.70658600  0.59922700  1
  N  912  1  0.74462400  0.71509300  0.54178800  1
  N  915  1  0.57107200  0.70480000  0.59852200  1
  N  918  1  0.57328500  0.69712300  0.54111200  1
  N  927  1  0.17648400  0.53006900  0.77542900  1
  N  930  1  0.17771800  0.47263200  0.78402700  1
  N  933  1  0.35074100  0.52977700  0.77337400  1
  N  936  1  0.34894300  0.47239100  0.76573700  1
  N  945  1  0.17626400  0.47209400  0.36285300  1
  N  948  1  0.17730900  0.53023800  0.35882100  1
  N  951  1  0.34908800  0.47184900  0.37326000  1
  N  954  1  0.35049700  0.52967900  0.36842200  1
  N  963  1  0.17654900  0.70665100  0.54124200  1
  N  966  1  0.17757100  0.71515600  0.59869300  1
  N  969  1  0.35079600  0.70439100  0.54175800  1
  N  972  1  0.34873500  0.69675800  0.59913900  1
  N  981  1  0.17684200  0.29628400  0.59922500  1
  N  984  1  0.17755100  0.28776800  0.54178600  1
  N  987  1  0.35110500  0.29803700  0.59852400  1
  N  990  1  0.34889900  0.30571600  0.54111200  1
  N  999  1  0.18505800  0.11943100  0.41621500  1
  N  1002  1  0.23622000  0.15503300  0.45176900  1
  N  1005  1  0.17075700  0.19397500  0.35164100  1
  N  1008  1  0.25034100  0.21959900  0.37721700  1
  N  1017  1  0.18694800  0.88308300  0.72395900  1
  N  1020  1  0.23746800  0.84729000  0.68829600  1
  N  1023  1  0.17264900  0.80867400  0.78870000  1
  N  1026  1  0.25166300  0.78275500  0.76285300  1
  N  1035  1  0.18462500  0.65552200  0.18832100  1
  N  1038  1  0.23508400  0.61974700  0.22400400  1
  N  1041  1  0.17066000  0.72015900  0.26282500  1
  N  1044  1  0.24963600  0.69418200  0.28866900  1
  N  1053  1  0.18598100  0.34778000  0.95173200  1
  N  1056  1  0.23727700  0.38335500  0.91619600  1
  N  1059  1  0.17172700  0.28327300  0.87714700  1
  N  1062  1  0.25127800  0.30888200  0.85152200  1
  N  1071  1  0.73710800  0.88342200  0.41622300  1
  N  1074  1  0.68594000  0.84782200  0.45177500  1
  N  1077  1  0.75140700  0.80888000  0.35164900  1
  N  1080  1  0.67182000  0.78325700  0.37722300  1
  N  1089  1  0.73518600  0.11977900  0.72399000  1
  N  1092  1  0.68468200  0.15557100  0.68832100  1
  N  1095  1  0.74948200  0.19419200  0.78872400  1
  N  1098  1  0.67048400  0.22011400  0.76286700  1
  N  1107  1  0.73740600  0.34745000  0.18824900  1
  N  1110  1  0.68693900  0.38320400  0.22395500  1
  N  1113  1  0.75151500  0.28281900  0.26275100  1
  N  1116  1  0.67248800  0.30873900  0.28859400  1
  N  1125  1  0.73619200  0.65507200  0.95175700  1
  N  1128  1  0.68491900  0.61949000  0.91621600  1
  N  1131  1  0.75042300  0.71958200  0.87717800  1
  N  1134  1  0.67088600  0.69396500  0.85154900  1
  N  1143  1  0.73771900  0.88361400  0.72383900  1
  N  1146  1  0.68680900  0.84797100  0.68818000  1
  N  1149  1  0.75202200  0.80900800  0.78834900  1
  N  1152  1  0.67255300  0.78338100  0.76271400  1
  N  1161  1  0.73580700  0.11956800  0.41667100  1
  N  1164  1  0.68552300  0.15534900  0.45247500  1
  N  1167  1  0.74985900  0.19408100  0.35202200  1
  N  1170  1  0.67090400  0.21991700  0.37796100  1
  N  1179  1  0.73673800  0.34759200  0.95248000  1
  N  1182  1  0.68650400  0.38333900  0.91663800  1
  N  1185  1  0.75112700  0.28289000  0.87805000  1
  N  1188  1  0.67220100  0.30876800  0.85210300  1
  N  1197  1  0.73535800  0.65490700  0.18818400  1
  N  1200  1  0.68430100  0.61930300  0.22383500  1
  N  1203  1  0.74971500  0.71946400  0.26272300  1
  N  1206  1  0.67026100  0.69387200  0.28840000  1
  N  1215  1  0.18441000  0.11923500  0.72380400  1
  N  1218  1  0.23534100  0.15487400  0.68815100  1
  N  1221  1  0.17011300  0.19384100  0.78831500  1
  N  1224  1  0.24959300  0.21946000  0.76268800  1
  N  1233  1  0.18636300  0.88328900  0.41665700  1
  N  1236  1  0.23663700  0.84750800  0.45246400  1
  N  1239  1  0.17231500  0.80877600  0.35200800  1
  N  1242  1  0.25126300  0.78293900  0.37795500  1
  N  1251  1  0.18543200  0.65527300  0.95245800  1
  N  1254  1  0.23567600  0.61952900  0.91662200  1
  N  1257  1  0.17103300  0.71996900  0.87802200  1
  N  1260  1  0.24996800  0.69409600  0.85207900  1
  N  1269  1  0.18672200  0.34783900  0.18825800  1
  N  1272  1  0.23774700  0.38345900  0.22389600  1
  N  1275  1  0.17243100  0.28327700  0.26279800  1
  N  1278  1  0.25184700  0.30891200  0.28848600  1
  N  1287  1  0.24626600  0.12511700  0.23392800  1
  N  1290  1  0.24674200  0.16054200  0.18768300  1
  N  1293  1  0.07583200  0.11067100  0.22059400  1
  N  1296  1  0.07293300  0.15693100  0.18540200  1
  N  1305  1  0.24634400  0.88401500  0.91153800  1
  N  1308  1  0.24498200  0.83778700  0.94691900  1
  N  1311  1  0.07250100  0.88676300  0.91438000  1
  N  1314  1  0.07443300  0.85145700  0.96061000  1
  N  1323  1  0.24631100  0.83771900  0.19377000  1
  N  1326  1  0.24688400  0.88391100  0.22923100  1
  N  1329  1  0.07581700  0.85095400  0.17949500  1
  N  1332  1  0.07313000  0.88647400  0.22555500  1
  N  1341  1  0.24845500  0.16087000  0.95194200  1
  N  1344  1  0.24693300  0.12528900  0.90580700  1
  N  1347  1  0.07469700  0.15734700  0.95540600  1
  N  1350  1  0.07668100  0.11111400  0.92018500  1
  N  1359  1  0.67589400  0.87776900  0.23393600  1
  N  1362  1  0.67542700  0.84235500  0.18768100  1
  N  1365  1  0.84633600  0.89221000  0.22061600  1
  N  1368  1  0.84923500  0.84595500  0.18542000  1
  N  1377  1  0.67583000  0.11886100  0.91158300  1
  N  1380  1  0.67720200  0.16507700  0.94698200  1
  N  1383  1  0.84967300  0.11610900  0.91441400  1
  N  1386  1  0.84775100  0.15139800  0.96065700  1
  N  1395  1  0.67589100  0.16514700  0.19379900  1
  N  1398  1  0.67529100  0.11893200  0.22922700  1
  N  1401  1  0.84636400  0.15185400  0.17949400  1
  N  1404  1  0.84905900  0.11640500  0.22560200  1
  N  1413  1  0.67375300  0.84198800  0.95200800  1
  N  1416  1  0.67525800  0.87755300  0.90586000  1
  N  1419  1  0.84751000  0.84551700  0.95544900  1
  N  1422  1  0.84550900  0.89173900  0.92021800  1
  N  1431  1  0.74624100  0.62506200  0.73398900  1
  N  1434  1  0.74674700  0.66045500  0.68771900  1
  N  1437  1  0.57582100  0.61061500  0.72062000  1
  N  1440  1  0.57294000  0.65688200  0.68544400  1
  N  1449  1  0.74633800  0.38404000  0.41151200  1
  N  1452  1  0.74499800  0.33780500  0.44688700  1
  N  1455  1  0.57249400  0.38677800  0.41437400  1
  N  1458  1  0.57444900  0.35145900  0.46059400  1
  N  1467  1  0.74633100  0.33764200  0.69375800  1
  N  1470  1  0.74693400  0.38388300  0.72915100  1
  N  1473  1  0.57585400  0.35093600  0.67944500  1
  N  1476  1  0.57316600  0.38639600  0.72554300  1
  N  1485  1  0.74841100  0.66089000  0.45202600  1
  N  1488  1  0.74692400  0.62533500  0.40586900  1
  N  1491  1  0.57465700  0.65734900  0.45545900  1
  N  1494  1  0.57666900  0.61113400  0.42021400  1
  N  1503  1  0.17594500  0.37775900  0.73402700  1
  N  1506  1  0.17542000  0.34241600  0.68772300  1
  N  1509  1  0.34635200  0.39224100  0.72062000  1
  N  1512  1  0.34922700  0.34597800  0.68543800  1
  N  1521  1  0.17581100  0.61881400  0.41153000  1
  N  1524  1  0.17716400  0.66505200  0.44689700  1
  N  1527  1  0.34965300  0.61607200  0.41437600  1
  N  1530  1  0.34771600  0.65139600  0.46059200  1
  N  1539  1  0.17583100  0.66519100  0.69373500  1
  N  1542  1  0.17523400  0.61898500  0.72917800  1
  N  1545  1  0.34632300  0.65193000  0.67946500  1
  N  1548  1  0.34899300  0.61643100  0.72553700  1
  N  1557  1  0.17375600  0.34196600  0.45204000  1
  N  1560  1  0.17522800  0.37753300  0.40589300  1
  N  1563  1  0.34751400  0.34551100  0.45545500  1
  N  1566  1  0.34548500  0.39173300  0.42022200  1
  N  1575  1  0.01083700  0.09240500  0.39112600  1
  N  1578  1  0.90879200  0.09672200  0.39647100  1
  N  1581  1  0.01101500  0.17570100  0.33817600  1
  N  1584  1  0.90948600  0.17136100  0.33181200  1
  N  1593  1  0.01356100  0.90591100  0.74365600  1
  N  1596  1  0.91182800  0.91087700  0.74975100  1
  N  1599  1  0.01278700  0.83160400  0.80871900  1
  N  1602  1  0.91131800  0.82724100  0.80223600  1
  N  1611  1  0.01178800  0.67672900  0.16431200  1
  N  1614  1  0.90866700  0.67860100  0.16262000  1
  N  1617  1  0.01130600  0.73501600  0.24354200  1
  N  1620  1  0.90877400  0.73821700  0.24133400  1
  N  1629  1  0.01288200  0.32792400  0.97461900  1
  N  1632  1  0.91109500  0.32194300  0.97960600  1
  N  1635  1  0.01185400  0.26284300  0.90033800  1
  N  1638  1  0.91038800  0.26931100  0.89605900  1
  N  1647  1  0.91132900  0.91043300  0.39115400  1
  N  1650  1  0.01338900  0.90614400  0.39646100  1
  N  1653  1  0.91115300  0.82715300  0.33818000  1
  N  1656  1  0.01268300  0.83149100  0.33181800  1
  N  1665  1  0.90854500  0.09694500  0.74366800  1
  N  1668  1  0.01028000  0.09197900  0.74974100  1
  N  1671  1  0.90936400  0.17125500  0.80872900  1
  N  1674  1  0.01083100  0.17561700  0.80222200  1
  N  1683  1  0.91124600  0.32254200  0.16136000  1
  N  1686  1  0.01341600  0.32763300  0.16540700  1
  N  1689  1  0.91117800  0.26917100  0.24436900  1
  N  1692  1  0.01291800  0.26337100  0.24037200  1
  N  1701  1  0.90930600  0.67493500  0.97463000  1
  N  1704  1  0.01109500  0.68091300  0.97959500  1
  N  1707  1  0.91029800  0.74001700  0.90034800  1
  N  1710  1  0.01176100  0.73354200  0.89604900  1
  N  1719  1  0.51098200  0.59270200  0.89154600  1
  N  1722  1  0.40865300  0.59646100  0.89620200  1
  N  1725  1  0.51102900  0.67561600  0.83807400  1
  N  1728  1  0.40939300  0.67145400  0.83196400  1
  N  1737  1  0.51342500  0.40593200  0.24366800  1
  N  1740  1  0.41168200  0.41083100  0.24975300  1
  N  1743  1  0.51278200  0.33162600  0.30873900  1
  N  1746  1  0.41131500  0.32721100  0.30226100  1
  N  1755  1  0.51165800  0.17640200  0.66461400  1
  N  1758  1  0.40876800  0.17895400  0.66236400  1
  N  1761  1  0.51133500  0.23533800  0.74335600  1
  N  1764  1  0.40861000  0.23797600  0.74152900  1
  N  1773  1  0.51282600  0.82792600  0.47466200  1
  N  1776  1  0.41102800  0.82194100  0.47960400  1
  N  1779  1  0.51189900  0.76284900  0.40037500  1
  N  1782  1  0.41043900  0.76932100  0.39604900  1
  N  1791  1  0.41096700  0.40980100  0.89203100  1
  N  1794  1  0.51363700  0.40674500  0.89584100  1
  N  1797  1  0.41112100  0.32733900  0.83795400  1
  N  1800  1  0.51286900  0.33129800  0.83215200  1
  N  1809  1  0.40861700  0.59694800  0.24366000  1
  N  1812  1  0.51035000  0.59199800  0.24975500  1
  N  1815  1  0.40935400  0.67124600  0.30873700  1
  N  1818  1  0.51082400  0.67562700  0.30225200  1
  N  1827  1  0.41046400  0.82631300  0.66446700  1
  N  1830  1  0.51346100  0.82405900  0.66247000  1
  N  1833  1  0.41084800  0.76768800  0.74344400  1
  N  1836  1  0.51347600  0.76475700  0.74142500  1
  N  1845  1  0.40933600  0.17492800  0.47465800  1
  N  1848  1  0.51113000  0.18091600  0.47960400  1
  N  1851  1  0.41026600  0.24000500  0.40036900  1
  N  1854  1  0.51172600  0.23353600  0.39605100  1
