# generated using pymatgen
data_H20C41N12
_symmetry_space_group_name_H-M   'P 1'
_cell_length_a   55.71730000
_cell_length_b   60.12880000
_cell_length_c   60.12870000
_cell_angle_alpha   90.00000000
_cell_angle_beta   90.00000000
_cell_angle_gamma   89.99190000
_symmetry_Int_Tables_number   1
_chemical_formula_structural   H20C41N12
_chemical_formula_sum   'H640 C1312 N384'
_cell_volume   201444.03387314
_cell_formula_units_Z   32
loop_
 _symmetry_equiv_pos_site_id
 _symmetry_equiv_pos_as_xyz
  1  'x, y, z'
loop_
 _atom_site_type_symbol
 _atom_site_label
 _atom_site_symmetry_multiplicity
 _atom_site_fract_x
 _atom_site_fract_y
 _atom_site_fract_z
 _atom_site_occupancy
  H  26  1  0.20843600  0.17100400  0.09013500  1
  H  27  1  0.20276100  0.16934300  0.12942300  1
  H  28  1  0.13903700  0.14519100  0.08034400  1
  H  29  1  0.13298200  0.14413200  0.11939500  1
  H  30  1  0.12960200  0.12086100  0.15428700  1
  H  31  1  0.13611800  0.08211500  0.15754800  1
  H  32  1  0.21064000  0.09320700  0.16160100  1
  H  33  1  0.20412300  0.13219100  0.15841800  1
  H  34  1  0.18297900  0.14926700  0.19600900  1
  H  35  1  0.20543500  0.17345400  0.21907500  1
  H  36  1  0.19786700  0.22475200  0.17190400  1
  H  37  1  0.17531900  0.20042400  0.14866900  1
  H  38  1  0.13101500  0.18767500  0.13514200  1
  H  39  1  0.13535500  0.14638500  0.19172000  1
  H  40  1  0.09501700  0.15548200  0.20094700  1
  H  45  1  0.09070800  0.19657600  0.14430600  1
  H  71  1  0.20855800  0.83091900  0.91148300  1
  H  72  1  0.20290800  0.83252500  0.87219200  1
  H  73  1  0.13917200  0.85678100  0.92120000  1
  H  74  1  0.13314300  0.85778700  0.88215000  1
  H  75  1  0.12978800  0.88102700  0.84727500  1
  H  76  1  0.13628300  0.91976800  0.84409700  1
  H  77  1  0.21080200  0.90872200  0.84008100  1
  H  78  1  0.20430100  0.86971300  0.84315900  1
  H  79  1  0.18327500  0.85253100  0.80554800  1
  H  80  1  0.20573500  0.82827900  0.78253400  1
  H  81  1  0.19801600  0.77706000  0.82974500  1
  H  82  1  0.17545700  0.80144200  0.85291200  1
  H  83  1  0.13113400  0.81424900  0.86642900  1
  H  84  1  0.13550800  0.85550600  0.80983400  1
  H  85  1  0.09510700  0.84656400  0.80070400  1
  H  90  1  0.09076600  0.80550400  0.85734900  1
  H  116  1  0.79331100  0.83097200  0.09033800  1
  H  117  1  0.79889700  0.83260000  0.12963900  1
  H  118  1  0.86272400  0.85680100  0.08070400  1
  H  119  1  0.86868600  0.85782800  0.11976100  1
  H  120  1  0.87199200  0.88104100  0.15462300  1
  H  121  1  0.86550100  0.91978100  0.15778000  1
  H  122  1  0.79098400  0.90877700  0.16173900  1
  H  123  1  0.79748100  0.86976000  0.15869000  1
  H  124  1  0.81855100  0.85253300  0.19631000  1
  H  125  1  0.79611100  0.82827100  0.21932300  1
  H  126  1  0.80377700  0.77708300  0.17206600  1
  H  127  1  0.82631400  0.80147600  0.14889900  1
  H  128  1  0.87056400  0.81420800  0.13545100  1
  H  129  1  0.86629900  0.85553000  0.19200500  1
  H  130  1  0.90668400  0.84650300  0.20114200  1
  H  135  1  0.91091400  0.80537200  0.14452300  1
  H  161  1  0.79332900  0.17142800  0.91173500  1
  H  162  1  0.79887700  0.16987400  0.87242800  1
  H  163  1  0.86254100  0.14507500  0.92126500  1
  H  164  1  0.86847100  0.14411600  0.88220000  1
  H  165  1  0.87150200  0.12096100  0.84728900  1
  H  166  1  0.86473300  0.08229600  0.84403700  1
  H  167  1  0.79024000  0.09360800  0.84049600  1
  H  168  1  0.79701900  0.13270400  0.84353000  1
  H  169  1  0.81849700  0.14960000  0.80568600  1
  H  170  1  0.79617600  0.17385600  0.78257600  1
  H  171  1  0.80384300  0.22514000  0.82974000  1
  H  172  1  0.82627400  0.20074600  0.85301600  1
  H  173  1  0.87056700  0.18781800  0.86653100  1
  H  174  1  0.86613800  0.14645700  0.81002400  1
  H  175  1  0.90656300  0.15534100  0.80087200  1
  H  180  1  0.91093900  0.19651000  0.85744300  1
  H  206  1  0.79333100  0.08973200  0.16780000  1
  H  207  1  0.79806900  0.12922300  0.16695200  1
  H  208  1  0.86464100  0.08178400  0.14623400  1
  H  209  1  0.86970800  0.12094200  0.14598800  1
  H  210  1  0.86918900  0.15273600  0.12007500  1
  H  211  1  0.86137300  0.15731500  0.08153200  1
  H  212  1  0.78817800  0.16773300  0.09529800  1
  H  213  1  0.79580400  0.16271100  0.13406600  1
  H  214  1  0.82144600  0.19813400  0.15160200  1
  H  215  1  0.79930800  0.22120200  0.17594700  1
  H  216  1  0.79993600  0.17071500  0.22448700  1
  H  217  1  0.82227900  0.14748100  0.19995900  1
  H  218  1  0.86826300  0.13824300  0.19004900  1
  H  219  1  0.86661000  0.19112100  0.14402200  1
  H  220  1  0.90675400  0.20027600  0.15334400  1
  H  225  1  0.90869000  0.14719400  0.19908300  1
  H  251  1  0.78780700  0.90902200  0.83636500  1
  H  252  1  0.79521200  0.86993000  0.83781700  1
  H  253  1  0.86033500  0.92130100  0.85149600  1
  H  254  1  0.86780000  0.88256900  0.85281700  1
  H  255  1  0.86785700  0.85227200  0.88156000  1
  H  256  1  0.86064200  0.84782400  0.92025200  1
  H  257  1  0.78875800  0.83093300  0.90697700  1
  H  258  1  0.79574000  0.83577200  0.86812200  1
  H  259  1  0.82272400  0.80278600  0.84977700  1
  H  260  1  0.80110100  0.77936100  0.82532600  1
  H  261  1  0.79888400  0.83066100  0.77765800  1
  H  262  1  0.82071600  0.85420400  0.80224200  1
  H  263  1  0.86713800  0.86319400  0.81147200  1
  H  264  1  0.86688300  0.81170200  0.85903700  1
  H  265  1  0.90708200  0.80296400  0.84979700  1
  H  270  1  0.90779500  0.85479800  0.80262400  1
  H  296  1  0.20816500  0.08966400  0.83376400  1
  H  297  1  0.20363100  0.12915300  0.83479400  1
  H  298  1  0.13683200  0.08194400  0.85537500  1
  H  299  1  0.13199200  0.12111700  0.85583200  1
  H  300  1  0.13264900  0.15288400  0.88175500  1
  H  301  1  0.14051900  0.15744900  0.92028900  1
  H  302  1  0.21372300  0.16769400  0.90645300  1
  H  303  1  0.20604200  0.16268800  0.86769300  1
  H  304  1  0.18036600  0.19819400  0.85018900  1
  H  305  1  0.20254700  0.22124400  0.82586500  1
  H  306  1  0.20198200  0.17073900  0.77734500  1
  H  307  1  0.17959400  0.14752700  0.80184900  1
  H  308  1  0.13360500  0.13838800  0.81168300  1
  H  309  1  0.13514300  0.19117500  0.85781400  1
  H  310  1  0.09496800  0.20028100  0.84850400  1
  H  315  1  0.09316900  0.14729100  0.80265900  1
  H  341  1  0.20779300  0.91231300  0.16818400  1
  H  342  1  0.20342000  0.87286300  0.16681400  1
  H  343  1  0.13636400  0.92001900  0.14679400  1
  H  344  1  0.13173800  0.88083400  0.14588900  1
  H  345  1  0.13252300  0.84906000  0.11986100  1
  H  346  1  0.14043300  0.84448700  0.08132700  1
  H  347  1  0.21365000  0.83438500  0.09521300  1
  H  348  1  0.20592700  0.83938500  0.13396700  1
  H  349  1  0.18029600  0.80381300  0.15145000  1
  H  350  1  0.20247400  0.78078100  0.17580100  1
  H  351  1  0.20179200  0.83129600  0.22431500  1
  H  352  1  0.17940100  0.85448100  0.19979000  1
  H  353  1  0.13352800  0.86347600  0.19005100  1
  H  354  1  0.13501800  0.81081200  0.14377300  1
  H  355  1  0.09487600  0.80165400  0.15314900  1
  H  360  1  0.09312000  0.85452700  0.19913400  1
  H  386  1  0.70841500  0.67152400  0.59097500  1
  H  387  1  0.70272600  0.66949100  0.63024300  1
  H  388  1  0.63956600  0.64457100  0.58091700  1
  H  389  1  0.63346900  0.64316000  0.61994500  1
  H  390  1  0.62970700  0.62007000  0.65510400  1
  H  391  1  0.63629000  0.58132200  0.65811100  1
  H  392  1  0.71084000  0.59239500  0.66138700  1
  H  393  1  0.70425800  0.63142100  0.65852200  1
  H  394  1  0.68332900  0.64805800  0.69657700  1
  H  395  1  0.70567400  0.67223800  0.71997200  1
  H  396  1  0.69708100  0.72401300  0.67348800  1
  H  397  1  0.67485100  0.69984100  0.65005300  1
  H  398  1  0.63125200  0.68696600  0.63567100  1
  H  399  1  0.63521900  0.64563900  0.69224500  1
  H  400  1  0.59484900  0.65487000  0.70132200  1
  H  405  1  0.59096700  0.69601400  0.64469500  1
  H  431  1  0.70820500  0.33010400  0.41062900  1
  H  432  1  0.70250300  0.33201900  0.37136100  1
  H  433  1  0.63966300  0.35774700  0.42062200  1
  H  434  1  0.63354400  0.35903600  0.38159800  1
  H  435  1  0.62928700  0.38162500  0.34592800  1
  H  436  1  0.63568900  0.42039900  0.34298600  1
  H  437  1  0.71033700  0.40963800  0.34072200  1
  H  438  1  0.70393900  0.37062100  0.34353000  1
  H  439  1  0.68372200  0.35407700  0.30518000  1
  H  440  1  0.70615700  0.33001400  0.28177000  1
  H  441  1  0.69697900  0.27795200  0.32778700  1
  H  442  1  0.67463700  0.30198800  0.35120800  1
  H  443  1  0.63098100  0.31514600  0.36622900  1
  H  444  1  0.63526200  0.35567000  0.30910200  1
  H  445  1  0.59486300  0.34652300  0.30010600  1
  H  450  1  0.59065500  0.30620500  0.35729000  1
  H  476  1  0.29355900  0.33033800  0.59111700  1
  H  477  1  0.29919900  0.33235100  0.63039700  1
  H  478  1  0.36243700  0.35726600  0.58115000  1
  H  479  1  0.36848000  0.35865900  0.62017800  1
  H  480  1  0.37231500  0.38172700  0.65530400  1
  H  481  1  0.36583900  0.42050100  0.65818600  1
  H  482  1  0.29124000  0.40959800  0.66128300  1
  H  483  1  0.29772200  0.37056700  0.65853200  1
  H  484  1  0.31842700  0.35399800  0.69671500  1
  H  485  1  0.29605700  0.32993300  0.72018000  1
  H  486  1  0.30462100  0.27802700  0.67388100  1
  H  487  1  0.32690000  0.30206200  0.65041900  1
  H  488  1  0.37055400  0.31479100  0.63593200  1
  H  489  1  0.36671300  0.35622900  0.69242400  1
  H  490  1  0.40711200  0.34705500  0.70141300  1
  H  495  1  0.41087400  0.30579000  0.64487100  1
  H  521  1  0.29328000  0.67181100  0.41084500  1
  H  522  1  0.29885500  0.66989100  0.37155300  1
  H  523  1  0.36209600  0.64467400  0.42065700  1
  H  524  1  0.36807000  0.64336300  0.38161800  1
  H  525  1  0.37149500  0.62026200  0.34657800  1
  H  526  1  0.36474600  0.58156700  0.34361600  1
  H  527  1  0.29020800  0.59277800  0.34061400  1
  H  528  1  0.29696300  0.63189300  0.34334000  1
  H  529  1  0.31816700  0.64830400  0.30507900  1
  H  530  1  0.29592000  0.67247500  0.28159200  1
  H  531  1  0.30437200  0.72426600  0.32807800  1
  H  532  1  0.32653700  0.70012300  0.35156700  1
  H  533  1  0.37021500  0.68728300  0.36584800  1
  H  534  1  0.36629200  0.64567600  0.30948900  1
  H  535  1  0.40673300  0.65472000  0.30048900  1
  H  540  1  0.41055800  0.69615700  0.35689900  1
  H  566  1  0.29381900  0.59053700  0.66876500  1
  H  567  1  0.29836700  0.63001200  0.66731800  1
  H  568  1  0.36459900  0.58254000  0.64572900  1
  H  569  1  0.36948100  0.62169700  0.64487300  1
  H  570  1  0.36951300  0.65390000  0.61936900  1
  H  571  1  0.36167600  0.65813700  0.58078000  1
  H  572  1  0.28823000  0.66715400  0.59436300  1
  H  573  1  0.29588600  0.66248600  0.63317300  1
  H  574  1  0.32101100  0.69874300  0.65006000  1
  H  575  1  0.29892100  0.72221100  0.67433300  1
  H  576  1  0.30080800  0.67257700  0.72368900  1
  H  577  1  0.32293400  0.64910600  0.69942300  1
  H  578  1  0.36812100  0.63887400  0.68940700  1
  H  579  1  0.36687900  0.69182400  0.64345100  1
  H  580  1  0.40704400  0.70082200  0.65297600  1
  H  585  1  0.40848700  0.64771000  0.69868600  1
  H  611  1  0.28763600  0.40809600  0.33553300  1
  H  612  1  0.29510200  0.36902800  0.33735800  1
  H  613  1  0.35975700  0.42062700  0.35206800  1
  H  614  1  0.36729700  0.38191700  0.35373400  1
  H  615  1  0.36808500  0.35117300  0.38203200  1
  H  616  1  0.36089300  0.34706300  0.42077200  1
  H  617  1  0.28859200  0.33154100  0.40777800  1
  H  618  1  0.29556100  0.33603800  0.36887700  1
  H  619  1  0.32188400  0.30222400  0.35119300  1
  H  620  1  0.30003900  0.27855100  0.32687700  1
  H  621  1  0.29952300  0.32898300  0.27830100  1
  H  622  1  0.32130600  0.35263400  0.30257900  1
  H  623  1  0.36691100  0.36271300  0.31206200  1
  H  624  1  0.36684300  0.31095400  0.35933100  1
  H  625  1  0.40707800  0.30235100  0.34995900  1
  H  630  1  0.40752700  0.35441600  0.30305000  1
  H  656  1  0.70753200  0.59065800  0.33244800  1
  H  657  1  0.70320500  0.63005400  0.33438400  1
  H  658  1  0.63658100  0.58268400  0.35510100  1
  H  659  1  0.63201500  0.62185600  0.35662600  1
  H  660  1  0.63223800  0.65402800  0.38241800  1
  H  661  1  0.64016000  0.65824000  0.42100200  1
  H  662  1  0.71362700  0.66692200  0.40731600  1
  H  663  1  0.70587500  0.66232800  0.36851600  1
  H  664  1  0.68081000  0.69879100  0.35181000  1
  H  665  1  0.70301800  0.72225100  0.32762400  1
  H  666  1  0.70100100  0.67276100  0.27812800  1
  H  667  1  0.67877100  0.64930200  0.30230100  1
  H  668  1  0.63368200  0.63925800  0.31214000  1
  H  669  1  0.63476600  0.69188800  0.35846400  1
  H  670  1  0.59457100  0.70088100  0.34896000  1
  H  675  1  0.59331800  0.64808000  0.30288800  1
  H  701  1  0.70893200  0.41119300  0.66840600  1
  H  702  1  0.70392300  0.37172800  0.66730000  1
  H  703  1  0.63825700  0.41968100  0.64531700  1
  H  704  1  0.63287800  0.38055000  0.64485100  1
  H  705  1  0.63248300  0.34818000  0.61938900  1
  H  706  1  0.64024600  0.34392100  0.58079000  1
  H  707  1  0.71370800  0.33484300  0.59426200  1
  H  708  1  0.70612300  0.33951500  0.63308200  1
  H  709  1  0.68108200  0.30329500  0.64994700  1
  H  710  1  0.70318300  0.27981100  0.67418300  1
  H  711  1  0.70110500  0.32930300  0.72365600  1
  H  712  1  0.67898100  0.35279000  0.69942800  1
  H  713  1  0.63382100  0.36338200  0.68921600  1
  H  714  1  0.63519700  0.31019400  0.64355200  1
  H  715  1  0.59501400  0.30122500  0.65303500  1
  H  720  1  0.59343500  0.35457400  0.69845800  1
  H  732  1  0.21911300  0.20384700  0.24010300  1
  H  734  1  0.28174500  0.30010200  0.25778000  1
  H  746  1  0.21997100  0.79799000  0.76167600  1
  H  748  1  0.28186400  0.70123300  0.74392000  1
  H  760  1  0.78228100  0.79784800  0.24025600  1
  H  762  1  0.71952300  0.70159000  0.25785800  1
  H  774  1  0.78237000  0.20420400  0.76157100  1
  H  776  1  0.71988900  0.30060500  0.74387500  1
  H  788  1  0.78344900  0.24095000  0.20573200  1
  H  790  1  0.71824900  0.25873700  0.30036400  1
  H  802  1  0.78053400  0.76085600  0.79745200  1
  H  804  1  0.72219300  0.74211900  0.69910500  1
  H  816  1  0.21852600  0.24096300  0.79612300  1
  H  818  1  0.28357100  0.25876700  0.70140200  1
  H  830  1  0.21887100  0.76118300  0.20539100  1
  H  832  1  0.28271800  0.74342400  0.30084800  1
  H  844  1  0.20991300  0.05410000  0.15743400  1
  H  846  1  0.19461400  0.95001400  0.18378200  1
  H  858  1  0.20998500  0.94800300  0.84438800  1
  H  860  1  0.19170300  0.05175000  0.81650600  1
  H  872  1  0.79185000  0.94813300  0.15724600  1
  H  874  1  0.81260000  0.05162300  0.18629200  1
  H  886  1  0.79114100  0.05270800  0.84245700  1
  H  888  1  0.84754200  0.95276100  0.82724700  1
  H  900  1  0.19332800  0.18630100  0.05091800  1
  H  902  1  0.17179000  0.13761900  0.95139900  1
  H  914  1  0.80859200  0.18642900  0.95095100  1
  H  916  1  0.83010100  0.13756000  0.05039400  1
  H  928  1  0.19343700  0.81569900  0.95073200  1
  H  930  1  0.17193700  0.86444400  0.05026300  1
  H  942  1  0.80868200  0.81559800  0.05114900  1
  H  944  1  0.82948700  0.86469400  0.95161300  1
  H  956  1  0.05505300  0.17067000  0.20552200  1
  H  958  1  0.94801900  0.19245100  0.15454400  1
  H  970  1  0.94673800  0.83154400  0.20557200  1
  H  972  1  0.05361800  0.80965500  0.15440200  1
  H  984  1  0.94669100  0.17023200  0.79640100  1
  H  986  1  0.05370700  0.19245000  0.84722700  1
  H  998  1  0.05499300  0.83164000  0.79625100  1
  H  1000  1  0.94803200  0.80984700  0.84731000  1
  H  1012  1  0.70997800  0.55298800  0.65691700  1
  H  1014  1  0.68704500  0.44971100  0.68720000  1
  H  1026  1  0.70897300  0.44852100  0.34703400  1
  H  1028  1  0.69672400  0.55265700  0.31905000  1
  H  1040  1  0.29216000  0.44879300  0.65686600  1
  H  1042  1  0.31018200  0.55251200  0.68555700  1
  H  1054  1  0.29113600  0.55195100  0.34259800  1
  H  1056  1  0.34738000  0.45192800  0.32734300  1
  H  1068  1  0.69360400  0.68636600  0.55160600  1
  H  1070  1  0.67171700  0.63748500  0.45216100  1
  H  1082  1  0.30827400  0.68650300  0.45021600  1
  H  1084  1  0.33001600  0.63745700  0.54962700  1
  H  1096  1  0.69334800  0.31560300  0.45005300  1
  H  1098  1  0.67176000  0.36452400  0.54956400  1
  H  1110  1  0.30850200  0.31548200  0.55173800  1
  H  1112  1  0.32977500  0.36467100  0.45226600  1
  H  1124  1  0.55494200  0.67050000  0.70584200  1
  H  1126  1  0.44832500  0.69231500  0.65412500  1
  H  1138  1  0.44709100  0.33174300  0.70577100  1
  H  1140  1  0.55370000  0.30944000  0.65423600  1
  H  1152  1  0.44677700  0.67002500  0.29608000  1
  H  1154  1  0.55330000  0.69218000  0.34777400  1
  H  1166  1  0.55469100  0.33155400  0.29596300  1
  H  1168  1  0.44807800  0.30994800  0.34773600  1
  H  1194  1  0.71097300  0.17100400  0.25644500  1
  H  1195  1  0.70529800  0.16934300  0.29573300  1
  H  1196  1  0.64157400  0.14519100  0.24665400  1
  H  1197  1  0.63551900  0.14413200  0.28570500  1
  H  1198  1  0.63213900  0.12086100  0.32059700  1
  H  1199  1  0.63865500  0.08211500  0.32385800  1
  H  1200  1  0.71317700  0.09320700  0.32791100  1
  H  1201  1  0.70666000  0.13219100  0.32472800  1
  H  1202  1  0.68551600  0.14926700  0.36231900  1
  H  1203  1  0.70797200  0.17345400  0.38538500  1
  H  1204  1  0.70040400  0.22475200  0.33821400  1
  H  1205  1  0.67785600  0.20042400  0.31497900  1
  H  1206  1  0.63355200  0.18767500  0.30145200  1
  H  1207  1  0.63789200  0.14638500  0.35803000  1
  H  1208  1  0.59755400  0.15548200  0.36725700  1
  H  1213  1  0.59324500  0.19657600  0.31061600  1
  H  1239  1  0.71109500  0.83091900  0.07779290  1
  H  1240  1  0.70544500  0.83252500  0.03850190  1
  H  1241  1  0.64170900  0.85678100  0.08750990  1
  H  1242  1  0.63568000  0.85778700  0.04845990  1
  H  1243  1  0.63232500  0.88102700  0.01358490  1
  H  1244  1  0.63882000  0.91976800  0.01040690  1
  H  1245  1  0.71333900  0.90872200  0.00639093  1
  H  1246  1  0.70683800  0.86971300  0.00946893  1
  H  1247  1  0.68581200  0.85253100  0.97185800  1
  H  1248  1  0.70827200  0.82827900  0.94884400  1
  H  1249  1  0.70055300  0.77706000  0.99605500  1
  H  1250  1  0.67799400  0.80144200  0.01922190  1
  H  1251  1  0.63367100  0.81424900  0.03273890  1
  H  1252  1  0.63804500  0.85550600  0.97614400  1
  H  1253  1  0.59764400  0.84656400  0.96701400  1
  H  1258  1  0.59330300  0.80550400  0.02365890  1
  H  1284  1  0.29584800  0.83097200  0.25664800  1
  H  1285  1  0.30143400  0.83260000  0.29594900  1
  H  1286  1  0.36526100  0.85680100  0.24701400  1
  H  1287  1  0.37122300  0.85782800  0.28607100  1
  H  1288  1  0.37452900  0.88104100  0.32093300  1
  H  1289  1  0.36803800  0.91978100  0.32409000  1
  H  1290  1  0.29352100  0.90877700  0.32804900  1
  H  1291  1  0.30001800  0.86976000  0.32500000  1
  H  1292  1  0.32108800  0.85253300  0.36262000  1
  H  1293  1  0.29864800  0.82827100  0.38563300  1
  H  1294  1  0.30631400  0.77708300  0.33837600  1
  H  1295  1  0.32885100  0.80147600  0.31520900  1
  H  1296  1  0.37310100  0.81420800  0.30176100  1
  H  1297  1  0.36883600  0.85553000  0.35831500  1
  H  1298  1  0.40922100  0.84650300  0.36745200  1
  H  1303  1  0.41345100  0.80537200  0.31083300  1
  H  1329  1  0.29586600  0.17142800  0.07804490  1
  H  1330  1  0.30141400  0.16987400  0.03873790  1
  H  1331  1  0.36507800  0.14507500  0.08757490  1
  H  1332  1  0.37100800  0.14411600  0.04850990  1
  H  1333  1  0.37403900  0.12096100  0.01359890  1
  H  1334  1  0.36727000  0.08229600  0.01034690  1
  H  1335  1  0.29277700  0.09360800  0.00680593  1
  H  1336  1  0.29955600  0.13270400  0.00983993  1
  H  1337  1  0.32103400  0.14960000  0.97199600  1
  H  1338  1  0.29871300  0.17385600  0.94888600  1
  H  1339  1  0.30638000  0.22514000  0.99605000  1
  H  1340  1  0.32881100  0.20074600  0.01932590  1
  H  1341  1  0.37310400  0.18781800  0.03284090  1
  H  1342  1  0.36867500  0.14645700  0.97633400  1
  H  1343  1  0.40910000  0.15534100  0.96718200  1
  H  1348  1  0.41347600  0.19651000  0.02375290  1
  H  1374  1  0.29586800  0.08973200  0.33411000  1
  H  1375  1  0.30060600  0.12922300  0.33326200  1
  H  1376  1  0.36717800  0.08178400  0.31254400  1
  H  1377  1  0.37224500  0.12094200  0.31229800  1
  H  1378  1  0.37172600  0.15273600  0.28638500  1
  H  1379  1  0.36391000  0.15731500  0.24784200  1
  H  1380  1  0.29071500  0.16773300  0.26160800  1
  H  1381  1  0.29834100  0.16271100  0.30037600  1
  H  1382  1  0.32398300  0.19813400  0.31791200  1
  H  1383  1  0.30184500  0.22120200  0.34225700  1
  H  1384  1  0.30247300  0.17071500  0.39079700  1
  H  1385  1  0.32481600  0.14748100  0.36626900  1
  H  1386  1  0.37080000  0.13824300  0.35635900  1
  H  1387  1  0.36914700  0.19112100  0.31033200  1
  H  1388  1  0.40929100  0.20027600  0.31965400  1
  H  1393  1  0.41122700  0.14719400  0.36539300  1
  H  1419  1  0.29034400  0.90902200  0.00267493  1
  H  1420  1  0.29774900  0.86993000  0.00412693  1
  H  1421  1  0.36287200  0.92130100  0.01780590  1
  H  1422  1  0.37033700  0.88256900  0.01912690  1
  H  1423  1  0.37039400  0.85227200  0.04786990  1
  H  1424  1  0.36317900  0.84782400  0.08656190  1
  H  1425  1  0.29129500  0.83093300  0.07328690  1
  H  1426  1  0.29827700  0.83577200  0.03443190  1
  H  1427  1  0.32526100  0.80278600  0.01608690  1
  H  1428  1  0.30363800  0.77936100  0.99163600  1
  H  1429  1  0.30142100  0.83066100  0.94396800  1
  H  1430  1  0.32325300  0.85420400  0.96855200  1
  H  1431  1  0.36967500  0.86319400  0.97778200  1
  H  1432  1  0.36942000  0.81170200  0.02534690  1
  H  1433  1  0.40961900  0.80296400  0.01610690  1
  H  1438  1  0.41033200  0.85479800  0.96893400  1
  H  1464  1  0.71070200  0.08966400  0.00007393  1
  H  1465  1  0.70616800  0.12915300  0.00110393  1
  H  1466  1  0.63936900  0.08194400  0.02168490  1
  H  1467  1  0.63452900  0.12111700  0.02214190  1
  H  1468  1  0.63518600  0.15288400  0.04806490  1
  H  1469  1  0.64305600  0.15744900  0.08659890  1
  H  1470  1  0.71626000  0.16769400  0.07276290  1
  H  1471  1  0.70857900  0.16268800  0.03400290  1
  H  1472  1  0.68290300  0.19819400  0.01649890  1
  H  1473  1  0.70508400  0.22124400  0.99217500  1
  H  1474  1  0.70451900  0.17073900  0.94365500  1
  H  1475  1  0.68213100  0.14752700  0.96815900  1
  H  1476  1  0.63614200  0.13838800  0.97799300  1
  H  1477  1  0.63768000  0.19117500  0.02412390  1
  H  1478  1  0.59750500  0.20028100  0.01481390  1
  H  1483  1  0.59570600  0.14729100  0.96896900  1
  H  1509  1  0.71033000  0.91231300  0.33449400  1
  H  1510  1  0.70595700  0.87286300  0.33312400  1
  H  1511  1  0.63890100  0.92001900  0.31310400  1
  H  1512  1  0.63427500  0.88083400  0.31219900  1
  H  1513  1  0.63506000  0.84906000  0.28617100  1
  H  1514  1  0.64297000  0.84448700  0.24763700  1
  H  1515  1  0.71618700  0.83438500  0.26152300  1
  H  1516  1  0.70846400  0.83938500  0.30027700  1
  H  1517  1  0.68283300  0.80381300  0.31776000  1
  H  1518  1  0.70501100  0.78078100  0.34211100  1
  H  1519  1  0.70432900  0.83129600  0.39062500  1
  H  1520  1  0.68193800  0.85448100  0.36610000  1
  H  1521  1  0.63606500  0.86347600  0.35636100  1
  H  1522  1  0.63755500  0.81081200  0.31008300  1
  H  1523  1  0.59741300  0.80165400  0.31945900  1
  H  1528  1  0.59565700  0.85452700  0.36544400  1
  H  1554  1  0.21095200  0.67152400  0.75728500  1
  H  1555  1  0.20526300  0.66949100  0.79655300  1
  H  1556  1  0.14210300  0.64457100  0.74722700  1
  H  1557  1  0.13600600  0.64316000  0.78625500  1
  H  1558  1  0.13224400  0.62007000  0.82141400  1
  H  1559  1  0.13882700  0.58132200  0.82442100  1
  H  1560  1  0.21337700  0.59239500  0.82769700  1
  H  1561  1  0.20679500  0.63142100  0.82483200  1
  H  1562  1  0.18586600  0.64805800  0.86288700  1
  H  1563  1  0.20821100  0.67223800  0.88628200  1
  H  1564  1  0.19961800  0.72401300  0.83979800  1
  H  1565  1  0.17738800  0.69984100  0.81636300  1
  H  1566  1  0.13378900  0.68696600  0.80198100  1
  H  1567  1  0.13775600  0.64563900  0.85855500  1
  H  1568  1  0.09738590  0.65487000  0.86763200  1
  H  1573  1  0.09350390  0.69601400  0.81100500  1
  H  1599  1  0.21074200  0.33010400  0.57693900  1
  H  1600  1  0.20504000  0.33201900  0.53767100  1
  H  1601  1  0.14220000  0.35774700  0.58693200  1
  H  1602  1  0.13608100  0.35903600  0.54790800  1
  H  1603  1  0.13182400  0.38162500  0.51223800  1
  H  1604  1  0.13822600  0.42039900  0.50929600  1
  H  1605  1  0.21287400  0.40963800  0.50703200  1
  H  1606  1  0.20647600  0.37062100  0.50984000  1
  H  1607  1  0.18625900  0.35407700  0.47149000  1
  H  1608  1  0.20869400  0.33001400  0.44808000  1
  H  1609  1  0.19951600  0.27795200  0.49409700  1
  H  1610  1  0.17717400  0.30198800  0.51751800  1
  H  1611  1  0.13351800  0.31514600  0.53253900  1
  H  1612  1  0.13779900  0.35567000  0.47541200  1
  H  1613  1  0.09739990  0.34652300  0.46641600  1
  H  1618  1  0.09319190  0.30620500  0.52360000  1
  H  1644  1  0.79609600  0.33033800  0.75742700  1
  H  1645  1  0.80173600  0.33235100  0.79670700  1
  H  1646  1  0.86497400  0.35726600  0.74746000  1
  H  1647  1  0.87101700  0.35865900  0.78648800  1
  H  1648  1  0.87485200  0.38172700  0.82161400  1
  H  1649  1  0.86837600  0.42050100  0.82449600  1
  H  1650  1  0.79377700  0.40959800  0.82759300  1
  H  1651  1  0.80025900  0.37056700  0.82484200  1
  H  1652  1  0.82096400  0.35399800  0.86302500  1
  H  1653  1  0.79859400  0.32993300  0.88649000  1
  H  1654  1  0.80715800  0.27802700  0.84019100  1
  H  1655  1  0.82943700  0.30206200  0.81672900  1
  H  1656  1  0.87309100  0.31479100  0.80224200  1
  H  1657  1  0.86925000  0.35622900  0.85873400  1
  H  1658  1  0.90964900  0.34705500  0.86772300  1
  H  1663  1  0.91341100  0.30579000  0.81118100  1
  H  1689  1  0.79581700  0.67181100  0.57715500  1
  H  1690  1  0.80139200  0.66989100  0.53786300  1
  H  1691  1  0.86463300  0.64467400  0.58696700  1
  H  1692  1  0.87060700  0.64336300  0.54792800  1
  H  1693  1  0.87403200  0.62026200  0.51288800  1
  H  1694  1  0.86728300  0.58156700  0.50992600  1
  H  1695  1  0.79274500  0.59277800  0.50692400  1
  H  1696  1  0.79950000  0.63189300  0.50965000  1
  H  1697  1  0.82070400  0.64830400  0.47138900  1
  H  1698  1  0.79845700  0.67247500  0.44790200  1
  H  1699  1  0.80690900  0.72426600  0.49438800  1
  H  1700  1  0.82907400  0.70012300  0.51787700  1
  H  1701  1  0.87275200  0.68728300  0.53215800  1
  H  1702  1  0.86882900  0.64567600  0.47579900  1
  H  1703  1  0.90927000  0.65472000  0.46679900  1
  H  1708  1  0.91309500  0.69615700  0.52320900  1
  H  1734  1  0.79635600  0.59053700  0.83507500  1
  H  1735  1  0.80090400  0.63001200  0.83362800  1
  H  1736  1  0.86713600  0.58254000  0.81203900  1
  H  1737  1  0.87201800  0.62169700  0.81118300  1
  H  1738  1  0.87205000  0.65390000  0.78567900  1
  H  1739  1  0.86421300  0.65813700  0.74709000  1
  H  1740  1  0.79076700  0.66715400  0.76067300  1
  H  1741  1  0.79842300  0.66248600  0.79948300  1
  H  1742  1  0.82354800  0.69874300  0.81637000  1
  H  1743  1  0.80145800  0.72221100  0.84064300  1
  H  1744  1  0.80334500  0.67257700  0.88999900  1
  H  1745  1  0.82547100  0.64910600  0.86573300  1
  H  1746  1  0.87065800  0.63887400  0.85571700  1
  H  1747  1  0.86941600  0.69182400  0.80976100  1
  H  1748  1  0.90958100  0.70082200  0.81928600  1
  H  1753  1  0.91102400  0.64771000  0.86499600  1
  H  1779  1  0.79017300  0.40809600  0.50184300  1
  H  1780  1  0.79763900  0.36902800  0.50366800  1
  H  1781  1  0.86229400  0.42062700  0.51837800  1
  H  1782  1  0.86983400  0.38191700  0.52004400  1
  H  1783  1  0.87062200  0.35117300  0.54834200  1
  H  1784  1  0.86343000  0.34706300  0.58708200  1
  H  1785  1  0.79112900  0.33154100  0.57408800  1
  H  1786  1  0.79809800  0.33603800  0.53518700  1
  H  1787  1  0.82442100  0.30222400  0.51750300  1
  H  1788  1  0.80257600  0.27855100  0.49318700  1
  H  1789  1  0.80206000  0.32898300  0.44461100  1
  H  1790  1  0.82384300  0.35263400  0.46888900  1
  H  1791  1  0.86944800  0.36271300  0.47837200  1
  H  1792  1  0.86938000  0.31095400  0.52564100  1
  H  1793  1  0.90961500  0.30235100  0.51626900  1
  H  1798  1  0.91006400  0.35441600  0.46936000  1
  H  1824  1  0.21006900  0.59065800  0.49875800  1
  H  1825  1  0.20574200  0.63005400  0.50069400  1
  H  1826  1  0.13911800  0.58268400  0.52141100  1
  H  1827  1  0.13455200  0.62185600  0.52293600  1
  H  1828  1  0.13477500  0.65402800  0.54872800  1
  H  1829  1  0.14269700  0.65824000  0.58731200  1
  H  1830  1  0.21616400  0.66692200  0.57362600  1
  H  1831  1  0.20841200  0.66232800  0.53482600  1
  H  1832  1  0.18334700  0.69879100  0.51812000  1
  H  1833  1  0.20555500  0.72225100  0.49393400  1
  H  1834  1  0.20353800  0.67276100  0.44443800  1
  H  1835  1  0.18130800  0.64930200  0.46861100  1
  H  1836  1  0.13621900  0.63925800  0.47845000  1
  H  1837  1  0.13730300  0.69188800  0.52477400  1
  H  1838  1  0.09710790  0.70088100  0.51527000  1
  H  1843  1  0.09585490  0.64808000  0.46919800  1
  H  1869  1  0.21146900  0.41119300  0.83471600  1
  H  1870  1  0.20646000  0.37172800  0.83361000  1
  H  1871  1  0.14079400  0.41968100  0.81162700  1
  H  1872  1  0.13541500  0.38055000  0.81116100  1
  H  1873  1  0.13502000  0.34818000  0.78569900  1
  H  1874  1  0.14278300  0.34392100  0.74710000  1
  H  1875  1  0.21624500  0.33484300  0.76057200  1
  H  1876  1  0.20866000  0.33951500  0.79939200  1
  H  1877  1  0.18361900  0.30329500  0.81625700  1
  H  1878  1  0.20572000  0.27981100  0.84049300  1
  H  1879  1  0.20364200  0.32930300  0.88996600  1
  H  1880  1  0.18151800  0.35279000  0.86573800  1
  H  1881  1  0.13635800  0.36338200  0.85552600  1
  H  1882  1  0.13773400  0.31019400  0.80986200  1
  H  1883  1  0.09755090  0.30122500  0.81934500  1
  H  1888  1  0.09597190  0.35457400  0.86476800  1
  H  1900  1  0.72165000  0.20384700  0.40641300  1
  H  1902  1  0.78428200  0.30010200  0.42409000  1
  H  1914  1  0.72250800  0.79799000  0.92798600  1
  H  1916  1  0.78440100  0.70123300  0.91023000  1
  H  1928  1  0.28481800  0.79784800  0.40656600  1
  H  1930  1  0.22206000  0.70159000  0.42416800  1
  H  1942  1  0.28490700  0.20420400  0.92788100  1
  H  1944  1  0.22242600  0.30060500  0.91018500  1
  H  1956  1  0.28598600  0.24095000  0.37204200  1
  H  1958  1  0.22078600  0.25873700  0.46667400  1
  H  1970  1  0.28307100  0.76085600  0.96376200  1
  H  1972  1  0.22473000  0.74211900  0.86541500  1
  H  1984  1  0.72106300  0.24096300  0.96243300  1
  H  1986  1  0.78610800  0.25876700  0.86771200  1
  H  1998  1  0.72140800  0.76118300  0.37170100  1
  H  2000  1  0.78525500  0.74342400  0.46715800  1
  H  2012  1  0.71245000  0.05410000  0.32374400  1
  H  2014  1  0.69715100  0.95001400  0.35009200  1
  H  2026  1  0.71252200  0.94800300  0.01069790  1
  H  2028  1  0.69424000  0.05175000  0.98281600  1
  H  2040  1  0.29438700  0.94813300  0.32355600  1
  H  2042  1  0.31513700  0.05162300  0.35260200  1
  H  2054  1  0.29367800  0.05270800  0.00876693  1
  H  2056  1  0.35007900  0.95276100  0.99355700  1
  H  2068  1  0.69586500  0.18630100  0.21722800  1
  H  2070  1  0.67432700  0.13761900  0.11770900  1
  H  2082  1  0.31112900  0.18642900  0.11726100  1
  H  2084  1  0.33263800  0.13756000  0.21670400  1
  H  2096  1  0.69597400  0.81569900  0.11704200  1
  H  2098  1  0.67447400  0.86444400  0.21657300  1
  H  2110  1  0.31121900  0.81559800  0.21745900  1
  H  2112  1  0.33202400  0.86469400  0.11792300  1
  H  2124  1  0.55759000  0.17067000  0.37183200  1
  H  2126  1  0.45055600  0.19245100  0.32085400  1
  H  2138  1  0.44927500  0.83154400  0.37188200  1
  H  2140  1  0.55615500  0.80965500  0.32071200  1
  H  2152  1  0.44922800  0.17023200  0.96271100  1
  H  2154  1  0.55624400  0.19245000  0.01353690  1
  H  2166  1  0.55753000  0.83164000  0.96256100  1
  H  2168  1  0.45056900  0.80984700  0.01361990  1
  H  2180  1  0.21251500  0.55298800  0.82322700  1
  H  2182  1  0.18958200  0.44971100  0.85351000  1
  H  2194  1  0.21151000  0.44852100  0.51334400  1
  H  2196  1  0.19926100  0.55265700  0.48536000  1
  H  2208  1  0.79469700  0.44879300  0.82317600  1
  H  2210  1  0.81271900  0.55251200  0.85186700  1
  H  2222  1  0.79367300  0.55195100  0.50890800  1
  H  2224  1  0.84991700  0.45192800  0.49365300  1
  H  2236  1  0.19614100  0.68636600  0.71791600  1
  H  2238  1  0.17425400  0.63748500  0.61847100  1
  H  2250  1  0.81081100  0.68650300  0.61652600  1
  H  2252  1  0.83255300  0.63745700  0.71593700  1
  H  2264  1  0.19588500  0.31560300  0.61636300  1
  H  2266  1  0.17429700  0.36452400  0.71587400  1
  H  2278  1  0.81103900  0.31548200  0.71804800  1
  H  2280  1  0.83231200  0.36467100  0.61857600  1
  H  2292  1  0.05747890  0.67050000  0.87215200  1
  H  2294  1  0.95086200  0.69231500  0.82043500  1
  H  2306  1  0.94962800  0.33174300  0.87208100  1
  H  2308  1  0.05623690  0.30944000  0.82054600  1
  H  2320  1  0.94931400  0.67002500  0.46239000  1
  H  2322  1  0.05583690  0.69218000  0.51408400  1
  H  2334  1  0.05722790  0.33155400  0.46227300  1
  H  2336  1  0.95061500  0.30994800  0.51404600  1
  C  1  1  0.08882300  0.17683400  0.17342300  1
  C  2  1  0.10255500  0.16270900  0.18722200  1
  C  3  1  0.12636000  0.15716800  0.18153400  1
  C  4  1  0.13713700  0.16449800  0.16136200  1
  C  5  1  0.12385400  0.18050600  0.14905000  1
  C  6  1  0.10006300  0.18610900  0.15459700  1
  C  7  1  0.16214700  0.15642200  0.15427500  1
  C  8  1  0.17810600  0.17142500  0.16876100  1
  C  9  1  0.18209600  0.19412800  0.16318000  1
  C  10  1  0.19525700  0.20866300  0.17700000  1
  C  11  1  0.20426100  0.20160900  0.19776600  1
  C  12  1  0.19954500  0.17936400  0.20408700  1
  C  13  1  0.18655600  0.16486100  0.19009900  1
  C  14  1  0.16599300  0.13131300  0.15774700  1
  C  15  1  0.16650600  0.15815800  0.12905800  1
  C  16  1  0.18863800  0.16504900  0.11946500  1
  C  17  1  0.19217900  0.16590200  0.09621000  1
  C  18  1  0.17391300  0.15911900  0.08138600  1
  C  19  1  0.15245500  0.15083600  0.09055300  1
  C  20  1  0.14896000  0.15030000  0.11372600  1
  C  21  1  0.14686500  0.11564500  0.15670500  1
  C  22  1  0.15065300  0.09254500  0.15833400  1
  C  23  1  0.17395000  0.08367100  0.16032500  1
  C  24  1  0.19336300  0.09885100  0.16049500  1
  C  25  1  0.18942600  0.12198800  0.15883800  1
  C  46  1  0.08886500  0.82526600  0.82825300  1
  C  47  1  0.10264300  0.83932900  0.81442600  1
  C  48  1  0.12651200  0.84473400  0.82003000  1
  C  49  1  0.13730300  0.83739100  0.84019200  1
  C  50  1  0.12397500  0.82143600  0.85252700  1
  C  51  1  0.10014100  0.81592400  0.84703100  1
  C  52  1  0.16233200  0.84544900  0.84727900  1
  C  53  1  0.17832000  0.83042800  0.83281600  1
  C  54  1  0.18227200  0.80771800  0.83840900  1
  C  55  1  0.19545400  0.79314900  0.82462700  1
  C  56  1  0.20452900  0.80014900  0.80386700  1
  C  57  1  0.19982600  0.82239700  0.79752400  1
  C  58  1  0.18681800  0.83693600  0.81147700  1
  C  59  1  0.16617200  0.87056600  0.84379600  1
  C  60  1  0.16666100  0.84373600  0.87250900  1
  C  61  1  0.18877800  0.83683300  0.88213200  1
  C  62  1  0.19230300  0.83600100  0.90539600  1
  C  63  1  0.17404300  0.84284000  0.92020500  1
  C  64  1  0.15259000  0.85111000  0.91100900  1
  C  65  1  0.14911100  0.85161800  0.88783200  1
  C  66  1  0.14704600  0.88624200  0.84487400  1
  C  67  1  0.15082300  0.90934900  0.84329900  1
  C  68  1  0.17411500  0.91824000  0.84135500  1
  C  69  1  0.19353400  0.90306100  0.84116200  1
  C  70  1  0.18960200  0.87991000  0.84274800  1
  C  91  1  0.91286100  0.82518100  0.17359100  1
  C  92  1  0.89912200  0.83925900  0.18743600  1
  C  93  1  0.87527300  0.84472700  0.18182500  1
  C  94  1  0.86447600  0.83740400  0.16166000  1
  C  95  1  0.87775500  0.82140000  0.14933500  1
  C  96  1  0.90156700  0.81582900  0.15483300  1
  C  97  1  0.83945900  0.84548400  0.15458300  1
  C  98  1  0.82347100  0.83044800  0.16901700  1
  C  99  1  0.81951500  0.80774200  0.16341300  1
  C  100  1  0.80635600  0.79316400  0.17719600  1
  C  101  1  0.79731000  0.80015600  0.19797000  1
  C  102  1  0.80201100  0.82239800  0.20432700  1
  C  103  1  0.81499900  0.83694500  0.19037200  1
  C  104  1  0.83560500  0.87059500  0.15807800  1
  C  105  1  0.83515300  0.84377400  0.12935600  1
  C  106  1  0.81304100  0.83690200  0.11971300  1
  C  107  1  0.80955800  0.83604800  0.09645000  1
  C  108  1  0.82786100  0.84283900  0.08166900  1
  C  109  1  0.84928900  0.85114000  0.09088200  1
  C  110  1  0.85272500  0.85166200  0.11406100  1
  C  111  1  0.85473600  0.88626200  0.15699800  1
  C  112  1  0.85096300  0.90937200  0.15855900  1
  C  113  1  0.82766900  0.91826700  0.16048000  1
  C  114  1  0.80824200  0.90310400  0.16067000  1
  C  115  1  0.81217600  0.87995000  0.15910200  1
  C  136  1  0.91282300  0.17668400  0.82838400  1
  C  137  1  0.89904900  0.16257700  0.81460400  1
  C  138  1  0.87517500  0.15719600  0.82022300  1
  C  139  1  0.86436600  0.16461900  0.84034800  1
  C  140  1  0.87773200  0.18056700  0.85266400  1
  C  141  1  0.90156700  0.18605600  0.84715600  1
  C  142  1  0.83928300  0.15668700  0.84743000  1
  C  143  1  0.82340200  0.17175200  0.83293600  1
  C  144  1  0.81949200  0.19446800  0.83850100  1
  C  145  1  0.80640600  0.20904200  0.82465000  1
  C  146  1  0.79739800  0.20201500  0.80387500  1
  C  147  1  0.80206300  0.17975400  0.79756900  1
  C  148  1  0.81497100  0.16521200  0.81158400  1
  C  149  1  0.83515800  0.13161500  0.84397700  1
  C  150  1  0.83503300  0.15841600  0.87266200  1
  C  151  1  0.81299500  0.16544900  0.88233500  1
  C  152  1  0.80952900  0.16624500  0.90560300  1
  C  153  1  0.82778000  0.15927000  0.92036000  1
  C  154  1  0.84914100  0.15086200  0.91111000  1
  C  155  1  0.85256000  0.15038600  0.88792800  1
  C  156  1  0.85419700  0.11585800  0.84494400  1
  C  157  1  0.85025100  0.09280100  0.84335700  1
  C  158  1  0.82688300  0.08408800  0.84147100  1
  C  159  1  0.80751900  0.09927800  0.84144600  1
  C  160  1  0.81163800  0.12241300  0.84303300  1
  C  181  1  0.91215000  0.17401000  0.17647500  1
  C  182  1  0.89894600  0.18700600  0.16114500  1
  C  183  1  0.87511900  0.18149100  0.15561400  1
  C  184  1  0.86359600  0.16233500  0.16443300  1
  C  185  1  0.87607700  0.15128300  0.18187300  1
  C  186  1  0.89993500  0.15667800  0.18747100  1
  C  187  1  0.83852300  0.15506400  0.15674300  1
  C  188  1  0.82274400  0.16932200  0.17214200  1
  C  189  1  0.81691800  0.16270100  0.19420500  1
  C  190  1  0.80392600  0.17654200  0.20889800  1
  C  191  1  0.79691700  0.19825300  0.20273500  1
  C  192  1  0.80362200  0.20553800  0.18123900  1
  C  193  1  0.81650300  0.19160200  0.16662900  1
  C  194  1  0.83368700  0.15879300  0.13181800  1
  C  195  1  0.83504500  0.12973000  0.15816100  1
  C  196  1  0.81270400  0.11958800  0.16344600  1
  C  197  1  0.80975500  0.09624300  0.16383400  1
  C  198  1  0.82889300  0.08190300  0.15811000  1
  C  199  1  0.85062400  0.09162900  0.15122200  1
  C  200  1  0.85351900  0.11488000  0.15121000  1
  C  201  1  0.85197300  0.15633600  0.11545300  1
  C  202  1  0.84742900  0.15875500  0.09253700  1
  C  203  1  0.82404100  0.16313600  0.08469300  1
  C  204  1  0.80541900  0.16487800  0.10047300  1
  C  205  1  0.81007500  0.16206900  0.12338600  1
  C  226  1  0.91193300  0.82866200  0.82591900  1
  C  227  1  0.89903800  0.81591900  0.84168700  1
  C  228  1  0.87513700  0.82118900  0.84717400  1
  C  229  1  0.86309600  0.83980300  0.83779400  1
  C  230  1  0.87529500  0.85057300  0.82001200  1
  C  231  1  0.89929600  0.84550200  0.81454900  1
  C  232  1  0.83772500  0.84655000  0.84516800  1
  C  233  1  0.82250700  0.83191800  0.82967800  1
  C  234  1  0.81608000  0.83870800  0.80781300  1
  C  235  1  0.80337800  0.82470500  0.79308700  1
  C  236  1  0.79714500  0.80275100  0.79906700  1
  C  237  1  0.80460200  0.79528400  0.82028800  1
  C  238  1  0.81726800  0.80936200  0.83491500  1
  C  239  1  0.83308200  0.84295700  0.87012800  1
  C  240  1  0.83287000  0.87164700  0.84337400  1
  C  241  1  0.80945000  0.88044400  0.83995100  1
  C  242  1  0.80492200  0.90355500  0.83931400  1
  C  243  1  0.82358000  0.91907900  0.84255700  1
  C  244  1  0.84656600  0.91065300  0.84780100  1
  C  245  1  0.85090700  0.88760700  0.84849300  1
  C  246  1  0.85107300  0.84736600  0.88636500  1
  C  247  1  0.84686200  0.84500400  0.90934200  1
  C  248  1  0.82402900  0.83878700  0.91736500  1
  C  249  1  0.80563200  0.83513000  0.90168900  1
  C  250  1  0.80993100  0.83781700  0.87870500  1
  C  271  1  0.08964400  0.17407500  0.82529700  1
  C  272  1  0.10280900  0.18704200  0.84067900  1
  C  273  1  0.12664600  0.18155000  0.84621100  1
  C  274  1  0.13822200  0.16244400  0.83734200  1
  C  275  1  0.12578300  0.15143200  0.81984900  1
  C  276  1  0.10191200  0.15679800  0.81425800  1
  C  277  1  0.16328200  0.15514000  0.84505300  1
  C  278  1  0.17909200  0.16937500  0.82966000  1
  C  279  1  0.18495300  0.16274400  0.80760900  1
  C  280  1  0.19796900  0.17657500  0.79292500  1
  C  281  1  0.20498100  0.19828300  0.79909000  1
  C  282  1  0.19824200  0.20557800  0.82057300  1
  C  283  1  0.18533400  0.19165300  0.83517100  1
  C  284  1  0.16815000  0.15886100  0.86997500  1
  C  285  1  0.16667700  0.12979400  0.84364100  1
  C  286  1  0.18895700  0.11957100  0.83829500  1
  C  287  1  0.19177700  0.09621500  0.83779600  1
  C  288  1  0.17257100  0.08192400  0.84347500  1
  C  289  1  0.15091200  0.09173600  0.85044000  1
  C  290  1  0.14814900  0.11500200  0.85058200  1
  C  291  1  0.14987800  0.15644800  0.88635800  1
  C  292  1  0.15445400  0.15885600  0.90927100  1
  C  293  1  0.17786100  0.16317500  0.91709500  1
  C  294  1  0.19646800  0.16487800  0.90129600  1
  C  295  1  0.19178000  0.16207900  0.87838700  1
  C  316  1  0.08957700  0.82781800  0.17641100  1
  C  317  1  0.10272400  0.81487400  0.16099400  1
  C  318  1  0.12654400  0.82038900  0.15543200  1
  C  319  1  0.13809500  0.83950300  0.16430100  1
  C  320  1  0.12568500  0.85046800  0.18184500  1
  C  321  1  0.10184100  0.84507100  0.18747600  1
  C  322  1  0.16313200  0.84683800  0.15657600  1
  C  323  1  0.17896600  0.83263100  0.17197600  1
  C  324  1  0.18479500  0.83927300  0.19403200  1
  C  325  1  0.19780600  0.82545600  0.20872900  1
  C  326  1  0.20486300  0.80376000  0.20256500  1
  C  327  1  0.19815900  0.79645100  0.18107800  1
  C  328  1  0.18524800  0.81036200  0.16646800  1
  C  329  1  0.16802700  0.84314200  0.13165800  1
  C  330  1  0.16645300  0.87218100  0.15803300  1
  C  331  1  0.18870600  0.88242600  0.16339400  1
  C  332  1  0.19141600  0.90577800  0.16410600  1
  C  333  1  0.17211200  0.92007400  0.15868500  1
  C  334  1  0.15051300  0.91023800  0.15158800  1
  C  335  1  0.14787500  0.88696200  0.15117500  1
  C  336  1  0.14976300  0.84552400  0.11526500  1
  C  337  1  0.15436200  0.84311000  0.09235500  1
  C  338  1  0.17778400  0.83882100  0.08454800  1
  C  339  1  0.19638600  0.83717300  0.10035800  1
  C  340  1  0.19167300  0.83996700  0.12326400  1
  C  361  1  0.58887200  0.67626300  0.67379300  1
  C  362  1  0.60248000  0.66206300  0.68762300  1
  C  363  1  0.62629500  0.65644100  0.68202300  1
  C  364  1  0.63719700  0.66374700  0.66190100  1
  C  365  1  0.62400900  0.67979100  0.64954100  1
  C  366  1  0.60022600  0.68549200  0.65500600  1
  C  367  1  0.66226100  0.65567400  0.65494600  1
  C  368  1  0.67816200  0.67054500  0.66963100  1
  C  369  1  0.68185200  0.69337400  0.66440600  1
  C  370  1  0.69491500  0.70783800  0.67837300  1
  C  371  1  0.70437900  0.70042600  0.69891000  1
  C  372  1  0.69977900  0.67814900  0.70493200  1
  C  373  1  0.68680800  0.66373900  0.69082900  1
  C  374  1  0.66612500  0.63053600  0.65824600  1
  C  375  1  0.66666667  0.65761300  0.62975700  1
  C  376  1  0.68870700  0.66501100  0.62024100  1
  C  377  1  0.69226000  0.66609100  0.59699400  1
  C  378  1  0.67416400  0.65907000  0.58209900  1
  C  379  1  0.65285800  0.65036900  0.59118000  1
  C  380  1  0.64934500  0.64960200  0.61434000  1
  C  381  1  0.64699800  0.61486000  0.65731600  1
  C  382  1  0.65082400  0.59175300  0.65877100  1
  C  383  1  0.67415300  0.58287600  0.66044600  1
  C  384  1  0.69356000  0.59805500  0.66048100  1
  C  385  1  0.68957900  0.62120600  0.65902300  1
  C  406  1  0.58869100  0.32558600  0.32794100  1
  C  407  1  0.60242300  0.33949400  0.31392000  1
  C  408  1  0.62628800  0.34501900  0.31943600  1
  C  409  1  0.63710000  0.33797800  0.33969600  1
  C  410  1  0.62379700  0.32218000  0.35226400  1
  C  411  1  0.59999100  0.31651900  0.34683700  1
  C  412  1  0.66214000  0.34615900  0.34660800  1
  C  413  1  0.67814800  0.33140500  0.33188300  1
  C  414  1  0.68172300  0.30852200  0.33695000  1
  C  415  1  0.69482500  0.29410900  0.32294200  1
  C  416  1  0.70442000  0.30160900  0.30247800  1
  C  417  1  0.70008900  0.32399800  0.29668000  1
  C  418  1  0.68704500  0.33834900  0.31081500  1
  C  419  1  0.66580500  0.37131700  0.34328300  1
  C  420  1  0.66666667  0.34426200  0.37180700  1
  C  421  1  0.68853800  0.33666500  0.38134700  1
  C  422  1  0.69209900  0.33565000  0.40460200  1
  C  423  1  0.67411100  0.34293900  0.41948800  1
  C  424  1  0.65288600  0.35178600  0.41037800  1
  C  425  1  0.64936300  0.35248200  0.38721400  1
  C  426  1  0.64657100  0.38690500  0.34391000  1
  C  427  1  0.65028200  0.41003800  0.34251500  1
  C  428  1  0.67358600  0.41902400  0.34122300  1
  C  429  1  0.69307500  0.40392200  0.34142700  1
  C  430  1  0.68921100  0.38075900  0.34283100  1
  C  451  1  0.41305600  0.32565000  0.67388700  1
  C  452  1  0.39945400  0.33982300  0.68775300  1
  C  453  1  0.37559900  0.34538100  0.68222800  1
  C  454  1  0.36467600  0.33807500  0.66211600  1
  C  455  1  0.37783600  0.32199900  0.64976600  1
  C  456  1  0.40163400  0.31631700  0.65518900  1
  C  457  1  0.33963200  0.34619400  0.65515300  1
  C  458  1  0.32366000  0.33142000  0.66987600  1
  C  459  1  0.31995100  0.30857100  0.66474700  1
  C  460  1  0.30689900  0.29415500  0.67878500  1
  C  461  1  0.29748900  0.30161000  0.69933800  1
  C  462  1  0.30197600  0.32395500  0.70520200  1
  C  463  1  0.31497900  0.33830800  0.69104100  1
  C  464  1  0.33586000  0.37135100  0.65839700  1
  C  465  1  0.33519900  0.34421700  0.62995800  1
  C  466  1  0.31323300  0.33682800  0.62041200  1
  C  467  1  0.30971700  0.33573900  0.59715900  1
  C  468  1  0.32783000  0.34277600  0.58228700  1
  C  469  1  0.34912600  0.35146300  0.59139400  1
  C  470  1  0.35260300  0.35222100  0.61455800  1
  C  471  1  0.35502900  0.38698500  0.65745900  1
  C  472  1  0.35126800  0.41010700  0.65883000  1
  C  473  1  0.32796300  0.41904900  0.66042600  1
  C  474  1  0.30851600  0.40390800  0.66043800  1
  C  475  1  0.31243600  0.38074700  0.65905100  1
  C  496  1  0.41271000  0.67621600  0.32793500  1
  C  497  1  0.39909800  0.66196900  0.31415800  1
  C  498  1  0.37522400  0.65649000  0.31968900  1
  C  499  1  0.36427400  0.66393600  0.33973800  1
  C  500  1  0.37748700  0.67999900  0.35204800  1
  C  501  1  0.40130600  0.68560300  0.34661800  1
  C  502  1  0.33916700  0.65596300  0.34671400  1
  C  503  1  0.32330700  0.67083000  0.33199400  1
  C  504  1  0.31961500  0.69365900  0.33719000  1
  C  505  1  0.30664100  0.70812500  0.32314800  1
  C  506  1  0.29729500  0.70072900  0.30255200  1
  C  507  1  0.30180500  0.67840900  0.29661900  1
  C  508  1  0.31471300  0.66400000  0.31078300  1
  C  509  1  0.33510600  0.63085400  0.34347300  1
  C  510  1  0.33481500  0.65791700  0.37192000  1
  C  511  1  0.31289000  0.66535600  0.38151000  1
  C  512  1  0.30941000  0.66637800  0.40477100  1
  C  513  1  0.32753000  0.65926400  0.41960300  1
  C  514  1  0.34878500  0.65053800  0.41044400  1
  C  515  1  0.35222800  0.64983700  0.38727600  1
  C  516  1  0.35417700  0.61512700  0.34438800  1
  C  517  1  0.35024300  0.59205300  0.34299700  1
  C  518  1  0.32686900  0.58329900  0.34135100  1
  C  519  1  0.30748800  0.59846900  0.34139700  1
  C  520  1  0.31159100  0.62161500  0.34279800  1
  C  541  1  0.41218200  0.67452500  0.67611100  1
  C  542  1  0.39912700  0.68757400  0.66071400  1
  C  543  1  0.37530100  0.68215300  0.65506400  1
  C  544  1  0.36367000  0.66301300  0.66378700  1
  C  545  1  0.37601800  0.65189700  0.68127500  1
  C  546  1  0.39984300  0.65722500  0.68702900  1
  C  547  1  0.33860000  0.65584500  0.65598700  1
  C  548  1  0.32279500  0.67033900  0.67115000  1
  C  549  1  0.31734300  0.66415500  0.69342000  1
  C  550  1  0.30447300  0.67820000  0.70800400  1
  C  551  1  0.29706400  0.69971800  0.70135500  1
  C  552  1  0.30337600  0.70656000  0.67969500  1
  C  553  1  0.31624800  0.69244700  0.66523300  1
  C  554  1  0.33385700  0.65935300  0.63101600  1
  C  555  1  0.33507300  0.63052600  0.65761600  1
  C  556  1  0.31293800  0.62038400  0.66358100  1
  C  557  1  0.31011000  0.59703500  0.66433300  1
  C  558  1  0.32915600  0.58266800  0.65837100  1
  C  559  1  0.35064700  0.59239100  0.65086200  1
  C  560  1  0.35342700  0.61564700  0.65045400  1
  C  561  1  0.35223700  0.65717000  0.61470300  1
  C  562  1  0.34768300  0.65935300  0.59175900  1
  C  563  1  0.32421900  0.66322600  0.58385600  1
  C  564  1  0.30551700  0.66465500  0.59958300  1
  C  565  1  0.31018900  0.66206200  0.62251600  1
  C  586  1  0.41178400  0.32817800  0.32621000  1
  C  587  1  0.39896900  0.31532900  0.34194600  1
  C  588  1  0.37505900  0.32051100  0.34750600  1
  C  589  1  0.36297100  0.33916800  0.33826700  1
  C  590  1  0.37510800  0.35006900  0.32052700  1
  C  591  1  0.39908600  0.34505000  0.31495100  1
  C  592  1  0.33760200  0.34580500  0.34574000  1
  C  593  1  0.32240400  0.33092100  0.33047600  1
  C  594  1  0.31641300  0.33731600  0.30838700  1
  C  595  1  0.30373500  0.32317300  0.29378300  1
  C  596  1  0.29706900  0.30140100  0.30024400  1
  C  597  1  0.30399500  0.29435500  0.32168100  1
  C  598  1  0.31673300  0.30855600  0.33615700  1
  C  599  1  0.33307600  0.34243500  0.37074400  1
  C  600  1  0.33260900  0.37086200  0.34371700  1
  C  601  1  0.30926300  0.37958100  0.33971300  1
  C  602  1  0.30469300  0.40268200  0.33885500  1
  C  603  1  0.32322800  0.41826800  0.34240200  1
  C  604  1  0.34610600  0.40992600  0.34815500  1
  C  605  1  0.35048500  0.38689700  0.34908400  1
  C  606  1  0.35121600  0.34659500  0.38690300  1
  C  607  1  0.34701900  0.34446200  0.40991000  1
  C  608  1  0.32407500  0.33873400  0.41802300  1
  C  609  1  0.30553900  0.33538300  0.40242100  1
  C  610  1  0.30982600  0.33786800  0.37941800  1
  C  631  1  0.58953500  0.67474300  0.32563000  1
  C  632  1  0.60253400  0.68770000  0.34114500  1
  C  633  1  0.62636300  0.68227700  0.34679400  1
  C  634  1  0.63804500  0.66322100  0.33794700  1
  C  635  1  0.62576900  0.65224000  0.32032900  1
  C  636  1  0.60193300  0.65755100  0.31459800  1
  C  637  1  0.66308600  0.65596700  0.34575300  1
  C  638  1  0.67894100  0.67045700  0.33063600  1
  C  639  1  0.68439700  0.66431600  0.30835300  1
  C  640  1  0.69732900  0.67835900  0.29382000  1
  C  641  1  0.70480000  0.69983400  0.30053300  1
  C  642  1  0.69850600  0.70663300  0.32221200  1
  C  643  1  0.68556900  0.69252400  0.33662600  1
  C  644  1  0.66788900  0.65936700  0.37072600  1
  C  645  1  0.66648700  0.63064400  0.34401700  1
  C  646  1  0.68856800  0.62046100  0.33798000  1
  C  647  1  0.69124100  0.59711600  0.33691500  1
  C  648  1  0.67207800  0.58274100  0.34257700  1
  C  649  1  0.65063400  0.59251100  0.35016400  1
  C  650  1  0.64803900  0.61578200  0.35098500  1
  C  651  1  0.64953400  0.65722900  0.38706600  1
  C  652  1  0.65413900  0.65939100  0.41000400  1
  C  653  1  0.67763800  0.66315600  0.41787800  1
  C  654  1  0.69631800  0.66449900  0.40212200  1
  C  655  1  0.69158900  0.66194700  0.37919300  1
  C  676  1  0.58980200  0.32763300  0.67603100  1
  C  677  1  0.60290200  0.31451300  0.66072600  1
  C  678  1  0.62674600  0.31990900  0.65510600  1
  C  679  1  0.63835100  0.33910700  0.66374600  1
  C  680  1  0.62594900  0.35031600  0.68113800  1
  C  681  1  0.60211400  0.34499200  0.68688100  1
  C  682  1  0.66345800  0.34619300  0.65596600  1
  C  683  1  0.67920100  0.33163200  0.67111000  1
  C  684  1  0.68458600  0.33776900  0.69340700  1
  C  685  1  0.69746000  0.32370700  0.70797400  1
  C  686  1  0.70493700  0.30222700  0.70126500  1
  C  687  1  0.69867800  0.29542300  0.67958000  1
  C  688  1  0.68580100  0.30955200  0.66513400  1
  C  689  1  0.66815100  0.34268500  0.63098400  1
  C  690  1  0.66719400  0.37148300  0.65763700  1
  C  691  1  0.68944800  0.38146600  0.66352800  1
  C  692  1  0.69256700  0.40479200  0.66406300  1
  C  693  1  0.67370200  0.41926800  0.65794300  1
  C  694  1  0.65206100  0.40972000  0.65058400  1
  C  695  1  0.64899000  0.38649000  0.65041300  1
  C  696  1  0.64974700  0.34488500  0.61469600  1
  C  697  1  0.65425800  0.34269200  0.59174500  1
  C  698  1  0.67770500  0.33879600  0.58380400  1
  C  699  1  0.69642900  0.33735600  0.59950700  1
  C  700  1  0.69180300  0.33995500  0.62244600  1
  C  721  1  0.23715400  0.23382000  0.24001800  1
  C  723  1  0.25403200  0.27059100  0.23580700  1
  C  724  1  0.26414400  0.26986900  0.25753100  1
  C  726  1  0.24727100  0.23310400  0.26174200  1
  C  727  1  0.24536200  0.21632200  0.27529900  1
  C  728  1  0.25594200  0.28740800  0.22229500  1
  C  731  1  0.22364500  0.21659700  0.23050500  1
  C  733  1  0.27757600  0.28708600  0.26715000  1
  C  735  1  0.23757600  0.76777900  0.76169600  1
  C  737  1  0.25431900  0.73093500  0.76590200  1
  C  738  1  0.26432200  0.73152700  0.74412500  1
  C  740  1  0.24760300  0.76838000  0.73992600  1
  C  741  1  0.24571300  0.78513900  0.72633600  1
  C  742  1  0.25625100  0.71416500  0.77946700  1
  C  745  1  0.22419200  0.78511400  0.77122700  1
  C  747  1  0.27766900  0.71421400  0.73450600  1
  C  749  1  0.76437400  0.76779900  0.24018600  1
  C  751  1  0.74746900  0.73102600  0.23597900  1
  C  752  1  0.73746500  0.73166800  0.25775400  1
  C  754  1  0.75434500  0.76845000  0.26195300  1
  C  755  1  0.75629100  0.78521700  0.27552400  1
  C  756  1  0.74548100  0.71425300  0.22242600  1
  C  759  1  0.77783900  0.78507100  0.23066000  1
  C  761  1  0.72401000  0.71442500  0.26735300  1
  C  763  1  0.76454500  0.23429800  0.76158400  1
  C  765  1  0.74772800  0.27110500  0.76577200  1
  C  766  1  0.73767700  0.27044600  0.74401900  1
  C  768  1  0.75448100  0.23363000  0.73983400  1
  C  769  1  0.75637100  0.21683500  0.72628800  1
  C  770  1  0.74580000  0.28789600  0.77931300  1
  C  773  1  0.77797500  0.21702400  0.77113400  1
  C  775  1  0.72424300  0.28770200  0.73442100  1
  C  777  1  0.76440300  0.24079100  0.23511100  1
  C  779  1  0.74714100  0.23690500  0.27175900  1
  C  780  1  0.73708600  0.25865300  0.27081400  1
  C  782  1  0.75432200  0.26253100  0.23415300  1
  C  783  1  0.75633700  0.27591400  0.21723900  1
  C  784  1  0.74505000  0.22351600  0.28865200  1
  C  787  1  0.77818100  0.23118800  0.21810700  1
  C  789  1  0.72332200  0.26832900  0.28779700  1
  C  791  1  0.76413900  0.76058600  0.76671100  1
  C  793  1  0.74778900  0.76479200  0.72973400  1
  C  794  1  0.73802300  0.74292200  0.73016800  1
  C  796  1  0.75435000  0.73872600  0.76715400  1
  C  797  1  0.75621900  0.72505500  0.78384600  1
  C  798  1  0.74580900  0.77846500  0.71305700  1
  C  801  1  0.77716000  0.77018700  0.78420900  1
  C  803  1  0.72503600  0.73317500  0.71272100  1
  C  805  1  0.23753300  0.24080500  0.76672100  1
  C  807  1  0.25478200  0.23691100  0.73006800  1
  C  808  1  0.26483000  0.25866200  0.73100500  1
  C  810  1  0.24760900  0.26254400  0.76767300  1
  C  811  1  0.24558200  0.27593900  0.78457500  1
  C  812  1  0.25686300  0.22352200  0.71317500  1
  C  815  1  0.22376000  0.23120400  0.78373200  1
  C  817  1  0.27856300  0.26834300  0.71400600  1
  C  819  1  0.23747400  0.76135300  0.23501400  1
  C  821  1  0.25453300  0.76537900  0.27173000  1
  C  822  1  0.26454600  0.74361100  0.27092900  1
  C  824  1  0.24751400  0.73959400  0.23420100  1
  C  825  1  0.24554700  0.72611400  0.21736000  1
  C  826  1  0.25656800  0.77884800  0.28856700  1
  C  829  1  0.22383000  0.77091400  0.21789700  1
  C  831  1  0.27812300  0.73394300  0.28803500  1
  C  833  1  0.19118300  0.02478700  0.16186800  1
  C  835  1  0.16633500  0.99366900  0.17276800  1
  C  836  1  0.18498000  0.97852600  0.16743900  1
  C  838  1  0.20968000  0.00940800  0.15644800  1
  C  839  1  0.23067000  0.01479100  0.14863600  1
  C  840  1  0.14575900  0.98772100  0.18107500  1
  C  843  1  0.19367000  0.04787900  0.16014200  1
  C  845  1  0.18482000  0.95581300  0.17124300  1
  C  847  1  0.19104600  0.97721400  0.83984000  1
  C  849  1  0.16600200  0.00808700  0.82862900  1
  C  850  1  0.18436600  0.02342700  0.83420700  1
  C  852  1  0.20930100  0.99278000  0.84543400  1
  C  853  1  0.23027300  0.98756900  0.85340500  1
  C  854  1  0.14541200  0.01382800  0.82019800  1
  C  857  1  0.19371500  0.95413200  0.84160100  1
  C  859  1  0.18386200  0.04611100  0.83024300  1
  C  861  1  0.81088600  0.97726800  0.16197900  1
  C  863  1  0.83608800  0.00794500  0.17337100  1
  C  864  1  0.81786200  0.02341800  0.16775800  1
  C  866  1  0.79277100  0.99296300  0.15633300  1
  C  867  1  0.77179900  0.98786900  0.14829000  1
  C  868  1  0.85671700  0.01352800  0.18182500  1
  C  871  1  0.80812000  0.95420100  0.16015000  1
  C  873  1  0.81869700  0.04608600  0.17177100  1
  C  875  1  0.81272900  0.02477400  0.83893500  1
  C  877  1  0.84162300  0.99679400  0.82839100  1
  C  878  1  0.82588800  0.97940800  0.83507100  1
  C  880  1  0.79680000  0.00742400  0.84526100  1
  C  881  1  0.77547500  0.01070600  0.85343900  1
  C  882  1  0.86304400  0.99391700  0.82023000  1
  C  885  1  0.80794600  0.04754900  0.84054500  1
  C  887  1  0.83191900  0.95684100  0.83412300  1
  C  889  1  0.18495300  0.16835600  0.02269500  1
  C  891  1  0.19147700  0.14226700  0.99293800  1
  C  892  1  0.18273500  0.15775900  0.97705200  1
  C  894  1  0.17673500  0.18406500  0.00679300  1
  C  895  1  0.16881500  0.20378400  0.01187200  1
  C  896  1  0.19928800  0.12247700  0.98799800  1
  C  899  1  0.18615700  0.17217300  0.04547100  1
  C  901  1  0.17847400  0.15258700  0.95482500  1
  C  903  1  0.81696100  0.16838300  0.97910900  1
  C  905  1  0.81045300  0.14225600  0.00883700  1
  C  906  1  0.81920600  0.15772500  0.02473700  1
  C  908  1  0.82521200  0.18406000  0.99502700  1
  C  909  1  0.83312800  0.20378300  0.98996700  1
  C  910  1  0.80263700  0.12246500  0.01376000  1
  C  913  1  0.81570800  0.17225300  0.95634500  1
  C  915  1  0.82344700  0.15254000  0.04696400  1
  C  917  1  0.18501800  0.83366700  0.97893900  1
  C  919  1  0.19153500  0.85975100  0.00870700  1
  C  920  1  0.18278200  0.84426400  0.02459400  1
  C  922  1  0.17679000  0.81796500  0.99484200  1
  C  923  1  0.16889600  0.79823800  0.98976500  1
  C  924  1  0.19937100  0.87953000  0.01365200  1
  C  927  1  0.18626300  0.82983500  0.95616300  1
  C  929  1  0.17853200  0.84944200  0.04682700  1
  C  931  1  0.81698400  0.83363000  0.02296000  1
  C  933  1  0.81041000  0.85978500  0.99327400  1
  C  934  1  0.81917200  0.84434400  0.97734300  1
  C  936  1  0.82522800  0.81797300  0.00702100  1
  C  937  1  0.83319500  0.79825700  0.01204700  1
  C  938  1  0.80253300  0.87956700  0.98839400  1
  C  941  1  0.81580000  0.82976000  0.04572400  1
  C  943  1  0.82331600  0.84955500  0.95510600  1
  C  945  1  0.02530200  0.18063600  0.18732300  1
  C  947  1  0.99539900  0.19252100  0.16085100  1
  C  948  1  0.97656100  0.18533400  0.17507300  1
  C  950  1  0.00647000  0.17416900  0.20189300  1
  C  951  1  0.00976800  0.16540000  0.22144300  1
  C  952  1  0.99245800  0.20117600  0.14119400  1
  C  955  1  0.04972900  0.17710200  0.19113500  1
  C  957  1  0.95235000  0.18586100  0.16914000  1
  C  959  1  0.97642100  0.82142100  0.18737000  1
  C  961  1  0.00626100  0.80951300  0.16084600  1
  C  962  1  0.02513600  0.81667700  0.17503800  1
  C  964  1  0.99529200  0.82787800  0.20190500  1
  C  965  1  0.99204300  0.83663400  0.22146800  1
  C  966  1  0.00916500  0.80083300  0.14119400  1
  C  969  1  0.95200000  0.82495100  0.19124100  1
  C  971  1  0.04933300  0.81613400  0.16905900  1
  C  973  1  0.97640900  0.18039300  0.81453400  1
  C  975  1  0.00631200  0.19234600  0.84097900  1
  C  976  1  0.02516600  0.18521400  0.82674100  1
  C  978  1  0.99525400  0.17398400  0.79994700  1
  C  979  1  0.99197100  0.16526000  0.78037500  1
  C  980  1  0.00925300  0.20100100  0.86063700  1
  C  983  1  0.95197300  0.17683700  0.81072000  1
  C  985  1  0.04938700  0.18581000  0.83265200  1
  C  987  1  0.02523700  0.82173300  0.81447100  1
  C  989  1  0.99533300  0.80991800  0.84097000  1
  C  990  1  0.97647300  0.81723800  0.82682400  1
  C  992  1  0.00638500  0.82829500  0.79995500  1
  C  993  1  0.00969000  0.83702400  0.78039000  1
  C  994  1  0.99242300  0.80117200  0.86059200  1
  C  997  1  0.04968800  0.82517600  0.81062700  1
  C  999  1  0.95226500  0.81671700  0.83283000  1
  C  1001  1  0.69096600  0.52388200  0.66196000  1
  C  1003  1  0.66571900  0.49334700  0.67362500  1
  C  1004  1  0.68384800  0.47778000  0.66800800  1
  C  1006  1  0.70901600  0.50810100  0.65636000  1
  C  1007  1  0.72999400  0.51312500  0.64828200  1
  C  1008  1  0.64505200  0.48788000  0.68207500  1
  C  1011  1  0.69373400  0.54693800  0.65998100  1
  C  1013  1  0.68276400  0.45512400  0.67208600  1
  C  1015  1  0.69098400  0.47790400  0.34074700  1
  C  1017  1  0.66654600  0.50922800  0.32957800  1
  C  1018  1  0.68546700  0.52419000  0.33456700  1
  C  1020  1  0.70976100  0.49310500  0.34582500  1
  C  1021  1  0.73074400  0.48758400  0.35356600  1
  C  1022  1  0.64600000  0.51534900  0.32133200  1
  C  1025  1  0.69311500  0.45480300  0.34289400  1
  C  1027  1  0.68566800  0.54689600  0.33066700  1
  C  1029  1  0.31095300  0.47801000  0.66180200  1
  C  1031  1  0.33590800  0.50887900  0.67317200  1
  C  1032  1  0.31744200  0.52419300  0.66780000  1
  C  1034  1  0.29262000  0.49355700  0.65636300  1
  C  1035  1  0.27165000  0.48833800  0.64839500  1
  C  1036  1  0.35650800  0.51462000  0.68157700  1
  C  1039  1  0.30837300  0.45493300  0.65989100  1
  C  1041  1  0.31794400  0.54687300  0.67178200  1
  C  1043  1  0.31264100  0.52398400  0.33895600  1
  C  1045  1  0.34143900  0.49595700  0.32830600  1
  C  1046  1  0.32564900  0.47859200  0.33493000  1
  C  1048  1  0.29665400  0.50665500  0.34521600  1
  C  1049  1  0.27534000  0.50996600  0.35340700  1
  C  1050  1  0.36284900  0.49305400  0.32013500  1
  C  1053  1  0.30792000  0.54676800  0.34061600  1
  C  1055  1  0.33164900  0.45601400  0.33400200  1
  C  1057  1  0.68514000  0.66839200  0.52340900  1
  C  1059  1  0.69152800  0.64222600  0.49368900  1
  C  1060  1  0.68267800  0.65766600  0.47780300  1
  C  1062  1  0.67682000  0.68405000  0.50750400  1
  C  1063  1  0.66891000  0.70377700  0.51256200  1
  C  1064  1  0.69934800  0.62243400  0.48877000  1
  C  1067  1  0.68641300  0.67224000  0.54617600  1
  C  1069  1  0.67836000  0.65246900  0.45558900  1
  C  1071  1  0.31675100  0.66843700  0.47834700  1
  C  1073  1  0.31036800  0.64224100  0.50804300  1
  C  1074  1  0.31921800  0.65766500  0.52394200  1
  C  1076  1  0.32510200  0.68406600  0.49426300  1
  C  1077  1  0.33301500  0.70379600  0.48922500  1
  C  1078  1  0.30254300  0.62244900  0.51294800  1
  C  1081  1  0.31542600  0.67233700  0.45559100  1
  C  1083  1  0.32347900  0.65247400  0.54616600  1
  C  1085  1  0.68496800  0.33365100  0.47823400  1
  C  1087  1  0.69138600  0.35980000  0.50797200  1
  C  1088  1  0.68257900  0.34434600  0.52386400  1
  C  1090  1  0.67667600  0.31798700  0.49414600  1
  C  1091  1  0.66879000  0.29825200  0.48909700  1
  C  1092  1  0.69922200  0.37958200  0.51289800  1
  C  1095  1  0.68625800  0.32978200  0.45546400  1
  C  1097  1  0.67833800  0.34952400  0.54609800  1
  C  1099  1  0.31695000  0.33351900  0.52357200  1
  C  1101  1  0.31050500  0.35975200  0.49392200  1
  C  1102  1  0.31932200  0.34434600  0.47798600  1
  C  1104  1  0.32526100  0.31790300  0.50762400  1
  C  1105  1  0.33321800  0.29817800  0.51262300  1
  C  1106  1  0.30264500  0.37954400  0.48905900  1
  C  1109  1  0.31570600  0.32961100  0.54632800  1
  C  1111  1  0.32350600  0.34956600  0.45575900  1
  C  1113  1  0.52532700  0.68052100  0.68746700  1
  C  1115  1  0.49563400  0.69255400  0.66085500  1
  C  1116  1  0.47667600  0.68541100  0.67496300  1
  C  1118  1  0.50637700  0.67412500  0.70193900  1
  C  1119  1  0.50952500  0.66533400  0.72149800  1
  C  1120  1  0.49283900  0.70125900  0.64120100  1
  C  1123  1  0.54971400  0.67686500  0.69139600  1
  C  1125  1  0.45250900  0.68598000  0.66887000  1
  C  1127  1  0.47665600  0.32154200  0.68744000  1
  C  1129  1  0.50634700  0.30951400  0.66082200  1
  C  1130  1  0.52531200  0.31662700  0.67493800  1
  C  1132  1  0.49561200  0.32793400  0.70190600  1
  C  1133  1  0.49247100  0.33670100  0.72147900  1
  C  1134  1  0.50913900  0.30080300  0.64117100  1
  C  1137  1  0.45226300  0.32517300  0.69140100  1
  C  1139  1  0.54949000  0.31599500  0.66887600  1
  C  1141  1  0.47632900  0.68030100  0.31439000  1
  C  1143  1  0.50599300  0.69238900  0.34100500  1
  C  1144  1  0.52497700  0.68532500  0.32688400  1
  C  1146  1  0.49530400  0.67396000  0.29991600  1
  C  1147  1  0.49218600  0.66519900  0.28033800  1
  C  1148  1  0.50877200  0.70107700  0.36066900  1
  C  1151  1  0.45194200  0.67662400  0.31043700  1
  C  1153  1  0.54914300  0.68593900  0.33298100  1
  C  1155  1  0.52505200  0.32170100  0.31438200  1
  C  1157  1  0.49532900  0.30982300  0.34102800  1
  C  1158  1  0.47637400  0.31711000  0.32697800  1
  C  1160  1  0.50610600  0.32823600  0.29996100  1
  C  1161  1  0.50928800  0.33700000  0.28039500  1
  C  1162  1  0.49254300  0.30106300  0.36065900  1
  C  1165  1  0.54946800  0.32519700  0.31041200  1
  C  1167  1  0.45220400  0.31657600  0.33311400  1
  C  1169  1  0.59136000  0.17683400  0.33973300  1
  C  1170  1  0.60509200  0.16270900  0.35353200  1
  C  1171  1  0.62889700  0.15716800  0.34784400  1
  C  1172  1  0.63967400  0.16449800  0.32767200  1
  C  1173  1  0.62639100  0.18050600  0.31536000  1
  C  1174  1  0.60260000  0.18610900  0.32090700  1
  C  1175  1  0.66468400  0.15642200  0.32058500  1
  C  1176  1  0.68064300  0.17142500  0.33507100  1
  C  1177  1  0.68463300  0.19412800  0.32949000  1
  C  1178  1  0.69779400  0.20866300  0.34331000  1
  C  1179  1  0.70679800  0.20160900  0.36407600  1
  C  1180  1  0.70208200  0.17936400  0.37039700  1
  C  1181  1  0.68909300  0.16486100  0.35640900  1
  C  1182  1  0.66853000  0.13131300  0.32405700  1
  C  1183  1  0.66904300  0.15815800  0.29536800  1
  C  1184  1  0.69117500  0.16504900  0.28577500  1
  C  1185  1  0.69471600  0.16590200  0.26252000  1
  C  1186  1  0.67645000  0.15911900  0.24769600  1
  C  1187  1  0.65499200  0.15083600  0.25686300  1
  C  1188  1  0.65149700  0.15030000  0.28003600  1
  C  1189  1  0.64940200  0.11564500  0.32301500  1
  C  1190  1  0.65319000  0.09254500  0.32464400  1
  C  1191  1  0.67648700  0.08367100  0.32663500  1
  C  1192  1  0.69590000  0.09885100  0.32680500  1
  C  1193  1  0.69196300  0.12198800  0.32514800  1
  C  1214  1  0.59140200  0.82526600  0.99456300  1
  C  1215  1  0.60518000  0.83932900  0.98073600  1
  C  1216  1  0.62904900  0.84473400  0.98634000  1
  C  1217  1  0.63984000  0.83739100  0.00650193  1
  C  1218  1  0.62651200  0.82143600  0.01883690  1
  C  1219  1  0.60267800  0.81592400  0.01334090  1
  C  1220  1  0.66486900  0.84544900  0.01358890  1
  C  1221  1  0.68085700  0.83042800  0.99912600  1
  C  1222  1  0.68480900  0.80771800  0.00471893  1
  C  1223  1  0.69799100  0.79314900  0.99093700  1
  C  1224  1  0.70706600  0.80014900  0.97017700  1
  C  1225  1  0.70236300  0.82239700  0.96383400  1
  C  1226  1  0.68935500  0.83693600  0.97778700  1
  C  1227  1  0.66870900  0.87056600  0.01010590  1
  C  1228  1  0.66919800  0.84373600  0.03881890  1
  C  1229  1  0.69131500  0.83683300  0.04844190  1
  C  1230  1  0.69484000  0.83600100  0.07170590  1
  C  1231  1  0.67658000  0.84284000  0.08651490  1
  C  1232  1  0.65512700  0.85111000  0.07731890  1
  C  1233  1  0.65164800  0.85161800  0.05414190  1
  C  1234  1  0.64958300  0.88624200  0.01118390  1
  C  1235  1  0.65336000  0.90934900  0.00960893  1
  C  1236  1  0.67665200  0.91824000  0.00766493  1
  C  1237  1  0.69607100  0.90306100  0.00747193  1
  C  1238  1  0.69213900  0.87991000  0.00905793  1
  C  1259  1  0.41539800  0.82518100  0.33990100  1
  C  1260  1  0.40165900  0.83925900  0.35374600  1
  C  1261  1  0.37781000  0.84472700  0.34813500  1
  C  1262  1  0.36701300  0.83740400  0.32797000  1
  C  1263  1  0.38029200  0.82140000  0.31564500  1
  C  1264  1  0.40410400  0.81582900  0.32114300  1
  C  1265  1  0.34199600  0.84548400  0.32089300  1
  C  1266  1  0.32600800  0.83044800  0.33532700  1
  C  1267  1  0.32205200  0.80774200  0.32972300  1
  C  1268  1  0.30889300  0.79316400  0.34350600  1
  C  1269  1  0.29984700  0.80015600  0.36428000  1
  C  1270  1  0.30454800  0.82239800  0.37063700  1
  C  1271  1  0.31753600  0.83694500  0.35668200  1
  C  1272  1  0.33814200  0.87059500  0.32438800  1
  C  1273  1  0.33769000  0.84377400  0.29566600  1
  C  1274  1  0.31557800  0.83690200  0.28602300  1
  C  1275  1  0.31209500  0.83604800  0.26276000  1
  C  1276  1  0.33039800  0.84283900  0.24797900  1
  C  1277  1  0.35182600  0.85114000  0.25719200  1
  C  1278  1  0.35526200  0.85166200  0.28037100  1
  C  1279  1  0.35727300  0.88626200  0.32330800  1
  C  1280  1  0.35350000  0.90937200  0.32486900  1
  C  1281  1  0.33020600  0.91826700  0.32679000  1
  C  1282  1  0.31077900  0.90310400  0.32698000  1
  C  1283  1  0.31471300  0.87995000  0.32541200  1
  C  1304  1  0.41536000  0.17668400  0.99469400  1
  C  1305  1  0.40158600  0.16257700  0.98091400  1
  C  1306  1  0.37771200  0.15719600  0.98653300  1
  C  1307  1  0.36690300  0.16461900  0.00665793  1
  C  1308  1  0.38026900  0.18056700  0.01897390  1
  C  1309  1  0.40410400  0.18605600  0.01346590  1
  C  1310  1  0.34182000  0.15668700  0.01373990  1
  C  1311  1  0.32593900  0.17175200  0.99924600  1
  C  1312  1  0.32202900  0.19446800  0.00481093  1
  C  1313  1  0.30894300  0.20904200  0.99096000  1
  C  1314  1  0.29993500  0.20201500  0.97018500  1
  C  1315  1  0.30460000  0.17975400  0.96387900  1
  C  1316  1  0.31750800  0.16521200  0.97789400  1
  C  1317  1  0.33769500  0.13161500  0.01028690  1
  C  1318  1  0.33757000  0.15841600  0.03897190  1
  C  1319  1  0.31553200  0.16544900  0.04864490  1
  C  1320  1  0.31206600  0.16624500  0.07191290  1
  C  1321  1  0.33031700  0.15927000  0.08666990  1
  C  1322  1  0.35167800  0.15086200  0.07741990  1
  C  1323  1  0.35509700  0.15038600  0.05423790  1
  C  1324  1  0.35673400  0.11585800  0.01125390  1
  C  1325  1  0.35278800  0.09280100  0.00966693  1
  C  1326  1  0.32942000  0.08408800  0.00778093  1
  C  1327  1  0.31005600  0.09927800  0.00775593  1
  C  1328  1  0.31417500  0.12241300  0.00934293  1
  C  1349  1  0.41468700  0.17401000  0.34278500  1
  C  1350  1  0.40148300  0.18700600  0.32745500  1
  C  1351  1  0.37765600  0.18149100  0.32192400  1
  C  1352  1  0.36613300  0.16233500  0.33074300  1
  C  1353  1  0.37861400  0.15128300  0.34818300  1
  C  1354  1  0.40247200  0.15667800  0.35378100  1
  C  1355  1  0.34106000  0.15506400  0.32305300  1
  C  1356  1  0.32528100  0.16932200  0.33845200  1
  C  1357  1  0.31945500  0.16270100  0.36051500  1
  C  1358  1  0.30646300  0.17654200  0.37520800  1
  C  1359  1  0.29945400  0.19825300  0.36904500  1
  C  1360  1  0.30615900  0.20553800  0.34754900  1
  C  1361  1  0.31904000  0.19160200  0.33293900  1
  C  1362  1  0.33622400  0.15879300  0.29812800  1
  C  1363  1  0.33758200  0.12973000  0.32447100  1
  C  1364  1  0.31524100  0.11958800  0.32975600  1
  C  1365  1  0.31229200  0.09624300  0.33014400  1
  C  1366  1  0.33143000  0.08190300  0.32442000  1
  C  1367  1  0.35316100  0.09162900  0.31753200  1
  C  1368  1  0.35605600  0.11488000  0.31752000  1
  C  1369  1  0.35451000  0.15633600  0.28176300  1
  C  1370  1  0.34996600  0.15875500  0.25884700  1
  C  1371  1  0.32657800  0.16313600  0.25100300  1
  C  1372  1  0.30795600  0.16487800  0.26678300  1
  C  1373  1  0.31261200  0.16206900  0.28969600  1
  C  1394  1  0.41447000  0.82866200  0.99222900  1
  C  1395  1  0.40157500  0.81591900  0.00799693  1
  C  1396  1  0.37767400  0.82118900  0.01348390  1
  C  1397  1  0.36563300  0.83980300  0.00410393  1
  C  1398  1  0.37783200  0.85057300  0.98632200  1
  C  1399  1  0.40183300  0.84550200  0.98085900  1
  C  1400  1  0.34026200  0.84655000  0.01147790  1
  C  1401  1  0.32504400  0.83191800  0.99598800  1
  C  1402  1  0.31861700  0.83870800  0.97412300  1
  C  1403  1  0.30591500  0.82470500  0.95939700  1
  C  1404  1  0.29968200  0.80275100  0.96537700  1
  C  1405  1  0.30713900  0.79528400  0.98659800  1
  C  1406  1  0.31980500  0.80936200  0.00122493  1
  C  1407  1  0.33561900  0.84295700  0.03643790  1
  C  1408  1  0.33540700  0.87164700  0.00968393  1
  C  1409  1  0.31198700  0.88044400  0.00626093  1
  C  1410  1  0.30745900  0.90355500  0.00562393  1
  C  1411  1  0.32611700  0.91907900  0.00886693  1
  C  1412  1  0.34910300  0.91065300  0.01411090  1
  C  1413  1  0.35344400  0.88760700  0.01480290  1
  C  1414  1  0.35361000  0.84736600  0.05267490  1
  C  1415  1  0.34939900  0.84500400  0.07565190  1
  C  1416  1  0.32656600  0.83878700  0.08367490  1
  C  1417  1  0.30816900  0.83513000  0.06799890  1
  C  1418  1  0.31246800  0.83781700  0.04501490  1
  C  1439  1  0.59218100  0.17407500  0.99160700  1
  C  1440  1  0.60534600  0.18704200  0.00698893  1
  C  1441  1  0.62918300  0.18155000  0.01252090  1
  C  1442  1  0.64075900  0.16244400  0.00365193  1
  C  1443  1  0.62832000  0.15143200  0.98615900  1
  C  1444  1  0.60444900  0.15679800  0.98056800  1
  C  1445  1  0.66581900  0.15514000  0.01136290  1
  C  1446  1  0.68162900  0.16937500  0.99597000  1
  C  1447  1  0.68749000  0.16274400  0.97391900  1
  C  1448  1  0.70050600  0.17657500  0.95923500  1
  C  1449  1  0.70751800  0.19828300  0.96540000  1
  C  1450  1  0.70077900  0.20557800  0.98688300  1
  C  1451  1  0.68787100  0.19165300  0.00148093  1
  C  1452  1  0.67068700  0.15886100  0.03628490  1
  C  1453  1  0.66921400  0.12979400  0.00995093  1
  C  1454  1  0.69149400  0.11957100  0.00460493  1
  C  1455  1  0.69431400  0.09621500  0.00410593  1
  C  1456  1  0.67510800  0.08192400  0.00978493  1
  C  1457  1  0.65344900  0.09173600  0.01674990  1
  C  1458  1  0.65068600  0.11500200  0.01689190  1
  C  1459  1  0.65241500  0.15644800  0.05266790  1
  C  1460  1  0.65699100  0.15885600  0.07558090  1
  C  1461  1  0.68039800  0.16317500  0.08340490  1
  C  1462  1  0.69900500  0.16487800  0.06760590  1
  C  1463  1  0.69431700  0.16207900  0.04469690  1
  C  1484  1  0.59211400  0.82781800  0.34272100  1
  C  1485  1  0.60526100  0.81487400  0.32730400  1
  C  1486  1  0.62908100  0.82038900  0.32174200  1
  C  1487  1  0.64063200  0.83950300  0.33061100  1
  C  1488  1  0.62822200  0.85046800  0.34815500  1
  C  1489  1  0.60437800  0.84507100  0.35378600  1
  C  1490  1  0.66566900  0.84683800  0.32288600  1
  C  1491  1  0.68150300  0.83263100  0.33828600  1
  C  1492  1  0.68733200  0.83927300  0.36034200  1
  C  1493  1  0.70034300  0.82545600  0.37503900  1
  C  1494  1  0.70740000  0.80376000  0.36887500  1
  C  1495  1  0.70069600  0.79645100  0.34738800  1
  C  1496  1  0.68778500  0.81036200  0.33277800  1
  C  1497  1  0.67056400  0.84314200  0.29796800  1
  C  1498  1  0.66899000  0.87218100  0.32434300  1
  C  1499  1  0.69124300  0.88242600  0.32970400  1
  C  1500  1  0.69395300  0.90577800  0.33041600  1
  C  1501  1  0.67464900  0.92007400  0.32499500  1
  C  1502  1  0.65305000  0.91023800  0.31789800  1
  C  1503  1  0.65041200  0.88696200  0.31748500  1
  C  1504  1  0.65230000  0.84552400  0.28157500  1
  C  1505  1  0.65689900  0.84311000  0.25866500  1
  C  1506  1  0.68032100  0.83882100  0.25085800  1
  C  1507  1  0.69892300  0.83717300  0.26666800  1
  C  1508  1  0.69421000  0.83996700  0.28957400  1
  C  1529  1  0.09140890  0.67626300  0.84010300  1
  C  1530  1  0.10501700  0.66206300  0.85393300  1
  C  1531  1  0.12883200  0.65644100  0.84833300  1
  C  1532  1  0.13973400  0.66374700  0.82821100  1
  C  1533  1  0.12654600  0.67979100  0.81585100  1
  C  1534  1  0.10276300  0.68549200  0.82131600  1
  C  1535  1  0.16479800  0.65567400  0.82125600  1
  C  1536  1  0.18069900  0.67054500  0.83594100  1
  C  1537  1  0.18438900  0.69337400  0.83071600  1
  C  1538  1  0.19745200  0.70783800  0.84468300  1
  C  1539  1  0.20691600  0.70042600  0.86522000  1
  C  1540  1  0.20231600  0.67814900  0.87124200  1
  C  1541  1  0.18934500  0.66373900  0.85713900  1
  C  1542  1  0.16866200  0.63053600  0.82455600  1
  C  1543  1  0.16926500  0.65761300  0.79606700  1
  C  1544  1  0.19124400  0.66501100  0.78655100  1
  C  1545  1  0.19479700  0.66609100  0.76330400  1
  C  1546  1  0.17670100  0.65907000  0.74840900  1
  C  1547  1  0.15539500  0.65036900  0.75749000  1
  C  1548  1  0.15188200  0.64960200  0.78065000  1
  C  1549  1  0.14953500  0.61486000  0.82362600  1
  C  1550  1  0.15336100  0.59175300  0.82508100  1
  C  1551  1  0.17669000  0.58287600  0.82675600  1
  C  1552  1  0.19609700  0.59805500  0.82679100  1
  C  1553  1  0.19211600  0.62120600  0.82533300  1
  C  1574  1  0.09122790  0.32558600  0.49425100  1
  C  1575  1  0.10496000  0.33949400  0.48023000  1
  C  1576  1  0.12882500  0.34501900  0.48574600  1
  C  1577  1  0.13963700  0.33797800  0.50600600  1
  C  1578  1  0.12633400  0.32218000  0.51857400  1
  C  1579  1  0.10252800  0.31651900  0.51314700  1
  C  1580  1  0.16467700  0.34615900  0.51291800  1
  C  1581  1  0.18068500  0.33140500  0.49819300  1
  C  1582  1  0.18426000  0.30852200  0.50326000  1
  C  1583  1  0.19736200  0.29410900  0.48925200  1
  C  1584  1  0.20695700  0.30160900  0.46878800  1
  C  1585  1  0.20262600  0.32399800  0.46299000  1
  C  1586  1  0.18958200  0.33834900  0.47712500  1
  C  1587  1  0.16834200  0.37131700  0.50959300  1
  C  1588  1  0.16918200  0.34426200  0.53811700  1
  C  1589  1  0.19107500  0.33666500  0.54765700  1
  C  1590  1  0.19463600  0.33565000  0.57091200  1
  C  1591  1  0.17664800  0.34293900  0.58579800  1
  C  1592  1  0.15542300  0.35178600  0.57668800  1
  C  1593  1  0.15190000  0.35248200  0.55352400  1
  C  1594  1  0.14910800  0.38690500  0.51022000  1
  C  1595  1  0.15281900  0.41003800  0.50882500  1
  C  1596  1  0.17612300  0.41902400  0.50753300  1
  C  1597  1  0.19561200  0.40392200  0.50773700  1
  C  1598  1  0.19174800  0.38075900  0.50914100  1
  C  1619  1  0.91559300  0.32565000  0.84019700  1
  C  1620  1  0.90199100  0.33982300  0.85406300  1
  C  1621  1  0.87813600  0.34538100  0.84853800  1
  C  1622  1  0.86721300  0.33807500  0.82842600  1
  C  1623  1  0.88037300  0.32199900  0.81607600  1
  C  1624  1  0.90417100  0.31631700  0.82149900  1
  C  1625  1  0.84216900  0.34619400  0.82146300  1
  C  1626  1  0.82619700  0.33142000  0.83618600  1
  C  1627  1  0.82248800  0.30857100  0.83105700  1
  C  1628  1  0.80943600  0.29415500  0.84509500  1
  C  1629  1  0.80002600  0.30161000  0.86564800  1
  C  1630  1  0.80451300  0.32395500  0.87151200  1
  C  1631  1  0.81751600  0.33830800  0.85735100  1
  C  1632  1  0.83839700  0.37135100  0.82470700  1
  C  1633  1  0.83773600  0.34421700  0.79626800  1
  C  1634  1  0.81577000  0.33682800  0.78672200  1
  C  1635  1  0.81225400  0.33573900  0.76346900  1
  C  1636  1  0.83036700  0.34277600  0.74859700  1
  C  1637  1  0.85166300  0.35146300  0.75770400  1
  C  1638  1  0.85514000  0.35222100  0.78086800  1
  C  1639  1  0.85756600  0.38698500  0.82376900  1
  C  1640  1  0.85380500  0.41010700  0.82514000  1
  C  1641  1  0.83050000  0.41904900  0.82673600  1
  C  1642  1  0.81105300  0.40390800  0.82674800  1
  C  1643  1  0.81497300  0.38074700  0.82536100  1
  C  1664  1  0.91524700  0.67621600  0.49424500  1
  C  1665  1  0.90163500  0.66196900  0.48046800  1
  C  1666  1  0.87776100  0.65649000  0.48599900  1
  C  1667  1  0.86681100  0.66393600  0.50604800  1
  C  1668  1  0.88002400  0.67999900  0.51835800  1
  C  1669  1  0.90384300  0.68560300  0.51292800  1
  C  1670  1  0.84170400  0.65596300  0.51302400  1
  C  1671  1  0.82584400  0.67083000  0.49830400  1
  C  1672  1  0.82215200  0.69365900  0.50350000  1
  C  1673  1  0.80917800  0.70812500  0.48945800  1
  C  1674  1  0.79983200  0.70072900  0.46886200  1
  C  1675  1  0.80434200  0.67840900  0.46292900  1
  C  1676  1  0.81725000  0.66400000  0.47709300  1
  C  1677  1  0.83764300  0.63085400  0.50978300  1
  C  1678  1  0.83735200  0.65791700  0.53823000  1
  C  1679  1  0.81542700  0.66535600  0.54782000  1
  C  1680  1  0.81194700  0.66637800  0.57108100  1
  C  1681  1  0.83006700  0.65926400  0.58591300  1
  C  1682  1  0.85132200  0.65053800  0.57675400  1
  C  1683  1  0.85476500  0.64983700  0.55358600  1
  C  1684  1  0.85671400  0.61512700  0.51069800  1
  C  1685  1  0.85278000  0.59205300  0.50930700  1
  C  1686  1  0.82940600  0.58329900  0.50766100  1
  C  1687  1  0.81002500  0.59846900  0.50770700  1
  C  1688  1  0.81412800  0.62161500  0.50910800  1
  C  1709  1  0.91471900  0.67452500  0.84242100  1
  C  1710  1  0.90166400  0.68757400  0.82702400  1
  C  1711  1  0.87783800  0.68215300  0.82137400  1
  C  1712  1  0.86620700  0.66301300  0.83009700  1
  C  1713  1  0.87855500  0.65189700  0.84758500  1
  C  1714  1  0.90238000  0.65722500  0.85333900  1
  C  1715  1  0.84113700  0.65584500  0.82229700  1
  C  1716  1  0.82533200  0.67033900  0.83746000  1
  C  1717  1  0.81988000  0.66415500  0.85973000  1
  C  1718  1  0.80701000  0.67820000  0.87431400  1
  C  1719  1  0.79960100  0.69971800  0.86766500  1
  C  1720  1  0.80591300  0.70656000  0.84600500  1
  C  1721  1  0.81878500  0.69244700  0.83154300  1
  C  1722  1  0.83639400  0.65935300  0.79732600  1
  C  1723  1  0.83761000  0.63052600  0.82392600  1
  C  1724  1  0.81547500  0.62038400  0.82989100  1
  C  1725  1  0.81264700  0.59703500  0.83064300  1
  C  1726  1  0.83169300  0.58266800  0.82468100  1
  C  1727  1  0.85318400  0.59239100  0.81717200  1
  C  1728  1  0.85596400  0.61564700  0.81676400  1
  C  1729  1  0.85477400  0.65717000  0.78101300  1
  C  1730  1  0.85022000  0.65935300  0.75806900  1
  C  1731  1  0.82675600  0.66322600  0.75016600  1
  C  1732  1  0.80805400  0.66465500  0.76589300  1
  C  1733  1  0.81272600  0.66206200  0.78882600  1
  C  1754  1  0.91432100  0.32817800  0.49252000  1
  C  1755  1  0.90150600  0.31532900  0.50825600  1
  C  1756  1  0.87759600  0.32051100  0.51381600  1
  C  1757  1  0.86550800  0.33916800  0.50457700  1
  C  1758  1  0.87764500  0.35006900  0.48683700  1
  C  1759  1  0.90162300  0.34505000  0.48126100  1
  C  1760  1  0.84013900  0.34580500  0.51205000  1
  C  1761  1  0.82494100  0.33092100  0.49678600  1
  C  1762  1  0.81895000  0.33731600  0.47469700  1
  C  1763  1  0.80627200  0.32317300  0.46009300  1
  C  1764  1  0.79960600  0.30140100  0.46655400  1
  C  1765  1  0.80653200  0.29435500  0.48799100  1
  C  1766  1  0.81927000  0.30855600  0.50246700  1
  C  1767  1  0.83561300  0.34243500  0.53705400  1
  C  1768  1  0.83514600  0.37086200  0.51002700  1
  C  1769  1  0.81180000  0.37958100  0.50602300  1
  C  1770  1  0.80723000  0.40268200  0.50516500  1
  C  1771  1  0.82576500  0.41826800  0.50871200  1
  C  1772  1  0.84864300  0.40992600  0.51446500  1
  C  1773  1  0.85302200  0.38689700  0.51539400  1
  C  1774  1  0.85375300  0.34659500  0.55321300  1
  C  1775  1  0.84955600  0.34446200  0.57622000  1
  C  1776  1  0.82661200  0.33873400  0.58433300  1
  C  1777  1  0.80807600  0.33538300  0.56873100  1
  C  1778  1  0.81236300  0.33786800  0.54572800  1
  C  1799  1  0.09207190  0.67474300  0.49194000  1
  C  1800  1  0.10507100  0.68770000  0.50745500  1
  C  1801  1  0.12890000  0.68227700  0.51310400  1
  C  1802  1  0.14058200  0.66322100  0.50425700  1
  C  1803  1  0.12830600  0.65224000  0.48663900  1
  C  1804  1  0.10447000  0.65755100  0.48090800  1
  C  1805  1  0.16562300  0.65596700  0.51206300  1
  C  1806  1  0.18147800  0.67045700  0.49694600  1
  C  1807  1  0.18693400  0.66431600  0.47466300  1
  C  1808  1  0.19986600  0.67835900  0.46013000  1
  C  1809  1  0.20733700  0.69983400  0.46684300  1
  C  1810  1  0.20104300  0.70663300  0.48852200  1
  C  1811  1  0.18810600  0.69252400  0.50293600  1
  C  1812  1  0.17042600  0.65936700  0.53703600  1
  C  1813  1  0.16902400  0.63064400  0.51032700  1
  C  1814  1  0.19110500  0.62046100  0.50429000  1
  C  1815  1  0.19377800  0.59711600  0.50322500  1
  C  1816  1  0.17461500  0.58274100  0.50888700  1
  C  1817  1  0.15317100  0.59251100  0.51647400  1
  C  1818  1  0.15057600  0.61578200  0.51729500  1
  C  1819  1  0.15207100  0.65722900  0.55337600  1
  C  1820  1  0.15667600  0.65939100  0.57631400  1
  C  1821  1  0.18017500  0.66315600  0.58418800  1
  C  1822  1  0.19885500  0.66449900  0.56843200  1
  C  1823  1  0.19412600  0.66194700  0.54550300  1
  C  1844  1  0.09233890  0.32763300  0.84234100  1
  C  1845  1  0.10543900  0.31451300  0.82703600  1
  C  1846  1  0.12928300  0.31990900  0.82141600  1
  C  1847  1  0.14088800  0.33910700  0.83005600  1
  C  1848  1  0.12848600  0.35031600  0.84744800  1
  C  1849  1  0.10465100  0.34499200  0.85319100  1
  C  1850  1  0.16599500  0.34619300  0.82227600  1
  C  1851  1  0.18173800  0.33163200  0.83742000  1
  C  1852  1  0.18712300  0.33776900  0.85971700  1
  C  1853  1  0.19999700  0.32370700  0.87428400  1
  C  1854  1  0.20747400  0.30222700  0.86757500  1
  C  1855  1  0.20121500  0.29542300  0.84589000  1
  C  1856  1  0.18833800  0.30955200  0.83144400  1
  C  1857  1  0.17068800  0.34268500  0.79729400  1
  C  1858  1  0.16973100  0.37148300  0.82394700  1
  C  1859  1  0.19198500  0.38146600  0.82983800  1
  C  1860  1  0.19510400  0.40479200  0.83037300  1
  C  1861  1  0.17623900  0.41926800  0.82425300  1
  C  1862  1  0.15459800  0.40972000  0.81689400  1
  C  1863  1  0.15152700  0.38649000  0.81672300  1
  C  1864  1  0.15228400  0.34488500  0.78100600  1
  C  1865  1  0.15679500  0.34269200  0.75805500  1
  C  1866  1  0.18024200  0.33879600  0.75011400  1
  C  1867  1  0.19896600  0.33735600  0.76581700  1
  C  1868  1  0.19434000  0.33995500  0.78875600  1
  C  1889  1  0.73969100  0.23382000  0.40632800  1
  C  1891  1  0.75656900  0.27059100  0.40211700  1
  C  1892  1  0.76668100  0.26986900  0.42384100  1
  C  1894  1  0.74980800  0.23310400  0.42805200  1
  C  1895  1  0.74789900  0.21632200  0.44160900  1
  C  1896  1  0.75847900  0.28740800  0.38860500  1
  C  1899  1  0.72618200  0.21659700  0.39681500  1
  C  1901  1  0.78011300  0.28708600  0.43346000  1
  C  1903  1  0.74011300  0.76777900  0.92800600  1
  C  1905  1  0.75685600  0.73093500  0.93221200  1
  C  1906  1  0.76685900  0.73152700  0.91043500  1
  C  1908  1  0.75014000  0.76838000  0.90623600  1
  C  1909  1  0.74825000  0.78513900  0.89264600  1
  C  1910  1  0.75878800  0.71416500  0.94577700  1
  C  1913  1  0.72672900  0.78511400  0.93753700  1
  C  1915  1  0.78020600  0.71421400  0.90081600  1
  C  1917  1  0.26691100  0.76779900  0.40649600  1
  C  1919  1  0.25000600  0.73102600  0.40228900  1
  C  1920  1  0.24000200  0.73166800  0.42406400  1
  C  1922  1  0.25688200  0.76845000  0.42826300  1
  C  1923  1  0.25882800  0.78521700  0.44183400  1
  C  1924  1  0.24801800  0.71425300  0.38873600  1
  C  1927  1  0.28037600  0.78507100  0.39697000  1
  C  1929  1  0.22654700  0.71442500  0.43366300  1
  C  1931  1  0.26708200  0.23429800  0.92789400  1
  C  1933  1  0.25026500  0.27110500  0.93208200  1
  C  1934  1  0.24021400  0.27044600  0.91032900  1
  C  1936  1  0.25701800  0.23363000  0.90614400  1
  C  1937  1  0.25890800  0.21683500  0.89259800  1
  C  1938  1  0.24833700  0.28789600  0.94562300  1
  C  1941  1  0.28051200  0.21702400  0.93744400  1
  C  1943  1  0.22678000  0.28770200  0.90073100  1
  C  1945  1  0.26694000  0.24079100  0.40142100  1
  C  1947  1  0.24967800  0.23690500  0.43806900  1
  C  1948  1  0.23962300  0.25865300  0.43712400  1
  C  1950  1  0.25685900  0.26253100  0.40046300  1
  C  1951  1  0.25887400  0.27591400  0.38354900  1
  C  1952  1  0.24758700  0.22351600  0.45496200  1
  C  1955  1  0.28071800  0.23118800  0.38441700  1
  C  1957  1  0.22585900  0.26832900  0.45410700  1
  C  1959  1  0.26667600  0.76058600  0.93302100  1
  C  1961  1  0.25032600  0.76479200  0.89604400  1
  C  1962  1  0.24056000  0.74292200  0.89647800  1
  C  1964  1  0.25688700  0.73872600  0.93346400  1
  C  1965  1  0.25875600  0.72505500  0.95015600  1
  C  1966  1  0.24834600  0.77846500  0.87936700  1
  C  1969  1  0.27969700  0.77018700  0.95051900  1
  C  1971  1  0.22757300  0.73317500  0.87903100  1
  C  1973  1  0.74007000  0.24080500  0.93303100  1
  C  1975  1  0.75731900  0.23691100  0.89637800  1
  C  1976  1  0.76736700  0.25866200  0.89731500  1
  C  1978  1  0.75014600  0.26254400  0.93398300  1
  C  1979  1  0.74811900  0.27593900  0.95088500  1
  C  1980  1  0.75940000  0.22352200  0.87948500  1
  C  1983  1  0.72629700  0.23120400  0.95004200  1
  C  1985  1  0.78110000  0.26834300  0.88031600  1
  C  1987  1  0.74001100  0.76135300  0.40132400  1
  C  1989  1  0.75707000  0.76537900  0.43804000  1
  C  1990  1  0.76708300  0.74361100  0.43723900  1
  C  1992  1  0.75005100  0.73959400  0.40051100  1
  C  1993  1  0.74808400  0.72611400  0.38367000  1
  C  1994  1  0.75910500  0.77884800  0.45487700  1
  C  1997  1  0.72636700  0.77091400  0.38420700  1
  C  1999  1  0.78066000  0.73394300  0.45434500  1
  C  2001  1  0.69372000  0.02478700  0.32817800  1
  C  2003  1  0.66887200  0.99366900  0.33907800  1
  C  2004  1  0.68751700  0.97852600  0.33374900  1
  C  2006  1  0.71221700  0.00940800  0.32275800  1
  C  2007  1  0.73320700  0.01479100  0.31494600  1
  C  2008  1  0.64829600  0.98772100  0.34738500  1
  C  2011  1  0.69620700  0.04787900  0.32645200  1
  C  2013  1  0.68735700  0.95581300  0.33755300  1
  C  2015  1  0.69358300  0.97721400  0.00614993  1
  C  2017  1  0.66853900  0.00808700  0.99493900  1
  C  2018  1  0.68690300  0.02342700  0.00051693  1
  C  2020  1  0.71183800  0.99278000  0.01174390  1
  C  2021  1  0.73281000  0.98756900  0.01971490  1
  C  2022  1  0.64794900  0.01382800  0.98650800  1
  C  2025  1  0.69625200  0.95413200  0.00791093  1
  C  2027  1  0.68639900  0.04611100  0.99655300  1
  C  2029  1  0.31342300  0.97726800  0.32828900  1
  C  2031  1  0.33862500  0.00794500  0.33968100  1
  C  2032  1  0.32039900  0.02341800  0.33406800  1
  C  2034  1  0.29530800  0.99296300  0.32264300  1
  C  2035  1  0.27433600  0.98786900  0.31460000  1
  C  2036  1  0.35925400  0.01352800  0.34813500  1
  C  2039  1  0.31065700  0.95420100  0.32646000  1
  C  2041  1  0.32123400  0.04608600  0.33808100  1
  C  2043  1  0.31526600  0.02477400  0.00524493  1
  C  2045  1  0.34416000  0.99679400  0.99470100  1
  C  2046  1  0.32842500  0.97940800  0.00138093  1
  C  2048  1  0.29933700  0.00742400  0.01157090  1
  C  2049  1  0.27801200  0.01070600  0.01974890  1
  C  2050  1  0.36558100  0.99391700  0.98654000  1
  C  2053  1  0.31048300  0.04754900  0.00685493  1
  C  2055  1  0.33445600  0.95684100  0.00043293  1
  C  2057  1  0.68749000  0.16835600  0.18900500  1
  C  2059  1  0.69401400  0.14226700  0.15924800  1
  C  2060  1  0.68527200  0.15775900  0.14336200  1
  C  2062  1  0.67927200  0.18406500  0.17310300  1
  C  2063  1  0.67135200  0.20378400  0.17818200  1
  C  2064  1  0.70182500  0.12247700  0.15430800  1
  C  2067  1  0.68869400  0.17217300  0.21178100  1
  C  2069  1  0.68101100  0.15258700  0.12113500  1
  C  2071  1  0.31949800  0.16838300  0.14541900  1
  C  2073  1  0.31299000  0.14225600  0.17514700  1
  C  2074  1  0.32174300  0.15772500  0.19104700  1
  C  2076  1  0.32774900  0.18406000  0.16133700  1
  C  2077  1  0.33566500  0.20378300  0.15627700  1
  C  2078  1  0.30517400  0.12246500  0.18007000  1
  C  2081  1  0.31824500  0.17225300  0.12265500  1
  C  2083  1  0.32598400  0.15254000  0.21327400  1
  C  2085  1  0.68755500  0.83366700  0.14524900  1
  C  2087  1  0.69407200  0.85975100  0.17501700  1
  C  2088  1  0.68531900  0.84426400  0.19090400  1
  C  2090  1  0.67932700  0.81796500  0.16115200  1
  C  2091  1  0.67143300  0.79823800  0.15607500  1
  C  2092  1  0.70190800  0.87953000  0.17996200  1
  C  2095  1  0.68880000  0.82983500  0.12247300  1
  C  2097  1  0.68106900  0.84944200  0.21313700  1
  C  2099  1  0.31952100  0.83363000  0.18927000  1
  C  2101  1  0.31294700  0.85978500  0.15958400  1
  C  2102  1  0.32170900  0.84434400  0.14365300  1
  C  2104  1  0.32776500  0.81797300  0.17333100  1
  C  2105  1  0.33573200  0.79825700  0.17835700  1
  C  2106  1  0.30507000  0.87956700  0.15470400  1
  C  2109  1  0.31833700  0.82976000  0.21203400  1
  C  2111  1  0.32585300  0.84955500  0.12141600  1
  C  2113  1  0.52783900  0.18063600  0.35363300  1
  C  2115  1  0.49793600  0.19252100  0.32716100  1
  C  2116  1  0.47909800  0.18533400  0.34138300  1
  C  2118  1  0.50900700  0.17416900  0.36820300  1
  C  2119  1  0.51230500  0.16540000  0.38775300  1
  C  2120  1  0.49499500  0.20117600  0.30750400  1
  C  2123  1  0.55226600  0.17710200  0.35744500  1
  C  2125  1  0.45488700  0.18586100  0.33545000  1
  C  2127  1  0.47895800  0.82142100  0.35368000  1
  C  2129  1  0.50879800  0.80951300  0.32715600  1
  C  2130  1  0.52767300  0.81667700  0.34134800  1
  C  2132  1  0.49782900  0.82787800  0.36821500  1
  C  2133  1  0.49458000  0.83663400  0.38777800  1
  C  2134  1  0.51170200  0.80083300  0.30750400  1
  C  2137  1  0.45453700  0.82495100  0.35755100  1
  C  2139  1  0.55187000  0.81613400  0.33536900  1
  C  2141  1  0.47894600  0.18039300  0.98084400  1
  C  2143  1  0.50884900  0.19234600  0.00728893  1
  C  2144  1  0.52770300  0.18521400  0.99305100  1
  C  2146  1  0.49779100  0.17398400  0.96625700  1
  C  2147  1  0.49450800  0.16526000  0.94668500  1
  C  2148  1  0.51179000  0.20100100  0.02694690  1
  C  2151  1  0.45451000  0.17683700  0.97703000  1
  C  2153  1  0.55192400  0.18581000  0.99896200  1
  C  2155  1  0.52777400  0.82173300  0.98078100  1
  C  2157  1  0.49787000  0.80991800  0.00727993  1
  C  2158  1  0.47901000  0.81723800  0.99313400  1
  C  2160  1  0.50892200  0.82829500  0.96626500  1
  C  2161  1  0.51222700  0.83702400  0.94670000  1
  C  2162  1  0.49496000  0.80117200  0.02690190  1
  C  2165  1  0.55222500  0.82517600  0.97693700  1
  C  2167  1  0.45480200  0.81671700  0.99914000  1
  C  2169  1  0.19350300  0.52388200  0.82827000  1
  C  2171  1  0.16825600  0.49334700  0.83993500  1
  C  2172  1  0.18638500  0.47778000  0.83431800  1
  C  2174  1  0.21155300  0.50810100  0.82267000  1
  C  2175  1  0.23253100  0.51312500  0.81459200  1
  C  2176  1  0.14758900  0.48788000  0.84838500  1
  C  2179  1  0.19627100  0.54693800  0.82629100  1
  C  2181  1  0.18530100  0.45512400  0.83839600  1
  C  2183  1  0.19352100  0.47790400  0.50705700  1
  C  2185  1  0.16908300  0.50922800  0.49588800  1
  C  2186  1  0.18800400  0.52419000  0.50087700  1
  C  2188  1  0.21229800  0.49310500  0.51213500  1
  C  2189  1  0.23328100  0.48758400  0.51987600  1
  C  2190  1  0.14853700  0.51534900  0.48764200  1
  C  2193  1  0.19565200  0.45480300  0.50920400  1
  C  2195  1  0.18820500  0.54689600  0.49697700  1
  C  2197  1  0.81349000  0.47801000  0.82811200  1
  C  2199  1  0.83844500  0.50887900  0.83948200  1
  C  2200  1  0.81997900  0.52419300  0.83411000  1
  C  2202  1  0.79515700  0.49355700  0.82267300  1
  C  2203  1  0.77418700  0.48833800  0.81470500  1
  C  2204  1  0.85904500  0.51462000  0.84788700  1
  C  2207  1  0.81091000  0.45493300  0.82620100  1
  C  2209  1  0.82048100  0.54687300  0.83809200  1
  C  2211  1  0.81517800  0.52398400  0.50526600  1
  C  2213  1  0.84397600  0.49595700  0.49461600  1
  C  2214  1  0.82818600  0.47859200  0.50124000  1
  C  2216  1  0.79919100  0.50665500  0.51152600  1
  C  2217  1  0.77787700  0.50996600  0.51971700  1
  C  2218  1  0.86538600  0.49305400  0.48644500  1
  C  2221  1  0.81045700  0.54676800  0.50692600  1
  C  2223  1  0.83418600  0.45601400  0.50031200  1
  C  2225  1  0.18767700  0.66839200  0.68971900  1
  C  2227  1  0.19406500  0.64222600  0.65999900  1
  C  2228  1  0.18521500  0.65766600  0.64411300  1
  C  2230  1  0.17935700  0.68405000  0.67381400  1
  C  2231  1  0.17144700  0.70377700  0.67887200  1
  C  2232  1  0.20188500  0.62243400  0.65508000  1
  C  2235  1  0.18895000  0.67224000  0.71248600  1
  C  2237  1  0.18089700  0.65246900  0.62189900  1
  C  2239  1  0.81928800  0.66843700  0.64465700  1
  C  2241  1  0.81290500  0.64224100  0.67435300  1
  C  2242  1  0.82175500  0.65766500  0.69025200  1
  C  2244  1  0.82763900  0.68406600  0.66057300  1
  C  2245  1  0.83555200  0.70379600  0.65553500  1
  C  2246  1  0.80508000  0.62244900  0.67925800  1
  C  2249  1  0.81796300  0.67233700  0.62190100  1
  C  2251  1  0.82601600  0.65247400  0.71247600  1
  C  2253  1  0.18750500  0.33365100  0.64454400  1
  C  2255  1  0.19392300  0.35980000  0.67428200  1
  C  2256  1  0.18511600  0.34434600  0.69017400  1
  C  2258  1  0.17921300  0.31798700  0.66045600  1
  C  2259  1  0.17132700  0.29825200  0.65540700  1
  C  2260  1  0.20175900  0.37958200  0.67920800  1
  C  2263  1  0.18879500  0.32978200  0.62177400  1
  C  2265  1  0.18087500  0.34952400  0.71240800  1
  C  2267  1  0.81948700  0.33351900  0.68988200  1
  C  2269  1  0.81304200  0.35975200  0.66023200  1
  C  2270  1  0.82185900  0.34434600  0.64429600  1
  C  2272  1  0.82779800  0.31790300  0.67393400  1
  C  2273  1  0.83575500  0.29817800  0.67893300  1
  C  2274  1  0.80518200  0.37954400  0.65536900  1
  C  2277  1  0.81824300  0.32961100  0.71263800  1
  C  2279  1  0.82604300  0.34956600  0.62206900  1
  C  2281  1  0.02786390  0.68052100  0.85377700  1
  C  2283  1  0.99817100  0.69255400  0.82716500  1
  C  2284  1  0.97921300  0.68541100  0.84127300  1
  C  2286  1  0.00891391  0.67412500  0.86824900  1
  C  2287  1  0.01206190  0.66533400  0.88780800  1
  C  2288  1  0.99537600  0.70125900  0.80751100  1
  C  2291  1  0.05225090  0.67686500  0.85770600  1
  C  2293  1  0.95504600  0.68598000  0.83518000  1
  C  2295  1  0.97919300  0.32154200  0.85375000  1
  C  2297  1  0.00888391  0.30951400  0.82713200  1
  C  2298  1  0.02784890  0.31662700  0.84124800  1
  C  2300  1  0.99814900  0.32793400  0.86821600  1
  C  2301  1  0.99500800  0.33670100  0.88778900  1
  C  2302  1  0.01167590  0.30080300  0.80748100  1
  C  2305  1  0.95480000  0.32517300  0.85771100  1
  C  2307  1  0.05202690  0.31599500  0.83518600  1
  C  2309  1  0.97886600  0.68030100  0.48070000  1
  C  2311  1  0.00852991  0.69238900  0.50731500  1
  C  2312  1  0.02751390  0.68532500  0.49319400  1
  C  2314  1  0.99784100  0.67396000  0.46622600  1
  C  2315  1  0.99472300  0.66519900  0.44664800  1
  C  2316  1  0.01130890  0.70107700  0.52697900  1
  C  2319  1  0.95447900  0.67662400  0.47674700  1
  C  2321  1  0.05167990  0.68593900  0.49929100  1
  C  2323  1  0.02758890  0.32170100  0.48069200  1
  C  2325  1  0.99786600  0.30982300  0.50733800  1
  C  2326  1  0.97891100  0.31711000  0.49328800  1
  C  2328  1  0.00864291  0.32823600  0.46627100  1
  C  2329  1  0.01182490  0.33700000  0.44670500  1
  C  2330  1  0.99508000  0.30106300  0.52696900  1
  C  2333  1  0.05200490  0.32519700  0.47672200  1
  C  2335  1  0.95474100  0.31657600  0.49942400  1
  N  41  1  0.17615500  0.15868300  0.05926700  1
  N  42  1  0.17585300  0.06146500  0.16155500  1
  N  43  1  0.06530300  0.18024600  0.17563000  1
  N  44  1  0.21676700  0.21634100  0.21000100  1
  N  86  1  0.17626700  0.84329900  0.94233300  1
  N  87  1  0.17598800  0.94045000  0.84013100  1
  N  88  1  0.06531100  0.82193900  0.82608100  1
  N  89  1  0.21701900  0.78534900  0.79165300  1
  N  131  1  0.82566900  0.84330200  0.05955100  1
  N  132  1  0.82580000  0.94047300  0.16171400  1
  N  133  1  0.93638200  0.82174300  0.17578600  1
  N  134  1  0.78481100  0.78536800  0.21017700  1
  N  176  1  0.82560500  0.15876000  0.94248400  1
  N  177  1  0.82502500  0.06197500  0.84016100  1
  N  178  1  0.93635800  0.18008700  0.82617400  1
  N  179  1  0.78494400  0.21678300  0.79161500  1
  N  221  1  0.82698500  0.05976200  0.15721900  1
  N  222  1  0.81961000  0.16626600  0.06304400  1
  N  223  1  0.93565100  0.17640900  0.18057800  1
  N  224  1  0.78434100  0.21048000  0.21748200  1
  N  266  1  0.81879900  0.94096300  0.84194200  1
  N  267  1  0.81983100  0.83570500  0.93906300  1
  N  268  1  0.93545700  0.82636900  0.82167400  1
  N  269  1  0.78483100  0.79045400  0.78422600  1
  N  311  1  0.17420600  0.05973900  0.84410500  1
  N  312  1  0.18232000  0.16630400  0.93874100  1
  N  313  1  0.06612300  0.17639600  0.82122100  1
  N  314  1  0.21756400  0.21050600  0.78434500  1
  N  356  1  0.17352700  0.94229200  0.15837400  1
  N  357  1  0.18225700  0.83568600  0.06290500  1
  N  358  1  0.06608200  0.82545100  0.18054400  1
  N  359  1  0.21740600  0.79155300  0.21734900  1
  N  401  1  0.67642700  0.65875200  0.55998300  1
  N  402  1  0.67607500  0.56067600  0.66168900  1
  N  403  1  0.56536800  0.67981300  0.67592300  1
  N  404  1  0.71684700  0.71309500  0.71328900  1
  N  446  1  0.67636900  0.34329100  0.44161200  1
  N  447  1  0.67547500  0.44124100  0.34003200  1
  N  448  1  0.56515300  0.32216100  0.32584700  1
  N  449  1  0.71705700  0.28900700  0.28812300  1
  N  491  1  0.32560800  0.34311400  0.56017000  1
  N  492  1  0.32608500  0.44126000  0.66162400  1
  N  493  1  0.43656800  0.32209300  0.67598900  1
  N  494  1  0.28487900  0.28900700  0.71370900  1
  N  536  1  0.32533000  0.65886200  0.44172200  1
  N  537  1  0.32501400  0.56118000  0.34010400  1
  N  538  1  0.43622900  0.67974900  0.32582900  1
  N  539  1  0.28475900  0.71336500  0.28817200  1
  N  581  1  0.32749200  0.56048700  0.65785000  1
  N  582  1  0.31979300  0.66628100  0.56220400  1
  N  583  1  0.43565800  0.67683500  0.68036300  1
  N  584  1  0.28466500  0.71415700  0.71403600  1
  N  626  1  0.31842100  0.44014500  0.34168000  1
  N  627  1  0.31990200  0.33573100  0.43973000  1
  N  628  1  0.43528600  0.32595000  0.32186800  1
  N  629  1  0.28464400  0.28699500  0.28759300  1
  N  671  1  0.67341000  0.56050400  0.34266300  1
  N  672  1  0.68211600  0.66622600  0.43952200  1
  N  673  1  0.56604600  0.67697900  0.32140400  1
  N  674  1  0.71724700  0.71426500  0.28788900  1
  N  716  1  0.67593500  0.44136900  0.65696900  1
  N  717  1  0.68209800  0.33573800  0.56214200  1
  N  718  1  0.56631400  0.32533100  0.68025400  1
  N  719  1  0.71737100  0.28780000  0.71391800  1
  N  722  1  0.24124100  0.25282400  0.22828000  1
  N  725  1  0.26005000  0.25086700  0.26926100  1
  N  729  1  0.25765000  0.30229200  0.21043700  1
  N  730  1  0.24365700  0.20148600  0.28722000  1
  N  736  1  0.24165000  0.74878100  0.77344900  1
  N  739  1  0.26025600  0.75053300  0.73238500  1
  N  743  1  0.25798100  0.69932900  0.79138500  1
  N  744  1  0.24403000  0.79996400  0.71439700  1
  N  750  1  0.76022500  0.74881600  0.22843300  1
  N  753  1  0.74160600  0.75065800  0.26949300  1
  N  757  1  0.74369800  0.69940800  0.21052300  1
  N  758  1  0.75803000  0.80005700  0.28743800  1
  N  764  1  0.76045600  0.25330300  0.77331900  1
  N  767  1  0.74175800  0.25143300  0.73229400  1
  N  771  1  0.74407900  0.30274900  0.79121100  1
  N  772  1  0.75806200  0.20197400  0.71439500  1
  N  778  1  0.76011000  0.22921200  0.25416600  1
  N  781  1  0.74136300  0.27021800  0.25174600  1
  N  785  1  0.74319000  0.21174500  0.30359200  1
  N  786  1  0.75812100  0.28766500  0.20227600  1
  N  792  1  0.76015300  0.77238900  0.74773200  1
  N  795  1  0.74200100  0.73114300  0.74915900  1
  N  799  1  0.74405900  0.79053100  0.69834200  1
  N  800  1  0.75787000  0.71302200  0.79859800  1
  N  806  1  0.24182200  0.22922100  0.74766700  1
  N  809  1  0.26055300  0.27022900  0.75007100  1
  N  813  1  0.25871300  0.21175200  0.69823200  1
  N  814  1  0.24378900  0.28770400  0.79952600  1
  N  820  1  0.24168600  0.77301400  0.25403700  1
  N  823  1  0.26034600  0.73196800  0.25189400  1
  N  827  1  0.25837900  0.79069100  0.30345600  1
  N  828  1  0.24380700  0.71426200  0.20247200  1
  N  834  1  0.17037500  0.01583200  0.16983200  1
  N  837  1  0.20577400  0.98734900  0.15966800  1
  N  841  1  0.12757800  0.98256800  0.18845100  1
  N  842  1  0.24919900  0.01943800  0.14168800  1
  N  848  1  0.17024500  0.98597200  0.83164700  1
  N  851  1  0.20518000  0.01481500  0.84218300  1
  N  855  1  0.12721500  0.01881000  0.81273900  1
  N  856  1  0.24879100  0.98306400  0.86047400  1
  N  862  1  0.83170500  0.98587300  0.17027300  1
  N  865  1  0.79703000  0.01497500  0.15963800  1
  N  869  1  0.87495000  0.01839200  0.18928400  1
  N  870  1  0.75327700  0.98344700  0.14117800  1
  N  876  1  0.83436000  0.01821400  0.83072200  1
  N  879  1  0.80414100  0.98590000  0.84319200  1
  N  883  1  0.88191700  0.99138700  0.81299100  1
  N  884  1  0.75663500  0.01360200  0.86062300  1
  N  890  1  0.19211300  0.14823900  0.01474300  1
  N  893  1  0.17566000  0.17793000  0.98501600  1
  N  897  1  0.20637900  0.10509300  0.98359800  1
  N  898  1  0.16174900  0.22114600  0.01639400  1
  N  904  1  0.80979800  0.14825800  0.98704000  1
  N  907  1  0.82628800  0.17789800  0.01679400  1
  N  911  1  0.79554600  0.10508000  0.01814900  1
  N  912  1  0.84019300  0.22114800  0.98546000  1
  N  918  1  0.19218300  0.85377900  0.98690100  1
  N  921  1  0.17571200  0.82409800  0.01662000  1
  N  925  1  0.20648300  0.89690100  0.01806000  1
  N  926  1  0.16185400  0.78086800  0.98525100  1
  N  932  1  0.80978900  0.85375600  0.01506100  1
  N  935  1  0.82628700  0.82416800  0.98526300  1
  N  939  1  0.79538600  0.89694400  0.98404300  1
  N  940  1  0.84029300  0.78089400  0.01652000  1
  N  946  1  0.01843000  0.18957700  0.16752700  1
  N  949  1  0.98333800  0.17658500  0.19502000  1
  N  953  1  0.98983900  0.20883900  0.12386900  1
  N  954  1  0.01271500  0.15776700  0.23873600  1
  N  960  1  0.98324700  0.81246700  0.16756400  1
  N  963  1  0.01840700  0.82543600  0.19499500  1
  N  967  1  0.01176400  0.79315500  0.12387600  1
  N  968  1  0.98914300  0.84425700  0.23877300  1
  N  974  1  0.98327900  0.18934500  0.83432600  1
  N  977  1  0.01838900  0.17646200  0.80679500  1
  N  981  1  0.01188100  0.20866400  0.87795800  1
  N  982  1  0.98904900  0.15767100  0.76306100  1
  N  988  1  0.01836500  0.81277300  0.83425700  1
  N  991  1  0.98324700  0.82598000  0.80687200  1
  N  995  1  0.98983500  0.79341400  0.87787600  1
  N  996  1  0.01265300  0.84460200  0.76307400  1
  N  1002  1  0.67015400  0.51538100  0.67036700  1
  N  1005  1  0.70468700  0.48610900  0.65977100  1
  N  1009  1  0.62678500  0.48310100  0.68951700  1
  N  1010  1  0.74852300  0.51749900  0.64115800  1
  N  1016  1  0.67026000  0.48704800  0.33279600  1
  N  1019  1  0.70617000  0.51516200  0.34232000  1
  N  1023  1  0.62784600  0.52064900  0.31400600  1
  N  1024  1  0.74926600  0.48283200  0.36046000  1
  N  1030  1  0.33174400  0.48677500  0.67000200  1
  N  1033  1  0.29665400  0.51558000  0.65977300  1
  N  1037  1  0.37471800  0.51959400  0.68901200  1
  N  1038  1  0.25313300  0.48382500  0.64133400  1
  N  1044  1  0.33424600  0.51739100  0.33071200  1
  N  1047  1  0.30392700  0.48511900  0.34308000  1
  N  1051  1  0.38171800  0.49050600  0.31288500  1
  N  1052  1  0.25650700  0.51288600  0.36060000  1
  N  1058  1  0.69227300  0.64825800  0.51547400  1
  N  1061  1  0.67563700  0.67785300  0.48575100  1
  N  1065  1  0.70645500  0.60504700  0.48440400  1
  N  1066  1  0.66185100  0.72115000  0.51705100  1
  N  1072  1  0.30961300  0.64829800  0.48626300  1
  N  1075  1  0.32627400  0.67785200  0.51601100  1
  N  1079  1  0.29543600  0.60506300  0.51730300  1
  N  1080  1  0.34007900  0.72116900  0.48475000  1
  N  1086  1  0.69210600  0.35378000  0.48617800  1
  N  1089  1  0.67553700  0.32416600  0.51590800  1
  N  1093  1  0.70634200  0.39695900  0.51728000  1
  N  1094  1  0.66175300  0.28087000  0.48461800  1
  N  1100  1  0.30979600  0.35366900  0.51569300  1
  N  1103  1  0.32640100  0.32415000  0.48588400  1
  N  1107  1  0.29550900  0.39693100  0.48473300  1
  N  1108  1  0.34031600  0.28080400  0.51705400  1
  N  1114  1  0.51861200  0.68951500  0.66764700  1
  N  1117  1  0.48329500  0.67662400  0.69494000  1
  N  1121  1  0.49032800  0.70896400  0.62388300  1
  N  1122  1  0.51235600  0.65768500  0.73880100  1
  N  1128  1  0.48336700  0.31255200  0.66761600  1
  N  1131  1  0.51869300  0.32541400  0.69491600  1
  N  1135  1  0.51164300  0.29309000  0.62385500  1
  N  1136  1  0.48964600  0.34432800  0.73879300  1
  N  1142  1  0.48302000  0.68929600  0.33421600  1
  N  1145  1  0.51837700  0.67652500  0.30690600  1
  N  1149  1  0.51128600  0.70876800  0.37799200  1
  N  1150  1  0.48939200  0.65757900  0.26301700  1
  N  1156  1  0.51831600  0.31272100  0.33420000  1
  N  1159  1  0.48301300  0.32587700  0.30699600  1
  N  1163  1  0.49005200  0.29329600  0.37795200  1
  N  1164  1  0.51216400  0.34461200  0.26308200  1
  N  1209  1  0.67869200  0.15868300  0.22557700  1
  N  1210  1  0.67839000  0.06146500  0.32786500  1
  N  1211  1  0.56784000  0.18024600  0.34194000  1
  N  1212  1  0.71930400  0.21634100  0.37631100  1
  N  1254  1  0.67880400  0.84329900  0.10864300  1
  N  1255  1  0.67852500  0.94045000  0.00644093  1
  N  1256  1  0.56784800  0.82193900  0.99239100  1
  N  1257  1  0.71955600  0.78534900  0.95796300  1
  N  1299  1  0.32820600  0.84330200  0.22586100  1
  N  1300  1  0.32833700  0.94047300  0.32802400  1
  N  1301  1  0.43891900  0.82174300  0.34209600  1
  N  1302  1  0.28734800  0.78536800  0.37648700  1
  N  1344  1  0.32814200  0.15876000  0.10879400  1
  N  1345  1  0.32756200  0.06197500  0.00647093  1
  N  1346  1  0.43889500  0.18008700  0.99248400  1
  N  1347  1  0.28748100  0.21678300  0.95792500  1
  N  1389  1  0.32952200  0.05976200  0.32352900  1
  N  1390  1  0.32214700  0.16626600  0.22935400  1
  N  1391  1  0.43818800  0.17640900  0.34688800  1
  N  1392  1  0.28687800  0.21048000  0.38379200  1
  N  1434  1  0.32133600  0.94096300  0.00825193  1
  N  1435  1  0.32236800  0.83570500  0.10537300  1
  N  1436  1  0.43799400  0.82636900  0.98798400  1
  N  1437  1  0.28736800  0.79045400  0.95053600  1
  N  1479  1  0.67674300  0.05973900  0.01041490  1
  N  1480  1  0.68485700  0.16630400  0.10505100  1
  N  1481  1  0.56866000  0.17639600  0.98753100  1
  N  1482  1  0.72010100  0.21050600  0.95065500  1
  N  1524  1  0.67606400  0.94229200  0.32468400  1
  N  1525  1  0.68479400  0.83568600  0.22921500  1
  N  1526  1  0.56861900  0.82545100  0.34685400  1
  N  1527  1  0.71994300  0.79155300  0.38365900  1
  N  1569  1  0.17896400  0.65875200  0.72629300  1
  N  1570  1  0.17861200  0.56067600  0.82799900  1
  N  1571  1  0.06790490  0.67981300  0.84223300  1
  N  1572  1  0.21938400  0.71309500  0.87959900  1
  N  1614  1  0.17890600  0.34329100  0.60792200  1
  N  1615  1  0.17801200  0.44124100  0.50634200  1
  N  1616  1  0.06768990  0.32216100  0.49215700  1
  N  1617  1  0.21959400  0.28900700  0.45443300  1
  N  1659  1  0.82814500  0.34311400  0.72648000  1
  N  1660  1  0.82862200  0.44126000  0.82793400  1
  N  1661  1  0.93910500  0.32209300  0.84229900  1
  N  1662  1  0.78741600  0.28900700  0.88001900  1
  N  1704  1  0.82786700  0.65886200  0.60803200  1
  N  1705  1  0.82755100  0.56118000  0.50641400  1
  N  1706  1  0.93876600  0.67974900  0.49213900  1
  N  1707  1  0.78729600  0.71336500  0.45448200  1
  N  1749  1  0.83002900  0.56048700  0.82416000  1
  N  1750  1  0.82233000  0.66628100  0.72851400  1
  N  1751  1  0.93819500  0.67683500  0.84667300  1
  N  1752  1  0.78720200  0.71415700  0.88034600  1
  N  1794  1  0.82095800  0.44014500  0.50799000  1
  N  1795  1  0.82243900  0.33573100  0.60604000  1
  N  1796  1  0.93782300  0.32595000  0.48817800  1
  N  1797  1  0.78718100  0.28699500  0.45390300  1
  N  1839  1  0.17594700  0.56050400  0.50897300  1
  N  1840  1  0.18465300  0.66622600  0.60583200  1
  N  1841  1  0.06858290  0.67697900  0.48771400  1
  N  1842  1  0.21978400  0.71426500  0.45419900  1
  N  1884  1  0.17847200  0.44136900  0.82327900  1
  N  1885  1  0.18463500  0.33573800  0.72845200  1
  N  1886  1  0.06885090  0.32533100  0.84656400  1
  N  1887  1  0.21990800  0.28780000  0.88022800  1
  N  1890  1  0.74377800  0.25282400  0.39459000  1
  N  1893  1  0.76258700  0.25086700  0.43557100  1
  N  1897  1  0.76018700  0.30229200  0.37674700  1
  N  1898  1  0.74619400  0.20148600  0.45353000  1
  N  1904  1  0.74418700  0.74878100  0.93975900  1
  N  1907  1  0.76279300  0.75053300  0.89869500  1
  N  1911  1  0.76051800  0.69932900  0.95769500  1
  N  1912  1  0.74656700  0.79996400  0.88070700  1
  N  1918  1  0.26276200  0.74881600  0.39474300  1
  N  1921  1  0.24414300  0.75065800  0.43580300  1
  N  1925  1  0.24623500  0.69940800  0.37683300  1
  N  1926  1  0.26056700  0.80005700  0.45374800  1
  N  1932  1  0.26299300  0.25330300  0.93962900  1
  N  1935  1  0.24429500  0.25143300  0.89860400  1
  N  1939  1  0.24661600  0.30274900  0.95752100  1
  N  1940  1  0.26059900  0.20197400  0.88070500  1
  N  1946  1  0.26264700  0.22921200  0.42047600  1
  N  1949  1  0.24390000  0.27021800  0.41805600  1
  N  1953  1  0.24572700  0.21174500  0.46990200  1
  N  1954  1  0.26065800  0.28766500  0.36858600  1
  N  1960  1  0.26269000  0.77238900  0.91404200  1
  N  1963  1  0.24453800  0.73114300  0.91546900  1
  N  1967  1  0.24659600  0.79053100  0.86465200  1
  N  1968  1  0.26040700  0.71302200  0.96490800  1
  N  1974  1  0.74435900  0.22922100  0.91397700  1
  N  1977  1  0.76309000  0.27022900  0.91638100  1
  N  1981  1  0.76125000  0.21175200  0.86454200  1
  N  1982  1  0.74632600  0.28770400  0.96583600  1
  N  1988  1  0.74422300  0.77301400  0.42034700  1
  N  1991  1  0.76288300  0.73196800  0.41820400  1
  N  1995  1  0.76091600  0.79069100  0.46976600  1
  N  1996  1  0.74634400  0.71426200  0.36878200  1
  N  2002  1  0.67291200  0.01583200  0.33614200  1
  N  2005  1  0.70831100  0.98734900  0.32597800  1
  N  2009  1  0.63011500  0.98256800  0.35476100  1
  N  2010  1  0.75173600  0.01943800  0.30799800  1
  N  2016  1  0.67278200  0.98597200  0.99795700  1
  N  2019  1  0.70771700  0.01481500  0.00849293  1
  N  2023  1  0.62975200  0.01881000  0.97904900  1
  N  2024  1  0.75132800  0.98306400  0.02678390  1
  N  2030  1  0.33424200  0.98587300  0.33658300  1
  N  2033  1  0.29956700  0.01497500  0.32594800  1
  N  2037  1  0.37748700  0.01839200  0.35559400  1
  N  2038  1  0.25581400  0.98344700  0.30748800  1
  N  2044  1  0.33689700  0.01821400  0.99703200  1
  N  2047  1  0.30667800  0.98590000  0.00950193  1
  N  2051  1  0.38445400  0.99138700  0.97930100  1
  N  2052  1  0.25917200  0.01360200  0.02693290  1
  N  2058  1  0.69465000  0.14823900  0.18105300  1
  N  2061  1  0.67819700  0.17793000  0.15132600  1
  N  2065  1  0.70891600  0.10509300  0.14990800  1
  N  2066  1  0.66428600  0.22114600  0.18270400  1
  N  2072  1  0.31233500  0.14825800  0.15335000  1
  N  2075  1  0.32882500  0.17789800  0.18310400  1
  N  2079  1  0.29808300  0.10508000  0.18445900  1
  N  2080  1  0.34273000  0.22114800  0.15177000  1
  N  2086  1  0.69472000  0.85377900  0.15321100  1
  N  2089  1  0.67824900  0.82409800  0.18293000  1
  N  2093  1  0.70902000  0.89690100  0.18437000  1
  N  2094  1  0.66439100  0.78086800  0.15156100  1
  N  2100  1  0.31232600  0.85375600  0.18137100  1
  N  2103  1  0.32882400  0.82416800  0.15157300  1
  N  2107  1  0.29792300  0.89694400  0.15035300  1
  N  2108  1  0.34283000  0.78089400  0.18283000  1
  N  2114  1  0.52096700  0.18957700  0.33383700  1
  N  2117  1  0.48587500  0.17658500  0.36133000  1
  N  2121  1  0.49237600  0.20883900  0.29017900  1
  N  2122  1  0.51525200  0.15776700  0.40504600  1
  N  2128  1  0.48578400  0.81246700  0.33387400  1
  N  2131  1  0.52094400  0.82543600  0.36130500  1
  N  2135  1  0.51430100  0.79315500  0.29018600  1
  N  2136  1  0.49168000  0.84425700  0.40508300  1
  N  2142  1  0.48581600  0.18934500  0.00063593  1
  N  2145  1  0.52092600  0.17646200  0.97310500  1
  N  2149  1  0.51441800  0.20866400  0.04426790  1
  N  2150  1  0.49158600  0.15767100  0.92937100  1
  N  2156  1  0.52090200  0.81277300  0.00056693  1
  N  2159  1  0.48578400  0.82598000  0.97318200  1
  N  2163  1  0.49237200  0.79341400  0.04418590  1
  N  2164  1  0.51519000  0.84460200  0.92938400  1
  N  2170  1  0.17269100  0.51538100  0.83667700  1
  N  2173  1  0.20722400  0.48610900  0.82608100  1
  N  2177  1  0.12932200  0.48310100  0.85582700  1
  N  2178  1  0.25106000  0.51749900  0.80746800  1
  N  2184  1  0.17279700  0.48704800  0.49910600  1
  N  2187  1  0.20870700  0.51516200  0.50863000  1
  N  2191  1  0.13038300  0.52064900  0.48031600  1
  N  2192  1  0.25180300  0.48283200  0.52677000  1
  N  2198  1  0.83428100  0.48677500  0.83631200  1
  N  2201  1  0.79919100  0.51558000  0.82608300  1
  N  2205  1  0.87725500  0.51959400  0.85532200  1
  N  2206  1  0.75567000  0.48382500  0.80764400  1
  N  2212  1  0.83678300  0.51739100  0.49702200  1
  N  2215  1  0.80646400  0.48511900  0.50939000  1
  N  2219  1  0.88425500  0.49050600  0.47919500  1
  N  2220  1  0.75904400  0.51288600  0.52691000  1
  N  2226  1  0.19481000  0.64825800  0.68178400  1
  N  2229  1  0.17817400  0.67785300  0.65206100  1
  N  2233  1  0.20899200  0.60504700  0.65071400  1
  N  2234  1  0.16438800  0.72115000  0.68336100  1
  N  2240  1  0.81215000  0.64829800  0.65257300  1
  N  2243  1  0.82881100  0.67785200  0.68232100  1
  N  2247  1  0.79797300  0.60506300  0.68361300  1
  N  2248  1  0.84261600  0.72116900  0.65106000  1
  N  2254  1  0.19464300  0.35378000  0.65248800  1
  N  2257  1  0.17807400  0.32416600  0.68221800  1
  N  2261  1  0.20887900  0.39695900  0.68359000  1
  N  2262  1  0.16429000  0.28087000  0.65092800  1
  N  2268  1  0.81233300  0.35366900  0.68200300  1
  N  2271  1  0.82893800  0.32415000  0.65219400  1
  N  2275  1  0.79804600  0.39693100  0.65104300  1
  N  2276  1  0.84285300  0.28080400  0.68336400  1
  N  2282  1  0.02114890  0.68951500  0.83395700  1
  N  2285  1  0.98583200  0.67662400  0.86125000  1
  N  2289  1  0.99286500  0.70896400  0.79019300  1
  N  2290  1  0.01489290  0.65768500  0.90511100  1
  N  2296  1  0.98590400  0.31255200  0.83392600  1
  N  2299  1  0.02122990  0.32541400  0.86122600  1
  N  2303  1  0.01417990  0.29309000  0.79016500  1
  N  2304  1  0.99218300  0.34432800  0.90510300  1
  N  2310  1  0.98555700  0.68929600  0.50052600  1
  N  2313  1  0.02091390  0.67652500  0.47321600  1
  N  2317  1  0.01382290  0.70876800  0.54430200  1
  N  2318  1  0.99192900  0.65757900  0.42932700  1
  N  2324  1  0.02085290  0.31272100  0.50051000  1
  N  2327  1  0.98555000  0.32587700  0.47330600  1
  N  2331  1  0.99258900  0.29329600  0.54426200  1
  N  2332  1  0.01470090  0.34461200  0.42939200  1
