# generated using pymatgen
data_H32C48N5
_symmetry_space_group_name_H-M   'P 1'
_cell_length_a   37.28440000
_cell_length_b   37.28440000
_cell_length_c   78.24370000
_cell_angle_alpha   89.99930000
_cell_angle_beta   89.99860000
_cell_angle_gamma   60.00000000
_symmetry_Int_Tables_number   1
_chemical_formula_structural   H32C48N5
_chemical_formula_sum   'H384 C576 N60'
_cell_volume   94196.40493653
_cell_formula_units_Z   12
loop_
 _symmetry_equiv_pos_site_id
 _symmetry_equiv_pos_as_xyz
  1  'x, y, z'
loop_
 _atom_site_type_symbol
 _atom_site_label
 _atom_site_symmetry_multiplicity
 _atom_site_fract_x
 _atom_site_fract_y
 _atom_site_fract_z
 _atom_site_occupancy
  H  73  1  0.09757600  0.38467700  0.08664600  1
  H  74  1  0.09723600  0.43341000  0.06674500  1
  H  75  1  0.16410100  0.41519400  0.12188300  1
  H  76  1  0.16378300  0.46407800  0.10191200  1
  H  77  1  0.19242900  0.46416700  0.07084900  1
  H  78  1  0.18839400  0.51444200  0.05068600  1
  H  79  1  0.06295200  0.51395500  0.06699200  1
  H  80  1  0.05906400  0.56411100  0.04682600  1
  H  81  1  0.12224400  0.50313300  0.01836900  1
  H  82  1  0.12070500  0.50468300  0.98603900  1
  H  83  1  0.12004300  0.60877400  0.00281100  1
  H  84  1  0.11871700  0.67181400  0.00320900  1
  H  85  1  0.11920000  0.60462200  0.06806000  1
  H  86  1  0.11628000  0.67426100  0.06847400  1
  H  87  1  0.17964500  0.71170600  0.04849700  1
  H  88  1  0.17789500  0.75850600  0.06979300  1
  H  89  1  0.04960200  0.76648500  0.05161500  1
  H  90  1  0.04767500  0.81367600  0.07294500  1
  H  91  1  0.11761400  0.77612200  0.01996700  1
  H  92  1  0.12153200  0.77496400  0.98767600  1
  H  93  1  0.12165800  0.60679000  0.93755100  1
  H  94  1  0.12286600  0.67433000  0.93798800  1
  H  95  1  0.05894600  0.77578200  0.95940700  1
  H  96  1  0.06123800  0.82258700  0.93907800  1
  H  97  1  0.18846600  0.69804900  0.95498800  1
  H  98  1  0.19089200  0.74484300  0.93463100  1
  H  99  1  0.16131100  0.77497300  0.90363100  1
  H  100  1  0.16189400  0.82504300  0.88457600  1
  H  101  1  0.09531300  0.91923600  0.92095500  1
  H  102  1  0.09485600  0.86942100  0.93990000  1
  H  103  1  0.18394100  0.50535100  0.95849000  1
  H  104  1  0.18356100  0.46151100  0.93624900  1
  H  105  1  0.08545900  0.51872800  0.90004500  1
  H  106  1  0.09066300  0.47543000  0.87666600  1
  H  107  1  0.15891300  0.36964900  0.90770900  1
  H  108  1  0.15355700  0.41303900  0.93101900  1
  H  109  1  0.05418100  0.53928400  0.93073400  1
  H  110  1  0.05472800  0.58319100  0.95298400  1
  H  111  1  0.07677200  0.80657000  0.10428200  1
  H  112  1  0.08607200  0.84256600  0.12746200  1
  H  113  1  0.14957200  0.83695400  0.07269300  1
  H  114  1  0.15940700  0.87235200  0.09577700  1
  H  119  1  0.11452000  0.40592800  0.86506400  1
  H  120  1  0.13676100  0.34106200  0.11569000  1
  H  121  1  0.13644100  0.86055400  0.13955900  1
  H  122  1  0.12864100  0.93041600  0.89426800  1
  H  195  1  0.37991300  0.92490100  0.41980900  1
  H  196  1  0.42861800  0.87642300  0.39992500  1
  H  197  1  0.41095200  0.82810300  0.45523800  1
  H  198  1  0.45979000  0.77944900  0.43527700  1
  H  199  1  0.45975800  0.75048000  0.40421100  1
  H  200  1  0.51006000  0.70421100  0.38405900  1
  H  201  1  0.50931000  0.83034800  0.40023100  1
  H  202  1  0.55950700  0.78404600  0.38008400  1
  H  203  1  0.49863700  0.78174700  0.35168900  1
  H  204  1  0.50019300  0.78174800  0.31936100  1
  H  205  1  0.60429500  0.67832400  0.33613200  1
  H  206  1  0.66731000  0.61659700  0.33653200  1
  H  207  1  0.60012700  0.68329400  0.40138200  1
  H  208  1  0.66976300  0.61657300  0.40179600  1
  H  209  1  0.70724900  0.51577200  0.38182100  1
  H  210  1  0.75405300  0.47073600  0.40311900  1
  H  211  1  0.76199100  0.59107100  0.38493700  1
  H  212  1  0.80918900  0.54581400  0.40626600  1
  H  213  1  0.77163000  0.51339100  0.35328700  1
  H  214  1  0.77045400  0.51062400  0.32099700  1
  H  215  1  0.60230400  0.67869800  0.27087100  1
  H  216  1  0.66983800  0.60994100  0.27130900  1
  H  217  1  0.77131800  0.57236900  0.29277400  1
  H  218  1  0.81818700  0.52324300  0.27246600  1
  H  219  1  0.69353100  0.52066200  0.28827100  1
  H  220  1  0.74038000  0.47142800  0.26792700  1
  H  221  1  0.77069900  0.47105600  0.23690700  1
  H  222  1  0.82088500  0.42052900  0.21784500  1
  H  223  1  0.91481000  0.39247200  0.25441300  1
  H  224  1  0.86488600  0.44264200  0.27335300  1
  H  225  1  0.50083300  0.71789000  0.29182300  1
  H  226  1  0.45698300  0.76212800  0.26958700  1
  H  227  1  0.51422400  0.80293900  0.23335700  1
  H  228  1  0.47092000  0.84107300  0.20999000  1
  H  229  1  0.36515600  0.87872500  0.24105900  1
  H  230  1  0.40855300  0.84063900  0.26436100  1
  H  231  1  0.53482100  0.81365400  0.26404100  1
  H  232  1  0.57873500  0.76918600  0.28628900  1
  H  233  1  0.80212800  0.52382300  0.43760300  1
  H  234  1  0.83808700  0.47854700  0.46078500  1
  H  235  1  0.83249800  0.42061000  0.40602700  1
  H  236  1  0.86786300  0.37540400  0.42911600  1
  H  241  1  0.40144500  0.88675700  0.19839500  1
  H  242  1  0.33643600  0.92895800  0.44920500  1
  H  243  1  0.85605000  0.41018700  0.47288800  1
  H  244  1  0.92620900  0.34823400  0.22756800  1
  H  317  1  0.92047300  0.10230100  0.75316300  1
  H  318  1  0.87199500  0.10210500  0.73327200  1
  H  319  1  0.82366400  0.16805600  0.78859000  1
  H  320  1  0.77500700  0.16790000  0.76861900  1
  H  321  1  0.74604500  0.19692300  0.73755500  1
  H  322  1  0.69976900  0.19289300  0.71740600  1
  H  323  1  0.82592000  0.06750700  0.73356200  1
  H  324  1  0.77961200  0.06361400  0.71342000  1
  H  325  1  0.77728200  0.12682100  0.68503300  1
  H  326  1  0.77728600  0.12525800  0.65270400  1
  H  327  1  0.67389000  0.12452800  0.66947600  1
  H  328  1  0.61216000  0.12323800  0.66987700  1
  H  329  1  0.67887300  0.12370200  0.73472600  1
  H  330  1  0.61215400  0.12078600  0.73514300  1
  H  331  1  0.51129100  0.18414100  0.71516500  1
  H  332  1  0.46624700  0.18234400  0.73645200  1
  H  333  1  0.58664800  0.05410800  0.71828500  1
  H  334  1  0.54139000  0.05213400  0.73960500  1
  H  335  1  0.50891400  0.12220600  0.68663500  1
  H  336  1  0.50615000  0.12615000  0.65434500  1
  H  337  1  0.67427100  0.12612300  0.60421600  1
  H  338  1  0.60551400  0.12735100  0.60465600  1
  H  339  1  0.56786000  0.06352100  0.62613600  1
  H  340  1  0.51871100  0.06580400  0.60583700  1
  H  341  1  0.51625800  0.19299900  0.62160400  1
  H  342  1  0.46700400  0.19540700  0.60126400  1
  H  343  1  0.46667400  0.16528900  0.57023100  1
  H  344  1  0.41615700  0.16557000  0.55118000  1
  H  345  1  0.38787900  0.10006400  0.58784400  1
  H  346  1  0.43805000  0.09986400  0.60677100  1
  H  347  1  0.71343700  0.18844200  0.62515900  1
  H  348  1  0.75766800  0.18805100  0.60291900  1
  H  349  1  0.79847400  0.08999600  0.56669200  1
  H  350  1  0.83662400  0.09514900  0.54332400  1
  H  351  1  0.87426300  0.16327400  0.57438900  1
  H  352  1  0.83616500  0.15798000  0.59768900  1
  H  353  1  0.80920900  0.05868100  0.59738700  1
  H  354  1  0.76475000  0.05924000  0.61964000  1
  H  355  1  0.51933500  0.08128400  0.77094900  1
  H  356  1  0.47406400  0.09059100  0.79411800  1
  H  357  1  0.41614700  0.15399800  0.73935100  1
  H  358  1  0.37093300  0.16382400  0.76244200  1
  H  363  1  0.88224800  0.11897300  0.53172200  1
  H  364  1  0.92460300  0.14158800  0.78255600  1
  H  365  1  0.40570400  0.14101100  0.80620300  1
  H  366  1  0.34370800  0.13283400  0.56095600  1
  H  373  1  0.24986300  0.22677700  0.86023800  1
  H  374  1  0.20802400  0.27889300  0.88054700  1
  H  381  1  0.29401200  0.26916300  0.82854300  1
  H  382  1  0.34824800  0.22317600  0.80980100  1
  H  383  1  0.29157300  0.15013100  0.80460800  1
  H  384  1  0.15821400  0.36758400  0.84128900  1
  H  385  1  0.23685100  0.19627300  0.82365500  1
  H  387  1  0.17922500  0.34719700  0.81255400  1
  H  388  1  0.21354700  0.29902400  0.80716100  1
  H  397  1  0.22230500  0.93051400  0.19358100  1
  H  398  1  0.27440500  0.92028300  0.21389000  1
  H  405  1  0.26468300  0.84396600  0.16191100  1
  H  406  1  0.21871900  0.83570200  0.14316100  1
  H  407  1  0.14572600  0.96541500  0.13791900  1
  H  408  1  0.36311200  0.88139300  0.17463600  1
  H  409  1  0.19184500  0.97401100  0.15697300  1
  H  411  1  0.34274100  0.88072000  0.14590200  1
  H  412  1  0.29457700  0.89454800  0.14050900  1
  H  421  1  0.92604900  0.25433900  0.52691300  1
  H  422  1  0.91583600  0.21245500  0.54722100  1
  H  429  1  0.83948200  0.29853000  0.49524400  1
  H  430  1  0.83122300  0.35276400  0.47649700  1
  H  431  1  0.96093600  0.29603800  0.47125600  1
  H  432  1  0.87691500  0.16266600  0.50796900  1
  H  433  1  0.96952900  0.24132000  0.49030800  1
  H  435  1  0.87621900  0.18373100  0.47923600  1
  H  436  1  0.89004300  0.21806900  0.47384200  1
  H  445  1  0.02626200  0.04204400  0.86039800  1
  H  446  1  0.06822500  0.99095000  0.88089800  1
  H  453  1  0.97499900  0.99807600  0.83166400  1
  H  454  1  0.91960000  0.04288300  0.81315200  1
  H  455  1  0.97663300  0.11494400  0.80509500  1
  H  456  1  0.10752200  0.89795300  0.84344900  1
  H  457  1  0.03240200  0.06989400  0.82375600  1
  H  459  1  0.08441300  0.91665000  0.81469800  1
  H  460  1  0.05205300  0.96504300  0.80885500  1
  H  469  1  0.03767400  0.33869600  0.19352300  1
  H  470  1  0.98671900  0.34786300  0.21409400  1
  H  477  1  0.99334900  0.43410100  0.16472600  1
  H  478  1  0.03835800  0.44467500  0.14633000  1
  H  479  1  0.11087800  0.31552400  0.13852200  1
  H  480  1  0.89343800  0.40181600  0.17677200  1
  H  481  1  0.06561100  0.30482700  0.15706300  1
  H  483  1  0.91194400  0.40623200  0.14798900  1
  H  484  1  0.96031000  0.39013000  0.14207900  1
  H  493  1  0.33391400  0.03099600  0.52692000  1
  H  494  1  0.34314500  0.07276400  0.54747900  1
  H  501  1  0.42939900  0.97965500  0.49827000  1
  H  502  1  0.44006300  0.92418800  0.47978700  1
  H  503  1  0.31099300  0.98114300  0.47167900  1
  H  504  1  0.39730100  0.11185700  0.51015200  1
  H  505  1  0.30020200  0.03698600  0.49031000  1
  H  507  1  0.40173100  0.08887900  0.48137700  1
  H  508  1  0.38556500  0.05666100  0.47547700  1
  H  583  1  0.77572600  0.06282600  0.04830400  1
  H  584  1  0.77538600  0.11155900  0.02840300  1
  H  585  1  0.84225100  0.09334310  0.08354100  1
  H  586  1  0.84193300  0.14222710  0.06357000  1
  H  587  1  0.87057900  0.14231600  0.03250700  1
  H  588  1  0.86654400  0.19259100  0.01234400  1
  H  589  1  0.74110200  0.19210410  0.02865000  1
  H  590  1  0.73721400  0.24226010  0.00848400  1
  H  591  1  0.80039400  0.18128210  0.98002730  1
  H  592  1  0.79885500  0.18283210  0.94769730  1
  H  593  1  0.79819300  0.28692300  0.96446930  1
  H  594  1  0.79686700  0.34996300  0.96486730  1
  H  595  1  0.79735000  0.28277100  0.02971800  1
  H  596  1  0.79443000  0.35241000  0.03013200  1
  H  597  1  0.85779500  0.38985500  0.01015500  1
  H  598  1  0.85604500  0.43665500  0.03145100  1
  H  599  1  0.72775200  0.44463400  0.01327300  1
  H  600  1  0.72582500  0.49182500  0.03460300  1
  H  601  1  0.79576400  0.45427100  0.98162530  1
  H  602  1  0.79968200  0.45311300  0.94933430  1
  H  603  1  0.79980800  0.28493900  0.89920900  1
  H  604  1  0.80101600  0.35247900  0.89964600  1
  H  605  1  0.73709600  0.45393100  0.92106530  1
  H  606  1  0.73938800  0.50073600  0.90073630  1
  H  607  1  0.86661600  0.37619800  0.91664630  1
  H  608  1  0.86904200  0.42299200  0.89628900  1
  H  609  1  0.83946100  0.45312200  0.86528900  1
  H  610  1  0.84004400  0.50319200  0.84623400  1
  H  611  1  0.77346300  0.59738500  0.88261300  1
  H  612  1  0.77300600  0.54757000  0.90155830  1
  H  613  1  0.86209100  0.18350000  0.92014830  1
  H  614  1  0.86171100  0.13966000  0.89790700  1
  H  615  1  0.76360900  0.19687710  0.86170300  1
  H  616  1  0.76881300  0.15357910  0.83832400  1
  H  617  1  0.83706300  0.04779800  0.86936700  1
  H  618  1  0.83170700  0.09118810  0.89267700  1
  H  619  1  0.73233100  0.21743310  0.89239200  1
  H  620  1  0.73287800  0.26134015  0.91464230  1
  H  621  1  0.75492200  0.48471900  0.06594000  1
  H  622  1  0.76422200  0.52071500  0.08912000  1
  H  623  1  0.82772200  0.51510300  0.03435100  1
  H  624  1  0.83755700  0.55050100  0.05743500  1
  H  629  1  0.79267000  0.08407700  0.82672200  1
  H  630  1  0.81491100  0.01921100  0.07734800  1
  H  631  1  0.81459100  0.53870300  0.10121700  1
  H  632  1  0.80679100  0.60856500  0.85592600  1
  H  705  1  0.05806300  0.60305000  0.38146700  1
  H  706  1  0.10676800  0.55457200  0.36158300  1
  H  707  1  0.08910200  0.50625200  0.41689600  1
  H  708  1  0.13794000  0.45759800  0.39693500  1
  H  709  1  0.13790800  0.42862900  0.36586900  1
  H  710  1  0.18821000  0.38236000  0.34571700  1
  H  711  1  0.18746000  0.50849700  0.36188900  1
  H  712  1  0.23765700  0.46219500  0.34174200  1
  H  713  1  0.17678700  0.45989600  0.31334700  1
  H  714  1  0.17834300  0.45989700  0.28101900  1
  H  715  1  0.28244500  0.35647300  0.29779000  1
  H  716  1  0.34546000  0.29474600  0.29819000  1
  H  717  1  0.27827700  0.36144300  0.36304000  1
  H  718  1  0.34791300  0.29472200  0.36345400  1
  H  719  1  0.38539900  0.19392100  0.34347900  1
  H  720  1  0.43220300  0.14888500  0.36477700  1
  H  721  1  0.44014100  0.26922000  0.34659500  1
  H  722  1  0.48733900  0.22396300  0.36792400  1
  H  723  1  0.44978000  0.19154000  0.31494500  1
  H  724  1  0.44860400  0.18877300  0.28265500  1
  H  725  1  0.28045400  0.35684700  0.23252900  1
  H  726  1  0.34798800  0.28809000  0.23296700  1
  H  727  1  0.44946800  0.25051800  0.25443200  1
  H  728  1  0.49633700  0.20139200  0.23412400  1
  H  729  1  0.37168100  0.19881100  0.24992900  1
  H  730  1  0.41853000  0.14957700  0.22958500  1
  H  731  1  0.44884900  0.14920500  0.19856500  1
  H  732  1  0.49903500  0.09867800  0.17950300  1
  H  733  1  0.59296000  0.07062100  0.21607100  1
  H  734  1  0.54303600  0.12079100  0.23501100  1
  H  735  1  0.17898300  0.39603900  0.25348100  1
  H  736  1  0.13513300  0.44027700  0.23124500  1
  H  737  1  0.19237400  0.48108800  0.19501500  1
  H  738  1  0.14907000  0.51922200  0.17164800  1
  H  739  1  0.04330600  0.55687400  0.20271700  1
  H  740  1  0.08670300  0.51878800  0.22601900  1
  H  741  1  0.21297100  0.49180300  0.22569900  1
  H  742  1  0.25688500  0.44733500  0.24794700  1
  H  743  1  0.48027800  0.20197200  0.39926100  1
  H  744  1  0.51623700  0.15669600  0.42244300  1
  H  745  1  0.51064800  0.09875900  0.36768500  1
  H  746  1  0.54601300  0.05355300  0.39077400  1
  H  751  1  0.07959500  0.56490600  0.16005300  1
  H  752  1  0.01458600  0.60710700  0.41086300  1
  H  753  1  0.53420000  0.08833600  0.43454600  1
  H  754  1  0.60435900  0.02638300  0.18922600  1
  H  827  1  0.59862300  0.78045000  0.71482100  1
  H  828  1  0.55014500  0.78025400  0.69493000  1
  H  829  1  0.50181400  0.84620500  0.75024800  1
  H  830  1  0.45315700  0.84604900  0.73027700  1
  H  831  1  0.42419500  0.87507200  0.69921300  1
  H  832  1  0.37791900  0.87104200  0.67906400  1
  H  833  1  0.50407000  0.74565600  0.69522000  1
  H  834  1  0.45776200  0.74176300  0.67507800  1
  H  835  1  0.45543200  0.80497000  0.64669100  1
  H  836  1  0.45543600  0.80340700  0.61436200  1
  H  837  1  0.35204000  0.80267700  0.63113400  1
  H  838  1  0.29031000  0.80138700  0.63153500  1
  H  839  1  0.35702300  0.80185100  0.69638400  1
  H  840  1  0.29030400  0.79893500  0.69680100  1
  H  841  1  0.18944100  0.86229000  0.67682300  1
  H  842  1  0.14439700  0.86049300  0.69811000  1
  H  843  1  0.26479800  0.73225715  0.67994300  1
  H  844  1  0.21954000  0.73028310  0.70126300  1
  H  845  1  0.18706400  0.80035510  0.64829300  1
  H  846  1  0.18430000  0.80429910  0.61600300  1
  H  847  1  0.35242100  0.80427200  0.56587400  1
  H  848  1  0.28366400  0.80550000  0.56631400  1
  H  849  1  0.24601000  0.74167010  0.58779400  1
  H  850  1  0.19686100  0.74395310  0.56749500  1
  H  851  1  0.19440800  0.87114800  0.58326200  1
  H  852  1  0.14515400  0.87355600  0.56292200  1
  H  853  1  0.14482400  0.84343810  0.53188900  1
  H  854  1  0.09430700  0.84371910  0.51283800  1
  H  855  1  0.06602900  0.77821300  0.54950200  1
  H  856  1  0.11620000  0.77801300  0.56842900  1
  H  857  1  0.39158700  0.86659100  0.58681700  1
  H  858  1  0.43581800  0.86620000  0.56457700  1
  H  859  1  0.47662400  0.76814500  0.52835000  1
  H  860  1  0.51477400  0.77329800  0.50498200  1
  H  861  1  0.55241300  0.84142300  0.53604700  1
  H  862  1  0.51431500  0.83612900  0.55934700  1
  H  863  1  0.48735900  0.73683000  0.55904500  1
  H  864  1  0.44290000  0.73738900  0.58129800  1
  H  865  1  0.19748500  0.75943310  0.73260700  1
  H  866  1  0.15221400  0.76874010  0.75577600  1
  H  867  1  0.09429700  0.83214710  0.70100900  1
  H  868  1  0.04908300  0.84197300  0.72410000  1
  H  873  1  0.56039800  0.79712200  0.49338000  1
  H  874  1  0.60275300  0.81973700  0.74421400  1
  H  875  1  0.08385400  0.81916010  0.76786100  1
  H  876  1  0.02185800  0.81098300  0.52261400  1
  H  883  1  0.92801260  0.90492640  0.82189600  1
  H  884  1  0.88617400  0.95704200  0.84220500  1
  H  891  1  0.97216160  0.94731250  0.79020100  1
  H  892  1  0.02639800  0.90132510  0.77145900  1
  H  893  1  0.96972260  0.82828040  0.76626600  1
  H  894  1  0.83636400  0.04573300  0.80294700  1
  H  895  1  0.91500060  0.87442240  0.78531300  1
  H  897  1  0.85737500  0.02534600  0.77421200  1
  H  898  1  0.89169700  0.97717300  0.76881900  1
  H  907  1  0.90045460  0.60866340  0.15523900  1
  H  908  1  0.95255460  0.59843240  0.17554800  1
  H  915  1  0.94283260  0.52211540  0.12356900  1
  H  916  1  0.89686900  0.51385100  0.10481900  1
  H  917  1  0.82387600  0.64356400  0.09957700  1
  H  918  1  0.04126200  0.55954200  0.13629400  1
  H  919  1  0.86999500  0.65216000  0.11863100  1
  H  921  1  0.02089100  0.55886900  0.10756000  1
  H  922  1  0.97272660  0.57269740  0.10216700  1
  H  931  1  0.60419900  0.93248800  0.48857100  1
  H  932  1  0.59398600  0.89060400  0.50887900  1
  H  939  1  0.51763200  0.97667900  0.45690200  1
  H  940  1  0.50937300  0.03091300  0.43815500  1
  H  941  1  0.63908600  0.97418700  0.43291400  1
  H  942  1  0.55506500  0.84081500  0.46962700  1
  H  943  1  0.64767900  0.91946900  0.45196600  1
  H  945  1  0.55436900  0.86188000  0.44089400  1
  H  946  1  0.56819300  0.89621800  0.43550000  1
  H  955  1  0.70441200  0.72019300  0.82205600  1
  H  956  1  0.74637500  0.66909900  0.84255600  1
  H  963  1  0.65314900  0.67622500  0.79332200  1
  H  964  1  0.59775000  0.72103200  0.77481000  1
  H  965  1  0.65478300  0.79309300  0.76675300  1
  H  966  1  0.78567200  0.57610200  0.80510700  1
  H  967  1  0.71055200  0.74804300  0.78541400  1
  H  969  1  0.76256300  0.59479900  0.77635600  1
  H  970  1  0.73020300  0.64319200  0.77051300  1
  H  979  1  0.71582400  0.01684500  0.15518100  1
  H  980  1  0.66486900  0.02601200  0.17575200  1
  H  987  1  0.67149900  0.11225000  0.12638400  1
  H  988  1  0.71650800  0.12282400  0.10798800  1
  H  989  1  0.78902800  0.99367300  0.10018000  1
  H  990  1  0.57158800  0.07996500  0.13843000  1
  H  991  1  0.74376100  0.98297600  0.11872100  1
  H  993  1  0.59009400  0.08438100  0.10964700  1
  H  994  1  0.63846000  0.06827900  0.10373700  1
  H  1003  1  0.01206400  0.70914500  0.48857800  1
  H  1004  1  0.02129500  0.75091300  0.50913700  1
  H  1011  1  0.10754900  0.65780400  0.45992800  1
  H  1012  1  0.11821300  0.60233700  0.44144500  1
  H  1013  1  0.98914260  0.65929240  0.43333700  1
  H  1014  1  0.07545100  0.79000600  0.47181000  1
  H  1015  1  0.97835160  0.71513540  0.45196800  1
  H  1017  1  0.07988100  0.76702800  0.44303500  1
  H  1018  1  0.06371500  0.73481000  0.43713500  1
  C  1  1  0.12165300  0.52626900  0.01114900  1
  C  2  1  0.12067300  0.52717100  0.99352200  1
  C  3  1  0.12023700  0.56311700  0.98812600  1
  C  5  1  0.12113200  0.56199100  0.01695700  1
  C  6  1  0.12135700  0.57245800  0.03443400  1
  C  7  1  0.11980200  0.60918500  0.04035600  1
  C  9  1  0.11702700  0.67054100  0.04072100  1
  C  10  1  0.11709200  0.65855300  0.05764000  1
  C  11  1  0.11886300  0.62068200  0.05741500  1
  C  12  1  0.11605500  0.70729300  0.03523100  1
  C  13  1  0.11767300  0.71788100  0.01788600  1
  C  15  1  0.12069800  0.71707900  0.98907900  1
  C  16  1  0.12050600  0.75263400  0.99488500  1
  C  17  1  0.11828000  0.75331400  0.01249300  1
  C  18  1  0.12222600  0.70576700  0.97160900  1
  C  19  1  0.12194800  0.66993400  0.96569600  1
  C  21  1  0.12054800  0.61064700  0.96531300  1
  C  22  1  0.12145000  0.62216800  0.94839800  1
  C  23  1  0.12228600  0.65874200  0.94863400  1
  C  24  1  0.11984100  0.57470600  0.97077400  1
  C  25  1  0.11933400  0.54810100  0.95783400  1
  C  26  1  0.08195700  0.55744700  0.94958500  1
  C  27  1  0.08175300  0.53175100  0.93646000  1
  C  28  1  0.11875000  0.49587900  0.93139800  1
  C  29  1  0.15603200  0.48664000  0.93981900  1
  C  30  1  0.15641200  0.51250900  0.95280800  1
  C  31  1  0.11894000  0.47020200  0.91786400  1
  C  32  1  0.13979200  0.42663800  0.91967600  1
  C  33  1  0.14274100  0.40104900  0.90591400  1
  C  34  1  0.12521900  0.41810400  0.88978800  1
  C  35  1  0.10326400  0.46177200  0.88815900  1
  C  36  1  0.10002100  0.48739700  0.90197800  1
  C  37  1  0.12350000  0.73268500  0.95903000  1
  C  38  1  0.08681300  0.76886200  0.95413000  1
  C  39  1  0.08828700  0.79639000  0.94225700  1
  C  40  1  0.12630100  0.78822300  0.93485800  1
  C  41  1  0.16278600  0.75136700  0.93950700  1
  C  42  1  0.16147500  0.72400600  0.95154300  1
  C  43  1  0.12794600  0.81733300  0.92359800  1
  C  44  1  0.10926400  0.85953000  0.92831300  1
  C  45  1  0.11004200  0.88880000  0.91725000  1
  C  46  1  0.12924100  0.87676400  0.90106600  1
  C  47  1  0.14829400  0.83456000  0.89632800  1
  C  48  1  0.14802100  0.80515300  0.90754900  1
  C  49  1  0.11477600  0.73489500  0.04810500  1
  C  50  1  0.15169200  0.73315700  0.05355000  1
  C  51  1  0.15048900  0.76100600  0.06594800  1
  C  52  1  0.11249500  0.79114400  0.07328600  1
  C  53  1  0.07569000  0.79224500  0.06795300  1
  C  54  1  0.07674400  0.76466400  0.05540600  1
  C  55  1  0.11207300  0.81836600  0.08616900  1
  C  56  1  0.09248700  0.82210800  0.10208100  1
  C  57  1  0.09808900  0.84331400  0.11577900  1
  C  58  1  0.12298500  0.86189300  0.11394900  1
  C  59  1  0.14017800  0.86048700  0.09763800  1
  C  60  1  0.13479600  0.83910400  0.08400000  1
  C  61  1  0.12335100  0.54390100  0.04698900  1
  C  62  1  0.16176900  0.51479900  0.05420900  1
  C  63  1  0.08721800  0.54336400  0.05194000  1
  C  64  1  0.08965200  0.51367800  0.06368200  1
  C  65  1  0.12810700  0.48412700  0.07086000  1
  C  66  1  0.16403900  0.48544700  0.06610500  1
  C  67  1  0.13060000  0.45340400  0.08236700  1
  C  68  1  0.15078800  0.44667600  0.09834600  1
  C  69  1  0.15104100  0.41794400  0.11009000  1
  C  70  1  0.13187400  0.39461600  0.10592500  1
  C  71  1  0.11269200  0.40035500  0.08981000  1
  C  72  1  0.11197700  0.42948700  0.07821300  1
  C  115  1  0.13166800  0.39345300  0.87546200  1
  C  116  1  0.12552500  0.90707600  0.88987400  1
  C  117  1  0.13616200  0.87375000  0.12843400  1
  C  118  1  0.12659300  0.37081400  0.11799500  1
  C  123  1  0.52177800  0.75920700  0.34447100  1
  C  124  1  0.52268400  0.75929000  0.32684300  1
  C  125  1  0.55863100  0.72378700  0.32144700  1
  C  127  1  0.55750500  0.72400900  0.35027700  1
  C  128  1  0.56797200  0.71331100  0.36775500  1
  C  129  1  0.60469900  0.67814200  0.37367700  1
  C  131  1  0.66606300  0.61957400  0.37404300  1
  C  132  1  0.65408600  0.63150600  0.39096200  1
  C  133  1  0.61620100  0.66758900  0.39073700  1
  C  134  1  0.70280800  0.58378100  0.36855200  1
  C  135  1  0.71339500  0.57158200  0.35120800  1
  C  137  1  0.71258300  0.56935800  0.32240100  1
  C  138  1  0.74814000  0.53399500  0.32820600  1
  C  139  1  0.74882400  0.53554100  0.34581300  1
  C  140  1  0.70125900  0.57913200  0.30493200  1
  C  141  1  0.66543800  0.61525400  0.29901700  1
  C  143  1  0.60615200  0.67594200  0.29863300  1
  C  144  1  0.61767700  0.66352300  0.28171800  1
  C  145  1  0.65425000  0.62611100  0.28195500  1
  C  146  1  0.57021800  0.71259500  0.30409300  1
  C  147  1  0.54361200  0.73971100  0.29115400  1
  C  148  1  0.55296800  0.76773100  0.28290100  1
  C  149  1  0.52727900  0.79362700  0.26977400  1
  C  150  1  0.49138500  0.79252800  0.26472000  1
  C  151  1  0.48214300  0.76448900  0.27314400  1
  C  152  1  0.50800000  0.73825200  0.28613800  1
  C  153  1  0.46570900  0.81802000  0.25118900  1
  C  154  1  0.42214900  0.84077700  0.25301100  1
  C  155  1  0.39655300  0.86345300  0.23925600  1
  C  156  1  0.41360300  0.86389000  0.22312300  1
  C  157  1  0.45726800  0.84217500  0.22148900  1
  C  158  1  0.48289500  0.81971400  0.23529700  1
  C  159  1  0.72819000  0.55095600  0.29235200  1
  C  160  1  0.76440300  0.55143100  0.28748400  1
  C  161  1  0.79195600  0.52242600  0.27561900  1
  C  162  1  0.78378300  0.49260300  0.26820300  1
  C  163  1  0.74687000  0.49303300  0.27280100  1
  C  164  1  0.71950000  0.52169200  0.28483900  1
  C  165  1  0.81292800  0.46184100  0.25695800  1
  C  166  1  0.85507400  0.43822000  0.26173100  1
  C  167  1  0.88440600  0.40824000  0.25066500  1
  C  168  1  0.87247900  0.40123600  0.23442900  1
  C  169  1  0.83032000  0.42448800  0.22963500  1
  C  170  1  0.80085200  0.45412600  0.24085100  1
  C  171  1  0.73042000  0.55746600  0.38142500  1
  C  172  1  0.72869200  0.52228500  0.38687400  1
  C  173  1  0.75654900  0.49564100  0.39927000  1
  C  174  1  0.78668400  0.50350500  0.40660600  1
  C  175  1  0.78777300  0.53921200  0.40126900  1
  C  176  1  0.76018100  0.56574000  0.38872600  1
  C  177  1  0.81390100  0.47671600  0.41949300  1
  C  178  1  0.81762000  0.49256900  0.43540500  1
  C  179  1  0.83880900  0.46577400  0.44910700  1
  C  180  1  0.85742100  0.42229600  0.44727800  1
  C  181  1  0.85609800  0.40648700  0.43096100  1
  C  182  1  0.83462900  0.43325300  0.41733400  1
  C  183  1  0.53941700  0.73987500  0.38030900  1
  C  184  1  0.51037600  0.73051200  0.38755900  1
  C  185  1  0.53880700  0.77660500  0.38522100  1
  C  186  1  0.50909600  0.80387600  0.39695100  1
  C  187  1  0.47959700  0.79493200  0.40415200  1
  C  188  1  0.48098200  0.75762900  0.39943400  1
  C  189  1  0.44885600  0.82318100  0.41564400  1
  C  190  1  0.44228000  0.80980500  0.43167200  1
  C  191  1  0.41358600  0.83834000  0.44341100  1
  C  192  1  0.39011700  0.88079000  0.43918400  1
  C  193  1  0.39569500  0.89413700  0.42302200  1
  C  194  1  0.42480500  0.86567300  0.41143000  1
  C  237  1  0.38893600  0.88221000  0.20881100  1
  C  238  1  0.90291000  0.37482300  0.22324600  1
  C  239  1  0.86926100  0.39727100  0.46176600  1
  C  240  1  0.36644200  0.90993800  0.45123900  1
  C  245  1  0.75475900  0.12618600  0.67781400  1
  C  246  1  0.75483800  0.12521000  0.66018600  1
  C  247  1  0.71933900  0.12475400  0.65479100  1
  C  249  1  0.71956100  0.12565800  0.68362200  1
  C  250  1  0.70886400  0.12588900  0.70109900  1
  C  251  1  0.67369300  0.12433200  0.70702200  1
  C  253  1  0.61513400  0.12151700  0.70738800  1
  C  254  1  0.62707300  0.12155200  0.72430700  1
  C  255  1  0.66314300  0.12337800  0.72408100  1
  C  256  1  0.57933000  0.12058700  0.70189900  1
  C  257  1  0.56710700  0.12224800  0.68455600  1
  C  259  1  0.56487900  0.12529500  0.65575000  1
  C  260  1  0.52949200  0.12515200  0.66155600  1
  C  261  1  0.53104600  0.12290200  0.67916300  1
  C  262  1  0.57468200  0.12679100  0.63827900  1
  C  263  1  0.61080900  0.12647800  0.63236400  1
  C  265  1  0.67149500  0.12507800  0.63197900  1
  C  266  1  0.65908600  0.12595100  0.61506400  1
  C  267  1  0.62167400  0.12678700  0.61530100  1
  C  268  1  0.70815200  0.12435200  0.63743800  1
  C  269  1  0.73526500  0.12384100  0.62449700  1
  C  270  1  0.76328500  0.08646300  0.61624500  1
  C  271  1  0.78917100  0.08625500  0.60311200  1
  C  272  1  0.78806500  0.12324700  0.59805400  1
  C  273  1  0.76002300  0.16053000  0.60647400  1
  C  274  1  0.73379400  0.16091300  0.61947300  1
  C  275  1  0.81356500  0.12342100  0.58452400  1
  C  276  1  0.83632100  0.14422500  0.58634400  1
  C  277  1  0.85899100  0.14714900  0.57258500  1
  C  278  1  0.85944800  0.12964200  0.55645600  1
  C  279  1  0.83768900  0.10773500  0.55481900  1
  C  280  1  0.81525000  0.10454900  0.56863000  1
  C  281  1  0.54649700  0.12805300  0.62570100  1
  C  282  1  0.54694300  0.09137600  0.62084000  1
  C  283  1  0.51792400  0.09284200  0.60898100  1
  C  284  1  0.48811900  0.13084300  0.60156000  1
  C  285  1  0.48857400  0.16731500  0.60615200  1
  C  286  1  0.51725200  0.16601100  0.61818300  1
  C  287  1  0.45733200  0.13247600  0.59033000  1
  C  288  1  0.43364900  0.11404200  0.59513700  1
  C  289  1  0.40366200  0.11467400  0.58408100  1
  C  290  1  0.39673800  0.13346500  0.56781800  1
  C  291  1  0.42002700  0.15231600  0.56299700  1
  C  292  1  0.44964300  0.15220200  0.57421000  1
  C  293  1  0.55301700  0.11928400  0.71477300  1
  C  294  1  0.51782000  0.15618000  0.72021900  1
  C  295  1  0.49117200  0.15495100  0.73261000  1
  C  296  1  0.49904800  0.11694400  0.73994200  1
  C  297  1  0.53477200  0.08015800  0.73460700  1
  C  298  1  0.56130800  0.08123900  0.72207200  1
  C  299  1  0.47224600  0.11648800  0.75281600  1
  C  300  1  0.48809200  0.09688300  0.76872400  1
  C  301  1  0.46128700  0.10250800  0.78242700  1
  C  302  1  0.41780200  0.12738400  0.78060500  1
  C  303  1  0.40202700  0.14456800  0.76429100  1
  C  304  1  0.42878500  0.13922000  0.75065600  1
  C  305  1  0.73543200  0.12787300  0.71365200  1
  C  306  1  0.72607100  0.16627500  0.72090500  1
  C  307  1  0.77216000  0.09175300  0.71856500  1
  C  308  1  0.79944200  0.09419300  0.73028600  1
  C  309  1  0.79049600  0.13263100  0.73749400  1
  C  310  1  0.75317100  0.16854500  0.73279100  1
  C  311  1  0.81874700  0.13511600  0.74898700  1
  C  312  1  0.80536300  0.15507400  0.76501500  1
  C  313  1  0.83390400  0.15517500  0.77676500  1
  C  314  1  0.87635200  0.13620800  0.77253900  1
  C  315  1  0.88970700  0.11729000  0.75637400  1
  C  316  1  0.86124300  0.11666600  0.74477800  1
  C  359  1  0.87775800  0.13600200  0.54214200  1
  C  360  1  0.37038300  0.12934500  0.55663900  1
  C  361  1  0.39278700  0.14064200  0.79509300  1
  C  362  1  0.90552300  0.13067400  0.78459300  1
  C  367  1  0.17826900  0.32762900  0.86261900  1
  C  368  1  0.17596900  0.33740900  0.84506000  1
  C  369  1  0.20065900  0.30713700  0.83277600  1
  C  370  1  0.22801400  0.26585400  0.83839300  1
  C  371  1  0.22902600  0.25578000  0.85586200  1
  C  372  1  0.20457800  0.28642400  0.86783200  1
  C  375  1  0.26056700  0.23676700  0.82788100  1
  C  376  1  0.29357900  0.24368200  0.82391400  1
  C  377  1  0.32565500  0.21646400  0.81306600  1
  C  378  1  0.32573600  0.18146900  0.80610800  1
  C  379  1  0.29276200  0.17450400  0.81001300  1
  C  380  1  0.26077800  0.20150800  0.82111700  1
  C  391  1  0.32314700  0.90129700  0.19596400  1
  C  392  1  0.33293400  0.89380000  0.17840600  1
  C  393  1  0.30267400  0.89935500  0.16612200  1
  C  394  1  0.26138800  0.91327900  0.17173900  1
  C  395  1  0.25130600  0.92234900  0.18920500  1
  C  396  1  0.28194400  0.91617800  0.20117600  1
  C  399  1  0.23230700  0.90980800  0.16122600  1
  C  400  1  0.23921400  0.86987800  0.15727000  1
  C  401  1  0.21201000  0.86501100  0.14641800  1
  C  402  1  0.17703600  0.89991900  0.13944500  1
  C  403  1  0.17008000  0.93985900  0.14333800  1
  C  404  1  0.19707000  0.94484900  0.15444500  1
  C  415  1  0.89683400  0.18271300  0.52929600  1
  C  416  1  0.88932100  0.18043500  0.51173900  1
  C  417  1  0.89486800  0.20515000  0.49945500  1
  C  418  1  0.90879400  0.23250700  0.50507100  1
  C  419  1  0.91787900  0.23350500  0.52253600  1
  C  420  1  0.91171900  0.20903200  0.53450700  1
  C  423  1  0.90532300  0.26506300  0.49455900  1
  C  424  1  0.86539500  0.29808800  0.49060400  1
  C  425  1  0.86053000  0.33016100  0.47975500  1
  C  426  1  0.89544000  0.33022600  0.47278000  1
  C  427  1  0.93537900  0.29724000  0.47667300  1
  C  428  1  0.94036700  0.26525600  0.48778100  1
  C  439  1  0.09293400  0.94000600  0.86376500  1
  C  440  1  0.09190700  0.92872700  0.84667100  1
  C  441  1  0.06732600  0.95851900  0.83422600  1
  C  442  1  0.04268300  0.00070800  0.83934400  1
  C  443  1  0.04525600  0.01228100  0.85629300  1
  C  444  1  0.07010900  0.98223300  0.86838400  1
  C  447  1  0.00901600  0.02965400  0.82925000  1
  C  448  1  0.97534400  0.02304000  0.82638000  1
  C  449  1  0.94264400  0.04953600  0.81561200  1
  C  450  1  0.94276200  0.08325900  0.80754000  1
  C  451  1  0.97553800  0.09102300  0.81096500  1
  C  452  1  0.00825200  0.06462100  0.82188800  1
  C  463  1  0.93563600  0.37423100  0.19703300  1
  C  464  1  0.92423500  0.38658600  0.17995200  1
  C  465  1  0.95395000  0.38135500  0.16746400  1
  C  466  1  0.99618700  0.36373900  0.17252200  1
  C  467  1  0.00787500  0.34951300  0.18945700  1
  C  468  1  0.97790500  0.35473000  0.20159000  1
  C  471  1  0.02508700  0.36848400  0.16240300  1
  C  472  1  0.01840000  0.40878400  0.15949200  1
  C  473  1  0.04502000  0.41497800  0.14879900  1
  C  474  1  0.07894200  0.38111400  0.14083400  1
  C  475  1  0.08675800  0.34056900  0.14429100  1
  C  476  1  0.06023500  0.33426800  0.15514500  1
  C  487  1  0.36961300  0.09736900  0.53041300  1
  C  488  1  0.38199900  0.09636200  0.51333300  1
  C  489  1  0.37673700  0.07188500  0.50085200  1
  C  490  1  0.35904700  0.04733500  0.50591900  1
  C  491  1  0.34477500  0.04993800  0.52284800  1
  C  492  1  0.35003000  0.07468100  0.53497600  1
  C  495  1  0.36381100  0.01365600  0.49581900  1
  C  496  1  0.40410900  0.97998200  0.49297600  1
  C  497  1  0.41035600  0.94723500  0.48222800  1
  C  498  1  0.37654400  0.94730600  0.47415200  1
  C  499  1  0.33598800  0.98008500  0.47755300  1
  C  500  1  0.32963300  0.01284500  0.48845600  1
  C  511  1  0.79980300  0.20441800  0.97280730  1
  C  512  1  0.79882300  0.20532000  0.95518030  1
  C  513  1  0.79838700  0.24126600  0.94978430  1
  C  515  1  0.79928200  0.24014000  0.97861530  1
  C  516  1  0.79950700  0.25060700  0.99609225  1
  C  517  1  0.79795200  0.28733400  0.00201400  1
  C  519  1  0.79517700  0.34869000  0.00237900  1
  C  520  1  0.79524200  0.33670200  0.01929800  1
  C  521  1  0.79701300  0.29883100  0.01907300  1
  C  522  1  0.79420500  0.38544200  0.99688925  1
  C  523  1  0.79582300  0.39603000  0.97954430  1
  C  525  1  0.79884800  0.39522800  0.95073730  1
  C  526  1  0.79865600  0.43078300  0.95654330  1
  C  527  1  0.79643000  0.43146300  0.97415130  1
  C  528  1  0.80037600  0.38391600  0.93326730  1
  C  529  1  0.80009800  0.34808300  0.92735430  1
  C  531  1  0.79869800  0.28879600  0.92697130  1
  C  532  1  0.79960000  0.30031700  0.91005630  1
  C  533  1  0.80043600  0.33689100  0.91029230  1
  C  534  1  0.79799100  0.25285500  0.93243230  1
  C  535  1  0.79748400  0.22625000  0.91949230  1
  C  536  1  0.76010700  0.23559615  0.91124330  1
  C  537  1  0.75990300  0.20990010  0.89811800  1
  C  538  1  0.79690000  0.17402810  0.89305600  1
  C  539  1  0.83418200  0.16478915  0.90147730  1
  C  540  1  0.83456200  0.19065800  0.91446630  1
  C  541  1  0.79709000  0.14835110  0.87952200  1
  C  542  1  0.81794200  0.10478710  0.88133400  1
  C  543  1  0.82089100  0.07919810  0.86757200  1
  C  544  1  0.80336900  0.09625300  0.85144600  1
  C  545  1  0.78141400  0.13992110  0.84981700  1
  C  546  1  0.77817100  0.16554610  0.86363600  1
  C  547  1  0.80165000  0.41083400  0.92068830  1
  C  548  1  0.76496300  0.44701100  0.91578830  1
  C  549  1  0.76643700  0.47453900  0.90391530  1
  C  550  1  0.80445100  0.46637200  0.89651600  1
  C  551  1  0.84093600  0.42951600  0.90116530  1
  C  552  1  0.83962500  0.40215500  0.91320130  1
  C  553  1  0.80609600  0.49548200  0.88525600  1
  C  554  1  0.78741400  0.53767900  0.88997100  1
  C  555  1  0.78819200  0.56694900  0.87890800  1
  C  556  1  0.80739100  0.55491300  0.86272400  1
  C  557  1  0.82644400  0.51270900  0.85798600  1
  C  558  1  0.82617100  0.48330200  0.86920700  1
  C  559  1  0.79292600  0.41304400  0.00976300  1
  C  560  1  0.82984200  0.41130600  0.01520800  1
  C  561  1  0.82863900  0.43915500  0.02760600  1
  C  562  1  0.79064500  0.46929300  0.03494400  1
  C  563  1  0.75384000  0.47039400  0.02961100  1
  C  564  1  0.75489400  0.44281300  0.01706400  1
  C  565  1  0.79022300  0.49651500  0.04782700  1
  C  566  1  0.77063700  0.50025700  0.06373900  1
  C  567  1  0.77623900  0.52146300  0.07743700  1
  C  568  1  0.80113500  0.54004200  0.07560700  1
  C  569  1  0.81832800  0.53863600  0.05929600  1
  C  570  1  0.81294600  0.51725300  0.04565800  1
  C  571  1  0.80150100  0.22205000  0.00864700  1
  C  572  1  0.83991900  0.19294800  0.01586700  1
  C  573  1  0.76536800  0.22151310  0.01359800  1
  C  574  1  0.76780200  0.19182710  0.02534000  1
  C  575  1  0.80625700  0.16227610  0.03251800  1
  C  576  1  0.84218900  0.16359600  0.02776300  1
  C  577  1  0.80875000  0.13155310  0.04402500  1
  C  578  1  0.82893800  0.12482510  0.06000400  1
  C  579  1  0.82919100  0.09609310  0.07174800  1
  C  580  1  0.81002400  0.07276500  0.06758300  1
  C  581  1  0.79084200  0.07850400  0.05146800  1
  C  582  1  0.79012700  0.10763600  0.03987100  1
  C  625  1  0.80981800  0.07160200  0.83712000  1
  C  626  1  0.80367500  0.58522500  0.85153200  1
  C  627  1  0.81431200  0.55189900  0.09009200  1
  C  628  1  0.80474300  0.04896300  0.07965300  1
  C  633  1  0.19992800  0.43735600  0.30612900  1
  C  634  1  0.20083400  0.43743900  0.28850100  1
  C  635  1  0.23678100  0.40193600  0.28310500  1
  C  637  1  0.23565500  0.40215800  0.31193500  1
  C  638  1  0.24612200  0.39146000  0.32941300  1
  C  639  1  0.28284900  0.35629100  0.33533500  1
  C  641  1  0.34421300  0.29772300  0.33570100  1
  C  642  1  0.33223600  0.30965500  0.35262000  1
  C  643  1  0.29435100  0.34573800  0.35239500  1
  C  644  1  0.38095800  0.26193000  0.33021000  1
  C  645  1  0.39154500  0.24973100  0.31286600  1
  C  647  1  0.39073300  0.24750700  0.28405900  1
  C  648  1  0.42629000  0.21214400  0.28986400  1
  C  649  1  0.42697400  0.21369000  0.30747100  1
  C  650  1  0.37940900  0.25728100  0.26659000  1
  C  651  1  0.34358800  0.29340300  0.26067500  1
  C  653  1  0.28430200  0.35409100  0.26029100  1
  C  654  1  0.29582700  0.34167200  0.24337600  1
  C  655  1  0.33240000  0.30426000  0.24361300  1
  C  656  1  0.24836800  0.39074400  0.26575100  1
  C  657  1  0.22176200  0.41786000  0.25281200  1
  C  658  1  0.23111800  0.44588000  0.24455900  1
  C  659  1  0.20542900  0.47177600  0.23143200  1
  C  660  1  0.16953500  0.47067700  0.22637800  1
  C  661  1  0.16029300  0.44263800  0.23480200  1
  C  662  1  0.18615000  0.41640100  0.24779600  1
  C  663  1  0.14385900  0.49616900  0.21284700  1
  C  664  1  0.10029900  0.51892600  0.21466900  1
  C  665  1  0.07470300  0.54160200  0.20091400  1
  C  666  1  0.09175300  0.54203900  0.18478100  1
  C  667  1  0.13541800  0.52032400  0.18314700  1
  C  668  1  0.16104500  0.49786300  0.19695500  1
  C  669  1  0.40634000  0.22910500  0.25401000  1
  C  670  1  0.44255300  0.22958000  0.24914200  1
  C  671  1  0.47010600  0.20057500  0.23727700  1
  C  672  1  0.46193300  0.17075200  0.22986100  1
  C  673  1  0.42502000  0.17118200  0.23445900  1
  C  674  1  0.39765000  0.19984100  0.24649700  1
  C  675  1  0.49107800  0.13999000  0.21861600  1
  C  676  1  0.53322400  0.11636900  0.22338900  1
  C  677  1  0.56255600  0.08638900  0.21232300  1
  C  678  1  0.55062900  0.07938500  0.19608700  1
  C  679  1  0.50847000  0.10263700  0.19129300  1
  C  680  1  0.47900200  0.13227500  0.20250900  1
  C  681  1  0.40857000  0.23561500  0.34308300  1
  C  682  1  0.40684200  0.20043400  0.34853200  1
  C  683  1  0.43469900  0.17379000  0.36092800  1
  C  684  1  0.46483400  0.18165400  0.36826400  1
  C  685  1  0.46592300  0.21736100  0.36292700  1
  C  686  1  0.43833100  0.24388900  0.35038400  1
  C  687  1  0.49205100  0.15486500  0.38115100  1
  C  688  1  0.49577000  0.17071800  0.39706300  1
  C  689  1  0.51695900  0.14392300  0.41076500  1
  C  690  1  0.53557100  0.10044500  0.40893600  1
  C  691  1  0.53424800  0.08463600  0.39261900  1
  C  692  1  0.51277900  0.11140200  0.37899200  1
  C  693  1  0.21756700  0.41802400  0.34196700  1
  C  694  1  0.18852600  0.40866100  0.34921700  1
  C  695  1  0.21695700  0.45475400  0.34687900  1
  C  696  1  0.18724600  0.48202500  0.35860900  1
  C  697  1  0.15774700  0.47308100  0.36581000  1
  C  698  1  0.15913200  0.43577800  0.36109200  1
  C  699  1  0.12700600  0.50133000  0.37730200  1
  C  700  1  0.12043000  0.48795400  0.39333000  1
  C  701  1  0.09173600  0.51648900  0.40506900  1
  C  702  1  0.06826700  0.55893900  0.40084200  1
  C  703  1  0.07384500  0.57228600  0.38468000  1
  C  704  1  0.10295500  0.54382200  0.37308800  1
  C  747  1  0.06708600  0.56035900  0.17046900  1
  C  748  1  0.58106000  0.05297200  0.18490400  1
  C  749  1  0.54741100  0.07542000  0.42342400  1
  C  750  1  0.04459200  0.58808700  0.41289700  1
  C  755  1  0.43290900  0.80433500  0.63947200  1
  C  756  1  0.43298800  0.80335900  0.62184400  1
  C  757  1  0.39748900  0.80290300  0.61644900  1
  C  759  1  0.39771100  0.80380700  0.64528000  1
  C  760  1  0.38701400  0.80403800  0.66275700  1
  C  761  1  0.35184300  0.80248100  0.66868000  1
  C  763  1  0.29328400  0.79966600  0.66904600  1
  C  764  1  0.30522300  0.79970100  0.68596500  1
  C  765  1  0.34129300  0.80152700  0.68573900  1
  C  766  1  0.25748000  0.79873600  0.66355700  1
  C  767  1  0.24525700  0.80039700  0.64621400  1
  C  769  1  0.24302900  0.80344400  0.61740800  1
  C  770  1  0.20764200  0.80330100  0.62321400  1
  C  771  1  0.20919600  0.80105100  0.64082100  1
  C  772  1  0.25283200  0.80494000  0.59993700  1
  C  773  1  0.28895900  0.80462700  0.59402200  1
  C  775  1  0.34964500  0.80322700  0.59363700  1
  C  776  1  0.33723600  0.80410000  0.57672200  1
  C  777  1  0.29982400  0.80493600  0.57695900  1
  C  778  1  0.38630200  0.80250100  0.59909600  1
  C  779  1  0.41341500  0.80199000  0.58615500  1
  C  780  1  0.44143500  0.76461200  0.57790300  1
  C  781  1  0.46732100  0.76440400  0.56477000  1
  C  782  1  0.46621500  0.80139600  0.55971200  1
  C  783  1  0.43817300  0.83867900  0.56813200  1
  C  784  1  0.41194400  0.83906200  0.58113100  1
  C  785  1  0.49171500  0.80157000  0.54618200  1
  C  786  1  0.51447100  0.82237400  0.54800200  1
  C  787  1  0.53714100  0.82529800  0.53424300  1
  C  788  1  0.53759800  0.80779100  0.51811400  1
  C  789  1  0.51583900  0.78588400  0.51647700  1
  C  790  1  0.49340000  0.78269800  0.53028800  1
  C  791  1  0.22464700  0.80620200  0.58735900  1
  C  792  1  0.22509300  0.76952515  0.58249800  1
  C  793  1  0.19607400  0.77099110  0.57063900  1
  C  794  1  0.16626900  0.80899210  0.56321800  1
  C  795  1  0.16672400  0.84546400  0.56781000  1
  C  796  1  0.19540200  0.84416000  0.57984100  1
  C  797  1  0.13548200  0.81062510  0.55198800  1
  C  798  1  0.11179900  0.79219110  0.55679500  1
  C  799  1  0.08181200  0.79282300  0.54573900  1
  C  800  1  0.07488800  0.81161400  0.52947600  1
  C  801  1  0.09817700  0.83046510  0.52465500  1
  C  802  1  0.12779300  0.83035110  0.53586800  1
  C  803  1  0.23116700  0.79743300  0.67643100  1
  C  804  1  0.19597000  0.83432900  0.68187700  1
  C  805  1  0.16932200  0.83310000  0.69426800  1
  C  806  1  0.17719800  0.79509310  0.70160000  1
  C  807  1  0.21292200  0.75830710  0.69626500  1
  C  808  1  0.23945800  0.75938815  0.68373000  1
  C  809  1  0.15039600  0.79463710  0.71447400  1
  C  810  1  0.16624200  0.77503210  0.73038200  1
  C  811  1  0.13943700  0.78065710  0.74408500  1
  C  812  1  0.09595200  0.80553310  0.74226300  1
  C  813  1  0.08017700  0.82271710  0.72594900  1
  C  814  1  0.10693500  0.81736910  0.71231400  1
  C  815  1  0.41358200  0.80602200  0.67531000  1
  C  816  1  0.40422100  0.84442400  0.68256300  1
  C  817  1  0.45031000  0.76990200  0.68022300  1
  C  818  1  0.47759200  0.77234200  0.69194400  1
  C  819  1  0.46864600  0.81078000  0.69915200  1
  C  820  1  0.43132100  0.84669400  0.69444900  1
  C  821  1  0.49689700  0.81326500  0.71064500  1
  C  822  1  0.48351300  0.83322300  0.72667300  1
  C  823  1  0.51205400  0.83332400  0.73842300  1
  C  824  1  0.55450200  0.81435700  0.73419700  1
  C  825  1  0.56785700  0.79543900  0.71803200  1
  C  826  1  0.53939300  0.79481500  0.70643600  1
  C  869  1  0.55590800  0.81415100  0.50380000  1
  C  870  1  0.04853300  0.80749400  0.51829700  1
  C  871  1  0.07093700  0.81879100  0.75675100  1
  C  872  1  0.58367300  0.80882300  0.74625100  1
  C  877  1  0.85641900  0.00577800  0.82427700  1
  C  878  1  0.85411900  0.01555800  0.80671800  1
  C  879  1  0.87880900  0.98528600  0.79443400  1
  C  880  1  0.90616360  0.94400340  0.80005100  1
  C  881  1  0.90717560  0.93392940  0.81752000  1
  C  882  1  0.88272800  0.96457300  0.82949000  1
  C  885  1  0.93871660  0.91491640  0.78953900  1
  C  886  1  0.97172860  0.92183140  0.78557200  1
  C  887  1  0.00380500  0.89461300  0.77472400  1
  C  888  1  0.00388600  0.85961800  0.76776600  1
  C  889  1  0.97091160  0.85265340  0.77167100  1
  C  890  1  0.93892760  0.87965740  0.78277500  1
  C  901  1  0.00129700  0.57944600  0.15762200  1
  C  902  1  0.01108400  0.57194900  0.14006400  1
  C  903  1  0.98082360  0.57750440  0.12778000  1
  C  904  1  0.93953760  0.59142840  0.13339700  1
  C  905  1  0.92945560  0.60049840  0.15086300  1
  C  906  1  0.96009360  0.59432740  0.16283400  1
  C  909  1  0.91045660  0.58795740  0.12288400  1
  C  910  1  0.91736360  0.54802740  0.11892800  1
  C  911  1  0.89016000  0.54316000  0.10807600  1
  C  912  1  0.85518600  0.57806800  0.10110300  1
  C  913  1  0.84823000  0.61800800  0.10499600  1
  C  914  1  0.87522000  0.62299800  0.11610300  1
  C  925  1  0.57498400  0.86086200  0.49095400  1
  C  926  1  0.56747100  0.85858400  0.47339700  1
  C  927  1  0.57301800  0.88329900  0.46111300  1
  C  928  1  0.58694400  0.91065600  0.46672900  1
  C  929  1  0.59602900  0.91165400  0.48419400  1
  C  930  1  0.58986900  0.88718100  0.49616500  1
  C  933  1  0.58347300  0.94321200  0.45621700  1
  C  934  1  0.54354500  0.97623700  0.45226200  1
  C  935  1  0.53868000  0.00831000  0.44141300  1
  C  936  1  0.57359000  0.00837500  0.43443800  1
  C  937  1  0.61352900  0.97538900  0.43833100  1
  C  938  1  0.61851700  0.94340500  0.44943900  1
  C  949  1  0.77108400  0.61815500  0.82542300  1
  C  950  1  0.77005700  0.60687600  0.80832900  1
  C  951  1  0.74547600  0.63666800  0.79588400  1
  C  952  1  0.72083300  0.67885700  0.80100200  1
  C  953  1  0.72340600  0.69043000  0.81795100  1
  C  954  1  0.74825900  0.66038200  0.83004200  1
  C  957  1  0.68716600  0.70780300  0.79090800  1
  C  958  1  0.65349400  0.70118900  0.78803800  1
  C  959  1  0.62079400  0.72768500  0.77727000  1
  C  960  1  0.62091200  0.76140800  0.76919800  1
  C  961  1  0.65368800  0.76917200  0.77262300  1
  C  962  1  0.68640200  0.74277000  0.78354600  1
  C  973  1  0.61378600  0.05238000  0.15869100  1
  C  974  1  0.60238500  0.06473500  0.14161000  1
  C  975  1  0.63210000  0.05950400  0.12912200  1
  C  976  1  0.67433700  0.04188800  0.13418000  1
  C  977  1  0.68602500  0.02766200  0.15111500  1
  C  978  1  0.65605500  0.03287900  0.16324800  1
  C  981  1  0.70323700  0.04663300  0.12406100  1
  C  982  1  0.69655000  0.08693300  0.12115000  1
  C  983  1  0.72317000  0.09312700  0.11045700  1
  C  984  1  0.75709200  0.05926300  0.10249200  1
  C  985  1  0.76490800  0.01871800  0.10594900  1
  C  986  1  0.73838500  0.01241700  0.11680300  1
  C  997  1  0.04776300  0.77551800  0.49207100  1
  C  998  1  0.06014900  0.77451100  0.47499100  1
  C  999  1  0.05488700  0.75003400  0.46251000  1
  C  1000  1  0.03719700  0.72548400  0.46757700  1
  C  1001  1  0.02292500  0.72808700  0.48450600  1
  C  1002  1  0.02818000  0.75283000  0.49663400  1
  C  1005  1  0.04196100  0.69180500  0.45747700  1
  C  1006  1  0.08225900  0.65813100  0.45463400  1
  C  1007  1  0.08850600  0.62538400  0.44388600  1
  C  1008  1  0.05469400  0.62545500  0.43581000  1
  C  1009  1  0.01413800  0.65823400  0.43921100  1
  C  1010  1  0.00778300  0.69099400  0.45011400  1
  N  4  1  0.12036500  0.58287600  0.00265600  1
  N  8  1  0.11863800  0.64001400  0.03087200  1
  N  14  1  0.11908600  0.69736500  0.00336700  1
  N  20  1  0.12093400  0.64018500  0.97517400  1
  N  126  1  0.57839200  0.70389700  0.33597600  1
  N  130  1  0.63553700  0.64848400  0.36419400  1
  N  136  1  0.69287900  0.59068900  0.33668900  1
  N  142  1  0.63568800  0.64601700  0.30849500  1
  N  248  1  0.69945200  0.12487700  0.66931900  1
  N  252  1  0.64403000  0.12316300  0.69754000  1
  N  258  1  0.58621300  0.12366100  0.67003700  1
  N  264  1  0.64156500  0.12547900  0.64184100  1
  N  386  1  0.19813900  0.31889500  0.81613800  1
  N  389  1  0.35300900  0.15987700  0.79402700  1
  N  390  1  0.16232200  0.35617000  0.87479400  1
  N  410  1  0.31443800  0.89010500  0.14948700  1
  N  413  1  0.15547900  0.89421000  0.12735700  1
  N  414  1  0.35167900  0.88876400  0.20814200  1
  N  434  1  0.88560500  0.20264300  0.48282100  1
  N  437  1  0.88973800  0.35749200  0.46069400  1
  N  438  1  0.88432300  0.16669600  0.54147500  1
  N  458  1  0.06715700  0.94560100  0.81796500  1
  N  461  1  0.91377600  0.10253500  0.79581400  1
  N  462  1  0.10792000  0.91019500  0.87541900  1
  N  482  1  0.94092100  0.39449500  0.15121700  1
  N  485  1  0.09850300  0.39077900  0.12922200  1
  N  486  1  0.90592200  0.38915200  0.20873200  1
  N  506  1  0.38993800  0.07169200  0.48461000  1
  N  509  1  0.38629400  0.91828400  0.46244000  1
  N  510  1  0.38463600  0.11205900  0.54211100  1
  N  514  1  0.79851500  0.26102500  0.96431430  1
  N  518  1  0.79678800  0.31816300  0.99253025  1
  N  524  1  0.79723600  0.37551400  0.96502530  1
  N  530  1  0.79908400  0.31833400  0.93683230  1
  N  636  1  0.25654200  0.38204600  0.29763400  1
  N  640  1  0.31368700  0.32663300  0.32585200  1
  N  646  1  0.37102900  0.26883800  0.29834700  1
  N  652  1  0.31383800  0.32416600  0.27015300  1
  N  758  1  0.37760200  0.80302600  0.63097700  1
  N  762  1  0.32218000  0.80131200  0.65919800  1
  N  768  1  0.26436300  0.80181000  0.63169500  1
  N  774  1  0.31971500  0.80362800  0.60349900  1
  N  896  1  0.87628900  0.99704400  0.77779600  1
  N  899  1  0.03115900  0.83802600  0.75568500  1
  N  900  1  0.84047200  0.03431900  0.83645200  1
  N  920  1  0.99258757  0.56825443  0.11114500  1
  N  923  1  0.83362900  0.57235900  0.08901500  1
  N  924  1  0.02982900  0.56691300  0.16980000  1
  N  944  1  0.56375500  0.88079200  0.44447900  1
  N  947  1  0.56788800  0.03564100  0.42235200  1
  N  948  1  0.56247300  0.84484500  0.50313300  1
  N  968  1  0.74530700  0.62375000  0.77962300  1
  N  971  1  0.59192600  0.78068400  0.75747200  1
  N  972  1  0.78607000  0.58834400  0.83707700  1
  N  992  1  0.61907100  0.07264400  0.11287500  1
  N  995  1  0.77665300  0.06892800  0.09088000  1
  N  996  1  0.58407200  0.06730100  0.17039000  1
  N  1016  1  0.06808800  0.74984100  0.44626800  1
  N  1019  1  0.06444400  0.59643300  0.42409800  1
  N  1020  1  0.06278600  0.79020800  0.50376900  1
