# generated using pymatgen
data_H31(C23N2)2
_symmetry_space_group_name_H-M   'P 1'
_cell_length_a   34.22770000
_cell_length_b   34.22760000
_cell_length_c   68.45480000
_cell_angle_alpha   90.04690000
_cell_angle_beta   89.95310000
_cell_angle_gamma   90.00000000
_symmetry_Int_Tables_number   1
_chemical_formula_structural   H31(C23N2)2
_chemical_formula_sum   'H372 C552 N48'
_cell_volume   80196.93669695
_cell_formula_units_Z   12
loop_
 _symmetry_equiv_pos_site_id
 _symmetry_equiv_pos_as_xyz
  1  'x, y, z'
loop_
 _atom_site_type_symbol
 _atom_site_label
 _atom_site_symmetry_multiplicity
 _atom_site_fract_x
 _atom_site_fract_y
 _atom_site_fract_z
 _atom_site_occupancy
  H  73  1  0.64508500  0.95417600  0.01696200  1
  H  74  1  0.71443800  0.95491000  0.01743100  1
  H  75  1  0.64566900  0.03002400  0.96829500  1
  H  76  1  0.71511700  0.03127000  0.96902100  1
  H  77  1  0.77064200  0.05497900  0.99066600  1
  H  78  1  0.84058100  0.05528000  0.99094300  1
  H  79  1  0.77127100  0.93204300  0.99654600  1
  H  80  1  0.84114700  0.93256600  0.99704800  1
  H  81  1  0.86108600  0.99419100  0.03328000  1
  H  82  1  0.91346500  0.99338700  0.05942300  1
  H  83  1  0.96747000  0.99289000  0.00618600  1
  H  84  1  0.01568600  0.99371100  0.98207100  1
  H  85  1  0.85986900  0.99584800  0.95465400  1
  H  86  1  0.91223800  0.99643000  0.92837900  1
  H  87  1  0.00816400  0.05381000  0.91891400  1
  H  88  1  0.00839100  0.05438900  0.88392800  1
  H  89  1  0.97435100  0.93517200  0.91837100  1
  H  90  1  0.97400600  0.93580900  0.88337600  1
  H  91  1  0.06978500  0.99334600  0.92886500  1
  H  92  1  0.12201000  0.99375500  0.95493200  1
  H  93  1  0.07067300  0.99046700  0.05992500  1
  H  94  1  0.12323200  0.99052100  0.03369000  1
  H  95  1  0.14287500  0.93373700  0.98617800  1
  H  96  1  0.21284500  0.93427800  0.98565200  1
  H  97  1  0.14230000  0.05300400  0.00195400  1
  H  98  1  0.21222100  0.05359900  0.00157600  1
  H  99  1  0.26854700  0.02083900  0.02117800  1
  H  100  1  0.33791800  0.02128600  0.02097800  1
  H  101  1  0.33763800  0.96958500  0.96488800  1
  H  102  1  0.26817500  0.96798000  0.96544700  1
  H  103  1  0.99193700  0.05356200  0.06987500  1
  H  104  1  0.99231100  0.05272200  0.10482000  1
  H  105  1  0.03527300  0.94610400  0.13201100  1
  H  106  1  0.03564600  0.94491900  0.16678000  1
  H  107  1  0.95037900  0.03409800  0.16784700  1
  H  108  1  0.94905300  0.03439500  0.13306700  1
  H  109  1  0.99122400  0.92922100  0.10394200  1
  H  110  1  0.99160000  0.93024900  0.06900300  1
  H  111  1  0.93397900  0.97262800  0.85573200  1
  H  112  1  0.93344400  0.97455200  0.82102000  1
  H  113  1  0.04839200  0.01858900  0.85598400  1
  H  114  1  0.04871800  0.01891500  0.82130200  1
  H  187  1  0.95442400  0.34330900  0.51689800  1
  H  188  1  0.95518700  0.27395600  0.51732800  1
  H  189  1  0.03041100  0.34286700  0.46822200  1
  H  190  1  0.03167800  0.27342100  0.46890800  1
  H  191  1  0.05535100  0.21784400  0.49046900  1
  H  192  1  0.05569000  0.14790700  0.49071800  1
  H  193  1  0.93242000  0.21714100  0.49646900  1
  H  194  1  0.93298300  0.14726200  0.49694800  1
  H  195  1  0.99461400  0.12755400  0.53311500  1
  H  196  1  0.99373600  0.07531700  0.55932800  1
  H  197  1  0.99331200  0.02102800  0.50616300  1
  H  198  1  0.99435800  0.97268600  0.48211900  1
  H  199  1  0.99604900  0.12834500  0.45447300  1
  H  200  1  0.99658300  0.07580100  0.42826800  1
  H  201  1  0.05363700  0.97981000  0.41847600  1
  H  202  1  0.05298500  0.97861700  0.38347700  1
  H  203  1  0.93488200  0.01322200  0.41884400  1
  H  204  1  0.93427400  0.01257500  0.38386700  1
  H  205  1  0.99362800  0.91826600  0.42899400  1
  H  206  1  0.99408200  0.86620500  0.45512900  1
  H  207  1  0.99082100  0.91811100  0.56004500  1
  H  208  1  0.99094900  0.86541100  0.53388200  1
  H  209  1  0.93411800  0.84563300  0.48643600  1
  H  210  1  0.93460700  0.77566100  0.48587800  1
  H  211  1  0.05341300  0.84609200  0.50207500  1
  H  212  1  0.05395100  0.77616800  0.50167100  1
  H  213  1  0.02109200  0.71983600  0.52130000  1
  H  214  1  0.02150700  0.65046500  0.52105400  1
  H  215  1  0.96995400  0.65091400  0.46497100  1
  H  216  1  0.96837300  0.72038000  0.46557800  1
  H  217  1  0.05375200  0.99712600  0.56993900  1
  H  218  1  0.05267800  0.99671300  0.60488600  1
  H  219  1  0.94612500  0.95309000  0.63193200  1
  H  220  1  0.94467700  0.95259100  0.66666667  1
  H  221  1  0.03333300  0.03839100  0.66793800  1
  H  222  1  0.03390100  0.03982700  0.63315600  1
  H  223  1  0.92917800  0.99721100  0.60389900  1
  H  224  1  0.93044200  0.99689100  0.56896200  1
  H  225  1  0.96967500  0.05198200  0.35574100  1
  H  226  1  0.96920400  0.05150500  0.32106200  1
  H  227  1  0.01643600  0.93788900  0.35600400  1
  H  228  1  0.01439500  0.93655600  0.32129800  1
  H  235  1  0.93880200  0.02607300  0.29294900  1
  H  242  1  0.05524000  0.98919100  0.19455600  1
  H  243  1  0.93252700  0.98969700  0.19655700  1
  H  244  1  0.04228700  0.95991800  0.29157300  1
  H  246  1  0.07466000  0.96434600  0.24073500  1
  H  247  1  0.07134400  0.01619700  0.24262200  1
  H  248  1  0.09389700  0.99432900  0.22223400  1
  H  250  1  0.94197100  0.05676400  0.24461800  1
  H  251  1  0.91129100  0.05307000  0.26517700  1
  H  252  1  0.90940300  0.01642900  0.24717100  1
  H  259  1  0.02421700  0.04935000  0.79303000  1
  H  266  1  0.98888600  0.93319700  0.69453400  1
  H  267  1  0.98848200  0.05591500  0.69657800  1
  H  268  1  0.95720500  0.94642300  0.79143700  1
  H  270  1  0.96365600  0.91354000  0.74065900  1
  H  271  1  0.01544400  0.91731200  0.74269400  1
  H  272  1  0.99407700  0.89455800  0.72224300  1
  H  274  1  0.05578200  0.04572100  0.74478900  1
  H  275  1  0.05208800  0.07647300  0.76532800  1
  H  276  1  0.01575800  0.07871000  0.74719900  1
  H  283  1  0.58941700  0.93126100  0.99869800  1
  H  290  1  0.39414400  0.05082900  0.00679700  1
  H  291  1  0.39658500  0.94188600  0.97832900  1
  H  292  1  0.58674100  0.05123100  0.98549800  1
  H  294  1  0.49081200  0.04954600  0.02248400  1
  H  295  1  0.45025400  0.08046600  0.01904300  1
  H  296  1  0.48665500  0.07827100  0.00089500  1
  H  298  1  0.49269300  0.92375300  0.01385500  1
  H  299  1  0.53329800  0.89591100  0.00631300  1
  H  300  1  0.49687800  0.90774200  0.98917200  1
  H  307  1  0.93155100  0.39903500  0.49867800  1
  H  314  1  0.05109100  0.59430000  0.50682800  1
  H  315  1  0.94221400  0.59191900  0.47838000  1
  H  316  1  0.05155300  0.40175400  0.48545000  1
  H  318  1  0.04975400  0.49761200  0.52247700  1
  H  319  1  0.08068400  0.53817600  0.51904900  1
  H  320  1  0.07854000  0.50180400  0.50088800  1
  H  322  1  0.92399000  0.49573700  0.51387000  1
  H  323  1  0.89617100  0.45514000  0.50631600  1
  H  324  1  0.90804400  0.49159100  0.48918800  1
  H  397  1  0.44057200  0.72044600  0.97313750  1
  H  398  1  0.50992500  0.72118000  0.97360650  1
  H  399  1  0.44115600  0.79629400  0.92447050  1
  H  400  1  0.51060400  0.79754000  0.92519650  1
  H  401  1  0.56612900  0.82124900  0.94684150  1
  H  402  1  0.63606800  0.82155000  0.94711850  1
  H  403  1  0.56675800  0.69831300  0.95272150  1
  H  404  1  0.63663400  0.69883600  0.95322350  1
  H  405  1  0.65657300  0.76046100  0.98945550  1
  H  406  1  0.70895200  0.75965700  0.01559800  1
  H  407  1  0.76295700  0.75916000  0.96236150  1
  H  408  1  0.81117300  0.75998100  0.93824650  1
  H  409  1  0.65535600  0.76211800  0.91082950  1
  H  410  1  0.70772500  0.76270000  0.88455400  1
  H  411  1  0.80365100  0.82008000  0.87508900  1
  H  412  1  0.80387800  0.82065900  0.84010300  1
  H  413  1  0.76983800  0.70144200  0.87454600  1
  H  414  1  0.76949300  0.70207900  0.83955100  1
  H  415  1  0.86527200  0.75961600  0.88504000  1
  H  416  1  0.91749730  0.76002500  0.91110750  1
  H  417  1  0.86616000  0.75673700  0.01610000  1
  H  418  1  0.91871930  0.75679100  0.98986550  1
  H  419  1  0.93836230  0.70000700  0.94235350  1
  H  420  1  0.00833200  0.70054800  0.94182750  1
  H  421  1  0.93778730  0.81927400  0.95812950  1
  H  422  1  0.00770800  0.81986900  0.95775150  1
  H  423  1  0.06403400  0.78710900  0.97735350  1
  H  424  1  0.13340500  0.78755600  0.97715350  1
  H  425  1  0.13312500  0.73585500  0.92106350  1
  H  426  1  0.06366200  0.73425000  0.92162250  1
  H  427  1  0.78742400  0.81983200  0.02605000  1
  H  428  1  0.78779800  0.81899200  0.06099500  1
  H  429  1  0.83076000  0.71237400  0.08818600  1
  H  430  1  0.83113300  0.71118900  0.12295500  1
  H  431  1  0.74586600  0.80036800  0.12402200  1
  H  432  1  0.74454000  0.80066500  0.08924200  1
  H  433  1  0.78671100  0.69549100  0.06011700  1
  H  434  1  0.78708700  0.69651900  0.02517800  1
  H  435  1  0.72946600  0.73889800  0.81190700  1
  H  436  1  0.72893100  0.74082200  0.77719500  1
  H  437  1  0.84387900  0.78485900  0.81215900  1
  H  438  1  0.84420500  0.78518500  0.77747700  1
  H  511  1  0.74991100  0.10957900  0.47307300  1
  H  512  1  0.75067400  0.04022600  0.47350300  1
  H  513  1  0.82589800  0.10913700  0.42439700  1
  H  514  1  0.82716500  0.03969100  0.42508300  1
  H  515  1  0.85083800  0.98411450  0.44664400  1
  H  516  1  0.85117700  0.91417750  0.44689300  1
  H  517  1  0.72790700  0.98341150  0.45264400  1
  H  518  1  0.72847000  0.91353250  0.45312300  1
  H  519  1  0.79010100  0.89382400  0.48929000  1
  H  520  1  0.78922300  0.84158700  0.51550300  1
  H  521  1  0.78879900  0.78729800  0.46233800  1
  H  522  1  0.78984500  0.73895600  0.43829400  1
  H  523  1  0.79153600  0.89461500  0.41064800  1
  H  524  1  0.79207000  0.84207100  0.38444300  1
  H  525  1  0.84912400  0.74608000  0.37465100  1
  H  526  1  0.84847200  0.74488700  0.33965200  1
  H  527  1  0.73036900  0.77949200  0.37501900  1
  H  528  1  0.72976100  0.77884500  0.34004200  1
  H  529  1  0.78911500  0.68453600  0.38516900  1
  H  530  1  0.78956900  0.63247500  0.41130400  1
  H  531  1  0.78630800  0.68438100  0.51622000  1
  H  532  1  0.78643600  0.63168100  0.49005700  1
  H  533  1  0.72960500  0.61190300  0.44261100  1
  H  534  1  0.73009400  0.54193100  0.44205300  1
  H  535  1  0.84890000  0.61236200  0.45825000  1
  H  536  1  0.84943800  0.54243800  0.45784600  1
  H  537  1  0.81657900  0.48610600  0.47747500  1
  H  538  1  0.81699400  0.41673500  0.47722900  1
  H  539  1  0.76544100  0.41718400  0.42114600  1
  H  540  1  0.76386000  0.48665000  0.42175300  1
  H  541  1  0.84923900  0.76339600  0.52611400  1
  H  542  1  0.84816500  0.76298300  0.56106100  1
  H  543  1  0.74161200  0.71936000  0.58810700  1
  H  544  1  0.74016400  0.71886100  0.62287500  1
  H  545  1  0.82882000  0.80466100  0.62411300  1
  H  546  1  0.82938800  0.80609700  0.58933100  1
  H  547  1  0.72466500  0.76348100  0.56007400  1
  H  548  1  0.72592900  0.76316100  0.52513700  1
  H  549  1  0.76516200  0.81825200  0.31191600  1
  H  550  1  0.76469100  0.81777500  0.27723700  1
  H  551  1  0.81192300  0.70415900  0.31217900  1
  H  552  1  0.80988200  0.70282600  0.27747300  1
  H  559  1  0.73428900  0.79234300  0.24912400  1
  H  566  1  0.85072700  0.75546100  0.15073100  1
  H  567  1  0.72801400  0.75596700  0.15273200  1
  H  568  1  0.83777400  0.72618800  0.24774800  1
  H  570  1  0.87014700  0.73061600  0.19691000  1
  H  571  1  0.86683100  0.78246700  0.19879700  1
  H  572  1  0.88938400  0.76059900  0.17840900  1
  H  574  1  0.73745800  0.82303400  0.20079300  1
  H  575  1  0.70677800  0.81934000  0.22135200  1
  H  576  1  0.70489000  0.78269900  0.20334600  1
  H  583  1  0.81970400  0.81562000  0.74920500  1
  H  590  1  0.78437300  0.69946700  0.65070900  1
  H  591  1  0.78396900  0.82218500  0.65275300  1
  H  592  1  0.75269200  0.71269300  0.74761200  1
  H  594  1  0.75914300  0.67981000  0.69683400  1
  H  595  1  0.81093100  0.68358200  0.69886900  1
  H  596  1  0.78956400  0.66082800  0.67841800  1
  H  598  1  0.85126900  0.81199100  0.70096400  1
  H  599  1  0.84757500  0.84274300  0.72150300  1
  H  600  1  0.81124500  0.84498000  0.70337400  1
  H  607  1  0.38490400  0.69753100  0.95487350  1
  H  614  1  0.18963100  0.81709900  0.96297250  1
  H  615  1  0.19207200  0.70815600  0.93450450  1
  H  616  1  0.38222800  0.81750100  0.94167350  1
  H  618  1  0.28629900  0.81581600  0.97865950  1
  H  619  1  0.24574100  0.84673600  0.97521850  1
  H  620  1  0.28214200  0.84454100  0.95707050  1
  H  622  1  0.28818000  0.69002300  0.97003050  1
  H  623  1  0.32878500  0.66218100  0.96248850  1
  H  624  1  0.29236500  0.67401200  0.94534750  1
  H  631  1  0.72703800  0.16530500  0.45485300  1
  H  638  1  0.84657800  0.36057000  0.46300300  1
  H  639  1  0.73770100  0.35818900  0.43455500  1
  H  640  1  0.84704000  0.16802400  0.44162500  1
  H  642  1  0.84524100  0.26388200  0.47865200  1
  H  643  1  0.87617100  0.30444600  0.47522400  1
  H  644  1  0.87402700  0.26807400  0.45706300  1
  H  646  1  0.71947700  0.26200700  0.47004500  1
  H  647  1  0.69165800  0.22141000  0.46249100  1
  H  648  1  0.70353100  0.25786100  0.44536300  1
  H  721  1  0.23606000  0.48671700  0.92931290  1
  H  722  1  0.30541300  0.48745100  0.92978190  1
  H  723  1  0.23664400  0.56256500  0.88064600  1
  H  724  1  0.30609200  0.56381100  0.88137200  1
  H  725  1  0.36161700  0.58752000  0.90301690  1
  H  726  1  0.43155600  0.58782100  0.90329390  1
  H  727  1  0.36224600  0.46458400  0.90889690  1
  H  728  1  0.43212200  0.46510700  0.90939890  1
  H  729  1  0.45206100  0.52673200  0.94563090  1
  H  730  1  0.50444000  0.52592800  0.97177390  1
  H  731  1  0.55844500  0.52543100  0.91853690  1
  H  732  1  0.60666100  0.52625200  0.89442200  1
  H  733  1  0.45084400  0.52838900  0.86700500  1
  H  734  1  0.50321300  0.52897100  0.84073000  1
  H  735  1  0.59913900  0.58635100  0.83126500  1
  H  736  1  0.59936600  0.58693000  0.79627900  1
  H  737  1  0.56532600  0.46771300  0.83072200  1
  H  738  1  0.56498100  0.46835000  0.79572700  1
  H  739  1  0.66076000  0.52588700  0.84121600  1
  H  740  1  0.71298500  0.52629600  0.86728300  1
  H  741  1  0.66164800  0.52300800  0.97227590  1
  H  742  1  0.71420700  0.52306200  0.94604090  1
  H  743  1  0.73385000  0.46627800  0.89852900  1
  H  744  1  0.80382000  0.46681900  0.89800300  1
  H  745  1  0.73327500  0.58554500  0.91430490  1
  H  746  1  0.80319600  0.58614000  0.91392690  1
  H  747  1  0.85952200  0.55338000  0.93352890  1
  H  748  1  0.92889260  0.55382700  0.93332890  1
  H  749  1  0.92861260  0.50212600  0.87723900  1
  H  750  1  0.85915000  0.50052100  0.87779800  1
  H  751  1  0.58291200  0.58610300  0.98222590  1
  H  752  1  0.58328600  0.58526300  0.01717100  1
  H  753  1  0.62624800  0.47864500  0.04436200  1
  H  754  1  0.62662100  0.47746000  0.07913100  1
  H  755  1  0.54135400  0.56663900  0.08019800  1
  H  756  1  0.54002800  0.56693600  0.04541800  1
  H  757  1  0.58219900  0.46176200  0.01629300  1
  H  758  1  0.58257500  0.46279000  0.98135390  1
  H  759  1  0.52495400  0.50516900  0.76808300  1
  H  760  1  0.52441900  0.50709300  0.73337100  1
  H  761  1  0.63936700  0.55113000  0.76833500  1
  H  762  1  0.63969300  0.55145600  0.73365300  1
  H  835  1  0.54539900  0.87585000  0.42924900  1
  H  836  1  0.54616200  0.80649700  0.42967900  1
  H  837  1  0.62138600  0.87540800  0.38057300  1
  H  838  1  0.62265300  0.80596200  0.38125900  1
  H  839  1  0.64632600  0.75038500  0.40282000  1
  H  840  1  0.64666500  0.68044800  0.40306900  1
  H  841  1  0.52339500  0.74968200  0.40882000  1
  H  842  1  0.52395800  0.67980300  0.40929900  1
  H  843  1  0.58558900  0.66009500  0.44546600  1
  H  844  1  0.58471100  0.60785800  0.47167900  1
  H  845  1  0.58428700  0.55356900  0.41851400  1
  H  846  1  0.58533300  0.50522700  0.39447000  1
  H  847  1  0.58702400  0.66088600  0.36682400  1
  H  848  1  0.58755800  0.60834200  0.34061900  1
  H  849  1  0.64461200  0.51235100  0.33082700  1
  H  850  1  0.64396000  0.51115800  0.29582800  1
  H  851  1  0.52585700  0.54576300  0.33119500  1
  H  852  1  0.52524900  0.54511600  0.29621800  1
  H  853  1  0.58460300  0.45080700  0.34134500  1
  H  854  1  0.58505700  0.39874600  0.36748000  1
  H  855  1  0.58179600  0.45065200  0.47239600  1
  H  856  1  0.58192400  0.39795200  0.44623300  1
  H  857  1  0.52509300  0.37817400  0.39878700  1
  H  858  1  0.52558200  0.30820200  0.39822900  1
  H  859  1  0.64438800  0.37863300  0.41442600  1
  H  860  1  0.64492600  0.30870900  0.41402200  1
  H  861  1  0.61206700  0.25237700  0.43365100  1
  H  862  1  0.61248200  0.18300600  0.43340500  1
  H  863  1  0.56092900  0.18345500  0.37732200  1
  H  864  1  0.55934800  0.25292100  0.37792900  1
  H  865  1  0.64472700  0.52966700  0.48229000  1
  H  866  1  0.64365300  0.52925400  0.51723700  1
  H  867  1  0.53710000  0.48563100  0.54428300  1
  H  868  1  0.53565200  0.48513200  0.57905100  1
  H  869  1  0.62430800  0.57093200  0.58028900  1
  H  870  1  0.62487600  0.57236800  0.54550700  1
  H  871  1  0.52015300  0.52975200  0.51625000  1
  H  872  1  0.52141700  0.52943200  0.48131300  1
  H  873  1  0.56065000  0.58452300  0.26809200  1
  H  874  1  0.56017900  0.58404600  0.23341300  1
  H  875  1  0.60741100  0.47043000  0.26835500  1
  H  876  1  0.60537000  0.46909700  0.23364900  1
  H  883  1  0.52977700  0.55861400  0.20530000  1
  H  890  1  0.64621500  0.52173200  0.10690700  1
  H  891  1  0.52350200  0.52223800  0.10890800  1
  H  892  1  0.63326200  0.49245900  0.20392400  1
  H  894  1  0.66563500  0.49688700  0.15308600  1
  H  895  1  0.66231900  0.54873800  0.15497300  1
  H  896  1  0.68487200  0.52687000  0.13458500  1
  H  898  1  0.53294600  0.58930500  0.15696900  1
  H  899  1  0.50226600  0.58561100  0.17752800  1
  H  900  1  0.50037800  0.54897000  0.15952200  1
  H  907  1  0.61519200  0.58189100  0.70538100  1
  H  914  1  0.57986100  0.46573800  0.60688500  1
  H  915  1  0.57945700  0.58845600  0.60892900  1
  H  916  1  0.54818000  0.47896400  0.70378800  1
  H  918  1  0.55463100  0.44608100  0.65301000  1
  H  919  1  0.60641900  0.44985300  0.65504500  1
  H  920  1  0.58505200  0.42709900  0.63459400  1
  H  922  1  0.64675700  0.57826200  0.65714000  1
  H  923  1  0.64306300  0.60901400  0.67767900  1
  H  924  1  0.60673300  0.61125100  0.65955000  1
  H  931  1  0.18039200  0.46380200  0.91104890  1
  H  938  1  0.98511860  0.58337000  0.91914790  1
  H  939  1  0.98755960  0.47442700  0.89068000  1
  H  940  1  0.17771600  0.58377200  0.89784900  1
  H  942  1  0.08178700  0.58208700  0.93483490  1
  H  943  1  0.04122900  0.61300700  0.93139390  1
  H  944  1  0.07763000  0.61081200  0.91324590  1
  H  946  1  0.08366800  0.45629400  0.92620590  1
  H  947  1  0.12427300  0.42845200  0.91866390  1
  H  948  1  0.08785300  0.44028300  0.90152290  1
  H  955  1  0.52252600  0.93157600  0.41102900  1
  H  962  1  0.64206600  0.12684100  0.41917900  1
  H  963  1  0.53318900  0.12446000  0.39073100  1
  H  964  1  0.64252800  0.93429500  0.39780100  1
  H  966  1  0.64072900  0.03015300  0.43482800  1
  H  967  1  0.67165900  0.07071700  0.43140000  1
  H  968  1  0.66951500  0.03434500  0.41323900  1
  H  970  1  0.51496500  0.02827800  0.42622100  1
  H  971  1  0.48714600  0.98768100  0.41866700  1
  H  972  1  0.49901900  0.02413200  0.40153900  1
  C  1  1  0.89043100  0.99372400  0.03049500  1
  C  2  1  0.91897600  0.99333900  0.04474300  1
  C  3  1  0.95544400  0.99301700  0.03553500  1
  C  5  1  0.90877700  0.99357600  0.01224500  1
  C  6  1  0.88901600  0.99403500  0.99396500  1
  C  7  1  0.90784900  0.99433000  0.97547200  1
  C  9  1  0.95411600  0.99433000  0.95226900  1
  C  10  1  0.91772800  0.99545200  0.94304400  1
  C  11  1  0.88924100  0.99518300  0.95732400  1
  C  12  1  0.99108400  0.99413700  0.94280500  1
  C  13  1  0.02766900  0.99383400  0.95271100  1
  C  15  1  0.07439100  0.99341800  0.97603200  1
  C  16  1  0.09269000  0.99367800  0.95776900  1
  C  17  1  0.06416000  0.99350700  0.94353000  1
  C  18  1  0.09426600  0.99313500  0.99430500  1
  C  19  1  0.07539500  0.99282300  0.01280300  1
  C  21  1  0.02902400  0.99243900  0.03595900  1
  C  22  1  0.06533900  0.99144800  0.04524200  1
  C  23  1  0.09388900  0.99154100  0.03098200  1
  C  24  1  0.99204200  0.99252500  0.04538100  1
  C  25  1  0.99172700  0.99199200  0.06621700  1
  C  26  1  0.99167900  0.95619900  0.07645600  1
  C  27  1  0.99175700  0.95571600  0.09702800  1
  C  28  1  0.99173900  0.99087600  0.10799000  1
  C  29  1  0.99160600  0.02661200  0.09753500  1
  C  30  1  0.99170700  0.02722700  0.07696000  1
  C  31  1  0.99204200  0.99029700  0.12890600  1
  C  32  1  0.96776300  0.01556100  0.13993400  1
  C  33  1  0.96810400  0.01497300  0.16051100  1
  C  34  1  0.99304700  0.98937700  0.17090800  1
  C  35  1  0.01741500  0.96419800  0.15989900  1
  C  36  1  0.01676500  0.96450300  0.13932500  1
  C  37  1  0.13602800  0.99331100  0.99411700  1
  C  38  1  0.15726100  0.95915400  0.98941500  1
  C  39  1  0.19841000  0.95962000  0.98897900  1
  C  40  1  0.21955200  0.99399500  0.99356500  1
  C  41  1  0.19806800  0.02801000  0.99843600  1
  C  42  1  0.15692300  0.02779400  0.99856300  1
  C  43  1  0.26128200  0.99439200  0.99333100  1
  C  44  1  0.28254200  0.97910100  0.97732600  1
  C  45  1  0.32370500  0.97997800  0.97705400  1
  C  46  1  0.34540700  0.99574400  0.99284000  1
  C  47  1  0.32386400  0.01059400  0.00892300  1
  C  48  1  0.28272500  0.01022000  0.00911600  1
  C  49  1  0.99134800  0.99441100  0.92192300  1
  C  50  1  0.00110000  0.02874200  0.91154800  1
  C  51  1  0.00142900  0.02895700  0.89097600  1
  C  52  1  0.99121200  0.99515000  0.88018900  1
  C  53  1  0.98106200  0.96096600  0.89066100  1
  C  54  1  0.98150600  0.96046000  0.91123300  1
  C  55  1  0.99116500  0.99557200  0.85935200  1
  C  56  1  0.95847500  0.98227100  0.84862300  1
  C  57  1  0.95831100  0.98330400  0.82804700  1
  C  58  1  0.99098400  0.99704900  0.81729400  1
  C  59  1  0.02384100  0.00978200  0.82820900  1
  C  60  1  0.02383100  0.00944100  0.84878000  1
  C  61  1  0.84732400  0.99398000  0.99411500  1
  C  62  1  0.82616300  0.02919000  0.99219300  1
  C  63  1  0.82649700  0.95852600  0.99579500  1
  C  64  1  0.78535500  0.95835400  0.99561400  1
  C  65  1  0.76379600  0.99347600  0.99359000  1
  C  66  1  0.78501100  0.02887100  0.99186800  1
  C  67  1  0.72199600  0.99313200  0.99326400  1
  C  68  1  0.70075000  0.01513900  0.97936200  1
  C  69  1  0.65959100  0.01441700  0.97896200  1
  C  70  1  0.63786100  0.99183500  0.99249500  1
  C  71  1  0.65926300  0.97012600  0.00649600  1
  C  72  1  0.70039600  0.97060700  0.00682600  1
  C  115  1  0.99416100  0.09819600  0.53037000  1
  C  116  1  0.99372800  0.06972800  0.54465500  1
  C  117  1  0.99341100  0.03321300  0.53549800  1
  C  119  1  0.99402600  0.07975400  0.51214200  1
  C  120  1  0.99448900  0.09942200  0.49383400  1
  C  121  1  0.99478200  0.08048800  0.47536400  1
  C  123  1  0.99476100  0.03407900  0.45222700  1
  C  124  1  0.99572300  0.07041100  0.44294400  1
  C  125  1  0.99551000  0.09898500  0.45718600  1
  C  126  1  0.99456300  0.99705500  0.44281900  1
  C  127  1  0.99430700  0.96053100  0.45277700  1
  C  129  1  0.99390900  0.91394800  0.47616200  1
  C  130  1  0.99407900  0.89554000  0.45792700  1
  C  131  1  0.99388700  0.92398400  0.44364900  1
  C  132  1  0.99359600  0.89417300  0.49446000  1
  C  133  1  0.99325300  0.91314100  0.51293200  1
  C  135  1  0.99280900  0.95963500  0.53602200  1
  C  136  1  0.99181100  0.92337000  0.54535500  1
  C  137  1  0.99194900  0.89474200  0.53113400  1
  C  138  1  0.99286700  0.99666800  0.54539300  1
  C  139  1  0.99220400  0.99708200  0.56622900  1
  C  140  1  0.95634200  0.99695000  0.57643700  1
  C  141  1  0.95572100  0.99683100  0.59700800  1
  C  142  1  0.99080700  0.99698400  0.60800100  1
  C  143  1  0.02661400  0.99730000  0.59757700  1
  C  144  1  0.02736900  0.99725400  0.57700100  1
  C  145  1  0.99008600  0.99659100  0.62891400  1
  C  146  1  0.01512700  0.02098200  0.63998800  1
  C  147  1  0.01438100  0.02056800  0.66056600  1
  C  148  1  0.98885000  0.99543600  0.67091000  1
  C  149  1  0.96391600  0.97094200  0.65985400  1
  C  150  1  0.96437000  0.97167000  0.63928300  1
  C  151  1  0.99370300  0.85241400  0.49432100  1
  C  152  1  0.95952000  0.83121900  0.48965300  1
  C  153  1  0.95995100  0.79007200  0.48920300  1
  C  154  1  0.99432300  0.76890300  0.49373300  1
  C  155  1  0.02835700  0.79034800  0.49858900  1
  C  156  1  0.02817800  0.83149200  0.49872300  1
  C  157  1  0.99469700  0.72717900  0.49346700  1
  C  158  1  0.97941800  0.70597200  0.47745500  1
  C  159  1  0.98031200  0.66481200  0.47714700  1
  C  160  1  0.99603300  0.64306300  0.49291500  1
  C  161  1  0.01083300  0.66455100  0.50901400  1
  C  162  1  0.01045300  0.70569100  0.50924100  1
  C  163  1  0.99432600  0.99662100  0.42193800  1
  C  164  1  0.02831900  0.98667700  0.41130000  1
  C  165  1  0.02780000  0.98573500  0.39072900  1
  C  166  1  0.99357000  0.99550900  0.38020700  1
  C  167  1  0.95973200  0.00584300  0.39094700  1
  C  168  1  0.95996600  0.00603200  0.41151600  1
  C  169  1  0.99312600  0.99500200  0.35937000  1
  C  170  1  0.97900900  0.02733300  0.34865000  1
  C  171  1  0.97856100  0.02686100  0.32808200  1
  C  172  1  0.99147800  0.99384700  0.31731500  1
  C  173  1  0.00552000  0.96152800  0.32821200  1
  C  174  1  0.00662000  0.96216400  0.34878600  1
  C  175  1  0.99439300  0.14111900  0.49393400  1
  C  176  1  0.02959200  0.16230600  0.49198900  1
  C  177  1  0.95893100  0.16193000  0.49566000  1
  C  178  1  0.95873600  0.20307200  0.49548900  1
  C  179  1  0.99384500  0.22465900  0.49345100  1
  C  180  1  0.02924800  0.20346000  0.49168900  1
  C  181  1  0.99348300  0.26646400  0.49315400  1
  C  182  1  0.01551900  0.28775400  0.47926000  1
  C  183  1  0.01477700  0.32891300  0.47888400  1
  C  184  1  0.99215300  0.35060800  0.49243400  1
  C  185  1  0.97041700  0.32916300  0.50642600  1
  C  186  1  0.97092500  0.28802700  0.50673600  1
  C  229  1  0.99053200  0.99334100  0.29629600  1
  C  230  1  0.01932800  0.97393300  0.28513100  1
  C  232  1  0.99071900  0.99343400  0.25441600  1
  C  233  1  0.96036700  0.01331500  0.26477400  1
  C  234  1  0.96094300  0.01256900  0.28550500  1
  C  236  1  0.99480400  0.99151800  0.23352100  1
  C  237  1  0.03089400  0.99018300  0.22299300  1
  C  238  1  0.02959600  0.98912000  0.20227200  1
  C  239  1  0.99400300  0.98937900  0.19179900  1
  C  240  1  0.95944100  0.99010200  0.20301100  1
  C  245  1  0.06985800  0.99136400  0.23263600  1
  C  249  1  0.92902800  0.03617200  0.25493400  1
  C  253  1  0.99095800  0.99791100  0.79627100  1
  C  254  1  0.97154700  0.96924000  0.78503900  1
  C  256  1  0.99188100  0.99763000  0.75440400  1
  C  257  1  0.01183200  0.02782100  0.76482000  1
  C  258  1  0.01067000  0.02730300  0.78554400  1
  C  260  1  0.99030200  0.99359600  0.73351300  1
  C  261  1  0.98936600  0.95751300  0.72297900  1
  C  262  1  0.98854200  0.95883100  0.70225700  1
  C  263  1  0.98865900  0.99444400  0.69180100  1
  C  264  1  0.98901200  0.02899700  0.70302600  1
  C  269  1  0.99074600  0.91856900  0.73263400  1
  C  273  1  0.03516800  0.05890000  0.75503500  1
  C  277  1  0.59591300  0.99112000  0.99219100  1
  C  278  1  0.57368300  0.02493200  0.98817400  1
  C  280  1  0.51249700  0.99137700  0.99279500  1
  C  281  1  0.53303100  0.95590700  0.99658500  1
  C  282  1  0.57446300  0.95665800  0.99619100  1
  C  284  1  0.47089000  0.99573600  0.99314100  1
  C  285  1  0.45042000  0.02794200  0.00154500  1
  C  286  1  0.40898700  0.02754100  0.00105700  1
  C  287  1  0.38741200  0.99644800  0.99267100  1
  C  288  1  0.40963800  0.96585600  0.98436900  1
  C  293  1  0.47056000  0.06089300  0.01155700  1
  C  297  1  0.51295400  0.91875400  0.00178200  1
  C  301  1  0.99142400  0.39255600  0.49214900  1
  C  302  1  0.02524500  0.41480400  0.48813600  1
  C  304  1  0.99166600  0.47597500  0.49278800  1
  C  305  1  0.95619200  0.45543100  0.49658000  1
  C  306  1  0.95695100  0.41399900  0.49617100  1
  C  308  1  0.99602300  0.51758300  0.49314800  1
  C  309  1  0.02821200  0.53803600  0.50155500  1
  C  310  1  0.02781500  0.57947000  0.50108500  1
  C  311  1  0.99674600  0.60105800  0.49271300  1
  C  312  1  0.96616800  0.57885200  0.48440800  1
  C  317  1  0.06113400  0.51788200  0.51155600  1
  C  321  1  0.91902400  0.47549600  0.50178900  1
  C  325  1  0.68591800  0.75999400  0.98667050  1
  C  326  1  0.71446300  0.75960900  0.00091800  1
  C  327  1  0.75093100  0.75928700  0.99171046  1
  C  329  1  0.70426400  0.75984600  0.96842050  1
  C  330  1  0.68450300  0.76030500  0.95014050  1
  C  331  1  0.70333600  0.76060000  0.93164750  1
  C  333  1  0.74960300  0.76060000  0.90844450  1
  C  334  1  0.71321500  0.76172200  0.89921900  1
  C  335  1  0.68472800  0.76145300  0.91349950  1
  C  336  1  0.78657100  0.76040700  0.89898000  1
  C  337  1  0.82315600  0.76010400  0.90888650  1
  C  339  1  0.86987800  0.75968800  0.93220750  1
  C  340  1  0.88817700  0.75994800  0.91394450  1
  C  341  1  0.85964700  0.75977700  0.89970500  1
  C  342  1  0.88975300  0.75940500  0.95048050  1
  C  343  1  0.87088200  0.75909300  0.96897850  1
  C  345  1  0.82451100  0.75870900  0.99213446  1
  C  346  1  0.86082600  0.75771800  0.00141700  1
  C  347  1  0.88937600  0.75781100  0.98715750  1
  C  348  1  0.78752900  0.75879500  0.00155600  1
  C  349  1  0.78721400  0.75826200  0.02239200  1
  C  350  1  0.78716600  0.72246900  0.03263100  1
  C  351  1  0.78724400  0.72198600  0.05320300  1
  C  352  1  0.78722600  0.75714600  0.06416500  1
  C  353  1  0.78709300  0.79288200  0.05371000  1
  C  354  1  0.78719400  0.79349700  0.03313500  1
  C  355  1  0.78752900  0.75656700  0.08508100  1
  C  356  1  0.76325000  0.78183100  0.09610900  1
  C  357  1  0.76359100  0.78124300  0.11668600  1
  C  358  1  0.78853400  0.75564700  0.12708300  1
  C  359  1  0.81290200  0.73046800  0.11607400  1
  C  360  1  0.81225200  0.73077300  0.09550000  1
  C  361  1  0.93151530  0.75958100  0.95029250  1
  C  362  1  0.95274830  0.72542400  0.94559050  1
  C  363  1  0.99389728  0.72589000  0.94515450  1
  C  364  1  0.01503900  0.76026500  0.94974050  1
  C  365  1  0.99355528  0.79428000  0.95461150  1
  C  366  1  0.95241030  0.79406400  0.95473850  1
  C  367  1  0.05676900  0.76066200  0.94950650  1
  C  368  1  0.07802900  0.74537100  0.93350150  1
  C  369  1  0.11919200  0.74624800  0.93322950  1
  C  370  1  0.14089400  0.76201400  0.94901550  1
  C  371  1  0.11935100  0.77686400  0.96509850  1
  C  372  1  0.07821200  0.77649000  0.96529150  1
  C  373  1  0.78683500  0.76068100  0.87809800  1
  C  374  1  0.79658700  0.79501200  0.86772300  1
  C  375  1  0.79691600  0.79522700  0.84715100  1
  C  376  1  0.78669900  0.76142000  0.83636400  1
  C  377  1  0.77654900  0.72723600  0.84683600  1
  C  378  1  0.77699300  0.72673000  0.86740800  1
  C  379  1  0.78665200  0.76184200  0.81552700  1
  C  380  1  0.75396200  0.74854100  0.80479800  1
  C  381  1  0.75379800  0.74957400  0.78422200  1
  C  382  1  0.78647100  0.76331900  0.77346900  1
  C  383  1  0.81932800  0.77605200  0.78438400  1
  C  384  1  0.81931800  0.77571100  0.80495500  1
  C  385  1  0.64281100  0.76025000  0.95029050  1
  C  386  1  0.62165000  0.79546000  0.94836850  1
  C  387  1  0.62198400  0.72479600  0.95197050  1
  C  388  1  0.58084200  0.72462400  0.95178950  1
  C  389  1  0.55928300  0.75974600  0.94976550  1
  C  390  1  0.58049800  0.79514100  0.94804350  1
  C  391  1  0.51748300  0.75940200  0.94943950  1
  C  392  1  0.49623700  0.78140900  0.93553750  1
  C  393  1  0.45507800  0.78068700  0.93513750  1
  C  394  1  0.43334800  0.75810500  0.94867050  1
  C  395  1  0.45475000  0.73639600  0.96267150  1
  C  396  1  0.49588300  0.73687700  0.96300150  1
  C  439  1  0.78964800  0.86446600  0.48654500  1
  C  440  1  0.78921500  0.83599800  0.50083000  1
  C  441  1  0.78889800  0.79948300  0.49167300  1
  C  443  1  0.78951300  0.84602400  0.46831700  1
  C  444  1  0.78997600  0.86569200  0.45000900  1
  C  445  1  0.79026900  0.84675800  0.43153900  1
  C  447  1  0.79024800  0.80034900  0.40840200  1
  C  448  1  0.79121000  0.83668100  0.39911900  1
  C  449  1  0.79099700  0.86525500  0.41336100  1
  C  450  1  0.79005000  0.76332500  0.39899400  1
  C  451  1  0.78979400  0.72680100  0.40895200  1
  C  453  1  0.78939600  0.68021800  0.43233700  1
  C  454  1  0.78956600  0.66181000  0.41410200  1
  C  455  1  0.78937400  0.69025400  0.39982400  1
  C  456  1  0.78908300  0.66044300  0.45063500  1
  C  457  1  0.78874000  0.67941100  0.46910700  1
  C  459  1  0.78829600  0.72590500  0.49219700  1
  C  460  1  0.78729800  0.68964000  0.50153000  1
  C  461  1  0.78743600  0.66101200  0.48730900  1
  C  462  1  0.78835400  0.76293800  0.50156800  1
  C  463  1  0.78769100  0.76335200  0.52240400  1
  C  464  1  0.75182900  0.76322000  0.53261200  1
  C  465  1  0.75120800  0.76310100  0.55318300  1
  C  466  1  0.78629400  0.76325400  0.56417600  1
  C  467  1  0.82210100  0.76357000  0.55375200  1
  C  468  1  0.82285600  0.76352400  0.53317600  1
  C  469  1  0.78557300  0.76286100  0.58508900  1
  C  470  1  0.81061400  0.78725200  0.59616300  1
  C  471  1  0.80986800  0.78683800  0.61674100  1
  C  472  1  0.78433700  0.76170600  0.62708500  1
  C  473  1  0.75940300  0.73721200  0.61602900  1
  C  474  1  0.75985700  0.73794000  0.59545800  1
  C  475  1  0.78919000  0.61868400  0.45049600  1
  C  476  1  0.75500700  0.59748900  0.44582800  1
  C  477  1  0.75543800  0.55634200  0.44537800  1
  C  478  1  0.78981000  0.53517300  0.44990800  1
  C  479  1  0.82384400  0.55661800  0.45476400  1
  C  480  1  0.82366500  0.59776200  0.45489800  1
  C  481  1  0.79018400  0.49344900  0.44964200  1
  C  482  1  0.77490500  0.47224200  0.43363000  1
  C  483  1  0.77579900  0.43108200  0.43332200  1
  C  484  1  0.79152000  0.40933300  0.44909000  1
  C  485  1  0.80632000  0.43082100  0.46518900  1
  C  486  1  0.80594000  0.47196100  0.46541600  1
  C  487  1  0.78981300  0.76289100  0.37811300  1
  C  488  1  0.82380600  0.75294700  0.36747500  1
  C  489  1  0.82328700  0.75200500  0.34690400  1
  C  490  1  0.78905700  0.76177900  0.33638200  1
  C  491  1  0.75521900  0.77211300  0.34712200  1
  C  492  1  0.75545300  0.77230200  0.36769100  1
  C  493  1  0.78861300  0.76127200  0.31554500  1
  C  494  1  0.77449600  0.79360300  0.30482500  1
  C  495  1  0.77404800  0.79313100  0.28425700  1
  C  496  1  0.78696500  0.76011700  0.27349000  1
  C  497  1  0.80100700  0.72779800  0.28438700  1
  C  498  1  0.80210700  0.72843400  0.30496100  1
  C  499  1  0.78988000  0.90738950  0.45010900  1
  C  500  1  0.82507900  0.92857650  0.44816400  1
  C  501  1  0.75441800  0.92820050  0.45183500  1
  C  502  1  0.75422300  0.96934250  0.45166400  1
  C  503  1  0.78933200  0.99092950  0.44962600  1
  C  504  1  0.82473500  0.96973050  0.44786400  1
  C  505  1  0.78897000  0.03273400  0.44932900  1
  C  506  1  0.81100600  0.05402400  0.43543500  1
  C  507  1  0.81026400  0.09518300  0.43505900  1
  C  508  1  0.78764000  0.11687800  0.44860900  1
  C  509  1  0.76590400  0.09543300  0.46260100  1
  C  510  1  0.76641200  0.05429700  0.46291100  1
  C  553  1  0.78601900  0.75961100  0.25247100  1
  C  554  1  0.81481500  0.74020300  0.24130600  1
  C  556  1  0.78620600  0.75970400  0.21059100  1
  C  557  1  0.75585400  0.77958500  0.22094900  1
  C  558  1  0.75643000  0.77883900  0.24168000  1
  C  560  1  0.79029100  0.75778800  0.18969600  1
  C  561  1  0.82638100  0.75645300  0.17916800  1
  C  562  1  0.82508300  0.75539000  0.15844700  1
  C  563  1  0.78949000  0.75564900  0.14797400  1
  C  564  1  0.75492800  0.75637200  0.15918600  1
  C  569  1  0.86534500  0.75763400  0.18881100  1
  C  573  1  0.72451500  0.80244200  0.21110900  1
  C  577  1  0.78644500  0.76418100  0.75244600  1
  C  578  1  0.76703400  0.73551000  0.74121400  1
  C  580  1  0.78736800  0.76390000  0.71057900  1
  C  581  1  0.80731900  0.79409100  0.72099500  1
  C  582  1  0.80615700  0.79357300  0.74171900  1
  C  584  1  0.78578900  0.75986600  0.68968800  1
  C  585  1  0.78485300  0.72378300  0.67915400  1
  C  586  1  0.78402900  0.72510100  0.65843200  1
  C  587  1  0.78414600  0.76071400  0.64797600  1
  C  588  1  0.78449900  0.79526700  0.65920100  1
  C  593  1  0.78623300  0.68483900  0.68880900  1
  C  597  1  0.83065500  0.82517000  0.71121000  1
  C  601  1  0.39140000  0.75739000  0.94836650  1
  C  602  1  0.36917000  0.79120200  0.94434950  1
  C  604  1  0.30798400  0.75764700  0.94897050  1
  C  605  1  0.32851800  0.72217700  0.95276050  1
  C  606  1  0.36995000  0.72292800  0.95236650  1
  C  608  1  0.26637700  0.76200600  0.94931650  1
  C  609  1  0.24590700  0.79421200  0.95772050  1
  C  610  1  0.20447400  0.79381100  0.95723250  1
  C  611  1  0.18289900  0.76271800  0.94884650  1
  C  612  1  0.20512500  0.73212600  0.94054450  1
  C  617  1  0.26604700  0.82716300  0.96773250  1
  C  621  1  0.30844100  0.68502400  0.95795750  1
  C  625  1  0.78691100  0.15882600  0.44832400  1
  C  626  1  0.82073200  0.18107400  0.44431100  1
  C  628  1  0.78715300  0.24224500  0.44896300  1
  C  629  1  0.75167900  0.22170100  0.45275500  1
  C  630  1  0.75243800  0.18026900  0.45234600  1
  C  632  1  0.79151000  0.28385300  0.44932300  1
  C  633  1  0.82369900  0.30430600  0.45773000  1
  C  634  1  0.82330200  0.34574000  0.45726000  1
  C  635  1  0.79223300  0.36732800  0.44888800  1
  C  636  1  0.76165500  0.34512200  0.44058300  1
  C  641  1  0.85662100  0.28415200  0.46773100  1
  C  645  1  0.71451100  0.24176600  0.45796400  1
  C  649  1  0.48140600  0.52626500  0.94284590  1
  C  650  1  0.50995100  0.52588000  0.95709390  1
  C  651  1  0.54641900  0.52555800  0.94788590  1
  C  653  1  0.49975200  0.52611700  0.92459590  1
  C  654  1  0.47999100  0.52657600  0.90631590  1
  C  655  1  0.49882400  0.52687100  0.88782300  1
  C  657  1  0.54509100  0.52687100  0.86462000  1
  C  658  1  0.50870300  0.52799300  0.85539500  1
  C  659  1  0.48021600  0.52772400  0.86967500  1
  C  660  1  0.58205900  0.52667800  0.85515600  1
  C  661  1  0.61864400  0.52637500  0.86506200  1
  C  663  1  0.66536600  0.52595900  0.88838300  1
  C  664  1  0.68366500  0.52621900  0.87012000  1
  C  665  1  0.65513500  0.52604800  0.85588100  1
  C  666  1  0.68524100  0.52567600  0.90665590  1
  C  667  1  0.66637000  0.52536400  0.92515390  1
  C  669  1  0.61999900  0.52498000  0.94830990  1
  C  670  1  0.65631400  0.52398900  0.95759290  1
  C  671  1  0.68486400  0.52408200  0.94333290  1
  C  672  1  0.58301700  0.52506600  0.95773190  1
  C  673  1  0.58270200  0.52453300  0.97856790  1
  C  674  1  0.58265400  0.48874000  0.98880690  1
  C  675  1  0.58273200  0.48825700  0.00937900  1
  C  676  1  0.58271400  0.52341700  0.02034100  1
  C  677  1  0.58258100  0.55915300  0.00988600  1
  C  678  1  0.58268200  0.55976800  0.98931090  1
  C  679  1  0.58301700  0.52283800  0.04125700  1
  C  680  1  0.55873800  0.54810200  0.05228500  1
  C  681  1  0.55907900  0.54751400  0.07286200  1
  C  682  1  0.58402200  0.52191800  0.08325900  1
  C  683  1  0.60839000  0.49673900  0.07225000  1
  C  684  1  0.60774000  0.49704400  0.05167600  1
  C  685  1  0.72700300  0.52585200  0.90646790  1
  C  686  1  0.74823600  0.49169500  0.90176590  1
  C  687  1  0.78938500  0.49216100  0.90132990  1
  C  688  1  0.81052700  0.52653600  0.90591590  1
  C  689  1  0.78904300  0.56055100  0.91078690  1
  C  690  1  0.74789800  0.56033500  0.91091390  1
  C  691  1  0.85225700  0.52693300  0.90568190  1
  C  692  1  0.87351700  0.51164200  0.88967700  1
  C  693  1  0.91467960  0.51251900  0.88940500  1
  C  694  1  0.93638160  0.52828500  0.90519090  1
  C  695  1  0.91483860  0.54313500  0.92127390  1
  C  696  1  0.87370000  0.54276100  0.92146690  1
  C  697  1  0.58232300  0.52695200  0.83427400  1
  C  698  1  0.59207500  0.56128300  0.82389900  1
  C  699  1  0.59240400  0.56149800  0.80332700  1
  C  700  1  0.58218700  0.52769100  0.79254000  1
  C  701  1  0.57203700  0.49350700  0.80301200  1
  C  702  1  0.57248100  0.49300100  0.82358400  1
  C  703  1  0.58214000  0.52811300  0.77170300  1
  C  704  1  0.54945000  0.51481200  0.76097400  1
  C  705  1  0.54928600  0.51584500  0.74039800  1
  C  706  1  0.58195900  0.52959000  0.72964500  1
  C  707  1  0.61481600  0.54232300  0.74056000  1
  C  708  1  0.61480600  0.54198200  0.76113100  1
  C  709  1  0.43829900  0.52652100  0.90646590  1
  C  710  1  0.41713800  0.56173100  0.90454390  1
  C  711  1  0.41747200  0.49106700  0.90814590  1
  C  712  1  0.37633000  0.49089500  0.90796490  1
  C  713  1  0.35477100  0.52601700  0.90594090  1
  C  714  1  0.37598600  0.56141200  0.90421890  1
  C  715  1  0.31297100  0.52567300  0.90561490  1
  C  716  1  0.29172500  0.54768000  0.89171300  1
  C  717  1  0.25056600  0.54695800  0.89131300  1
  C  718  1  0.22883600  0.52437600  0.90484590  1
  C  719  1  0.25023800  0.50266700  0.91884690  1
  C  720  1  0.29137100  0.50314800  0.91917690  1
  C  763  1  0.58513600  0.63073700  0.44272100  1
  C  764  1  0.58470300  0.60226900  0.45700600  1
  C  765  1  0.58438600  0.56575400  0.44784900  1
  C  767  1  0.58500100  0.61229500  0.42449300  1
  C  768  1  0.58546400  0.63196300  0.40618500  1
  C  769  1  0.58575700  0.61302900  0.38771500  1
  C  771  1  0.58573600  0.56662000  0.36457800  1
  C  772  1  0.58669800  0.60295200  0.35529500  1
  C  773  1  0.58648500  0.63152600  0.36953700  1
  C  774  1  0.58553800  0.52959600  0.35517000  1
  C  775  1  0.58528200  0.49307200  0.36512800  1
  C  777  1  0.58488400  0.44648900  0.38851300  1
  C  778  1  0.58505400  0.42808100  0.37027800  1
  C  779  1  0.58486200  0.45652500  0.35600000  1
  C  780  1  0.58457100  0.42671400  0.40681100  1
  C  781  1  0.58422800  0.44568200  0.42528300  1
  C  783  1  0.58378400  0.49217600  0.44837300  1
  C  784  1  0.58278600  0.45591100  0.45770600  1
  C  785  1  0.58292400  0.42728300  0.44348500  1
  C  786  1  0.58384200  0.52920900  0.45774400  1
  C  787  1  0.58317900  0.52962300  0.47858000  1
  C  788  1  0.54731700  0.52949100  0.48878800  1
  C  789  1  0.54669600  0.52937200  0.50935900  1
  C  790  1  0.58178200  0.52952500  0.52035200  1
  C  791  1  0.61758900  0.52984100  0.50992800  1
  C  792  1  0.61834400  0.52979500  0.48935200  1
  C  793  1  0.58106100  0.52913200  0.54126500  1
  C  794  1  0.60610200  0.55352300  0.55233900  1
  C  795  1  0.60535600  0.55310900  0.57291700  1
  C  796  1  0.57982500  0.52797700  0.58326100  1
  C  797  1  0.55489100  0.50348300  0.57220500  1
  C  798  1  0.55534500  0.50421100  0.55163400  1
  C  799  1  0.58467800  0.38495500  0.40667200  1
  C  800  1  0.55049500  0.36376000  0.40200400  1
  C  801  1  0.55092600  0.32261300  0.40155400  1
  C  802  1  0.58529800  0.30144400  0.40608400  1
  C  803  1  0.61933200  0.32288900  0.41094000  1
  C  804  1  0.61915300  0.36403300  0.41107400  1
  C  805  1  0.58567200  0.25972000  0.40581800  1
  C  806  1  0.57039300  0.23851300  0.38980600  1
  C  807  1  0.57128700  0.19735300  0.38949800  1
  C  808  1  0.58700800  0.17560400  0.40526600  1
  C  809  1  0.60180800  0.19709200  0.42136500  1
  C  810  1  0.60142800  0.23823200  0.42159200  1
  C  811  1  0.58530100  0.52916200  0.33428900  1
  C  812  1  0.61929400  0.51921800  0.32365100  1
  C  813  1  0.61877500  0.51827600  0.30308000  1
  C  814  1  0.58454500  0.52805000  0.29255800  1
  C  815  1  0.55070700  0.53838400  0.30329800  1
  C  816  1  0.55094100  0.53857300  0.32386700  1
  C  817  1  0.58410100  0.52754300  0.27172100  1
  C  818  1  0.56998400  0.55987400  0.26100100  1
  C  819  1  0.56953600  0.55940200  0.24043300  1
  C  820  1  0.58245300  0.52638800  0.22966600  1
  C  821  1  0.59649500  0.49406900  0.24056300  1
  C  822  1  0.59759500  0.49470500  0.26113700  1
  C  823  1  0.58536800  0.67366000  0.40628500  1
  C  824  1  0.62056700  0.69484700  0.40434000  1
  C  825  1  0.54990600  0.69447100  0.40801100  1
  C  826  1  0.54971100  0.73561300  0.40784000  1
  C  827  1  0.58482000  0.75720000  0.40580200  1
  C  828  1  0.62022300  0.73600100  0.40404000  1
  C  829  1  0.58445800  0.79900500  0.40550500  1
  C  830  1  0.60649400  0.82029500  0.39161100  1
  C  831  1  0.60575200  0.86145400  0.39123500  1
  C  832  1  0.58312800  0.88314900  0.40478500  1
  C  833  1  0.56139200  0.86170400  0.41877700  1
  C  834  1  0.56190000  0.82056800  0.41908700  1
  C  877  1  0.58150700  0.52588200  0.20864700  1
  C  878  1  0.61030300  0.50647400  0.19748200  1
  C  880  1  0.58169400  0.52597500  0.16676700  1
  C  881  1  0.55134200  0.54585600  0.17712500  1
  C  882  1  0.55191800  0.54511000  0.19785600  1
  C  884  1  0.58577900  0.52405900  0.14587200  1
  C  885  1  0.62186900  0.52272400  0.13534400  1
  C  886  1  0.62057100  0.52166100  0.11462300  1
  C  887  1  0.58497800  0.52192000  0.10415000  1
  C  888  1  0.55041600  0.52264300  0.11536200  1
  C  893  1  0.66083300  0.52390500  0.14498700  1
  C  897  1  0.52000300  0.56871300  0.16728500  1
  C  901  1  0.58193300  0.53045200  0.70862200  1
  C  902  1  0.56252200  0.50178100  0.69739000  1
  C  904  1  0.58285600  0.53017100  0.66675500  1
  C  905  1  0.60280700  0.56036200  0.67717100  1
  C  906  1  0.60164500  0.55984400  0.69789500  1
  C  908  1  0.58127700  0.52613700  0.64586400  1
  C  909  1  0.58034100  0.49005400  0.63533000  1
  C  910  1  0.57951700  0.49137200  0.61460800  1
  C  911  1  0.57963400  0.52698500  0.60415200  1
  C  912  1  0.57998700  0.56153800  0.61537700  1
  C  917  1  0.58172100  0.45111000  0.64498500  1
  C  921  1  0.62614300  0.59144100  0.66738600  1
  C  925  1  0.18688800  0.52366100  0.90454190  1
  C  926  1  0.16465800  0.55747300  0.90052490  1
  C  928  1  0.10347200  0.52391800  0.90514590  1
  C  929  1  0.12400600  0.48844800  0.90893590  1
  C  930  1  0.16543800  0.48919900  0.90854190  1
  C  932  1  0.06186500  0.52827700  0.90549190  1
  C  933  1  0.04139500  0.56048300  0.91389590  1
  C  934  1  0.99996156  0.56008200  0.91340790  1
  C  935  1  0.97838660  0.52898900  0.90502190  1
  C  936  1  0.00061300  0.49839700  0.89672000  1
  C  941  1  0.06153500  0.59343400  0.92390790  1
  C  945  1  0.10392900  0.45129500  0.91413290  1
  C  949  1  0.58239900  0.92509700  0.40450000  1
  C  950  1  0.61622000  0.94734500  0.40048700  1
  C  952  1  0.58264100  0.00851600  0.40513900  1
  C  953  1  0.54716700  0.98797200  0.40893100  1
  C  954  1  0.54792600  0.94654000  0.40852200  1
  C  956  1  0.58699800  0.05012400  0.40549900  1
  C  957  1  0.61918700  0.07057700  0.41390600  1
  C  958  1  0.61879000  0.11201100  0.41343600  1
  C  959  1  0.58772100  0.13359900  0.40506400  1
  C  960  1  0.55714300  0.11139300  0.39675900  1
  C  965  1  0.65210900  0.05042300  0.42390700  1
  C  969  1  0.50999900  0.00803700  0.41414000  1
  N  4  1  0.94764500  0.99318400  0.01610900  1
  N  8  1  0.94662100  0.99382700  0.97166600  1
  N  14  1  0.03550800  0.99362700  0.97214600  1
  N  20  1  0.03660500  0.99321800  0.01657200  1
  N  118  1  0.99362700  0.04090900  0.51606100  1
  N  122  1  0.99435800  0.04169200  0.47161400  1
  N  128  1  0.99420100  0.95280800  0.47222200  1
  N  134  1  0.99363500  0.95195100  0.51664700  1
  N  231  1  0.01808900  0.97480600  0.26537000  1
  N  241  1  0.96140800  0.99091000  0.22275800  1
  N  255  1  0.97280700  0.97042100  0.76528100  1
  N  265  1  0.98959200  0.02701600  0.72277500  1
  N  279  1  0.53414400  0.02365900  0.98869100  1
  N  289  1  0.44917800  0.96677500  0.98496000  1
  N  303  1  0.02396400  0.45434000  0.48867000  1
  N  313  1  0.96708300  0.53930900  0.48498200  1
  N  328  1  0.74313200  0.75945400  0.97228450  1
  N  332  1  0.74210800  0.76009700  0.92784150  1
  N  338  1  0.83099500  0.75989700  0.92832150  1
  N  344  1  0.83209200  0.75948800  0.97274750  1
  N  442  1  0.78911400  0.80717900  0.47223600  1
  N  446  1  0.78984500  0.80796200  0.42778900  1
  N  452  1  0.78968800  0.71907800  0.42839700  1
  N  458  1  0.78912200  0.71822100  0.47282200  1
  N  555  1  0.81357600  0.74107600  0.22154500  1
  N  565  1  0.75689500  0.75718000  0.17893300  1
  N  579  1  0.76829400  0.73669100  0.72145600  1
  N  589  1  0.78507900  0.79328600  0.67895000  1
  N  603  1  0.32963100  0.78992900  0.94486650  1
  N  613  1  0.24466500  0.73304500  0.94113550  1
  N  627  1  0.81945100  0.22061000  0.44484500  1
  N  637  1  0.76257000  0.30557900  0.44115700  1
  N  652  1  0.53862000  0.52572500  0.92845990  1
  N  656  1  0.53759600  0.52636800  0.88401700  1
  N  662  1  0.62648300  0.52616800  0.88449700  1
  N  668  1  0.62758000  0.52575900  0.92892290  1
  N  766  1  0.58460200  0.57345000  0.42841200  1
  N  770  1  0.58533300  0.57423300  0.38396500  1
  N  776  1  0.58517600  0.48534900  0.38457300  1
  N  782  1  0.58461000  0.48449200  0.42899800  1
  N  879  1  0.60906400  0.50734700  0.17772100  1
  N  889  1  0.55238300  0.52345100  0.13510900  1
  N  903  1  0.56378200  0.50296200  0.67763200  1
  N  913  1  0.58056700  0.55955700  0.63512600  1
  N  927  1  0.12511900  0.55620000  0.90104190  1
  N  937  1  0.04015300  0.49931600  0.89731100  1
  N  951  1  0.61493900  0.98688100  0.40102100  1
  N  961  1  0.55805800  0.07185000  0.39733300  1
