# generated using pymatgen
data_H8C12N5
_symmetry_space_group_name_H-M   'P 1'
_cell_length_a   26.29590000
_cell_length_b   49.10459057
_cell_length_c   55.41110000
_cell_angle_alpha   90.00000000
_cell_angle_beta   90.00000000
_cell_angle_gamma   105.53065971
_symmetry_Int_Tables_number   1
_chemical_formula_structural   H8C12N5
_chemical_formula_sum   'H256 C384 N160'
_cell_volume   68937.08345165
_cell_formula_units_Z   32
loop_
 _symmetry_equiv_pos_site_id
 _symmetry_equiv_pos_as_xyz
  1  'x, y, z'
loop_
 _atom_site_type_symbol
 _atom_site_label
 _atom_site_symmetry_multiplicity
 _atom_site_fract_x
 _atom_site_fract_y
 _atom_site_fract_z
 _atom_site_occupancy
  C  1  1  0.49019750  0.39217100  0.75070450  1
  C  2  1  0.48512100  0.39034700  0.77633550  1
  C  3  1  0.52689300  0.40377000  0.79184600  1
  C  4  1  0.57228650  0.42168300  0.78159550  1
  C  5  1  0.57791500  0.42539500  0.75642600  1
  C  6  1  0.53859950  0.40915000  0.74062450  1
  C  9  1  0.44650350  0.37642000  0.73615300  1
  C  10  1  0.42187050  0.34701300  0.74033900  1
  C  11  1  0.37416050  0.33388400  0.72795000  1
  C  12  1  0.35631150  0.34821800  0.70917950  1
  C  13  1  0.38280950  0.37613500  0.70307850  1
  C  14  1  0.42598450  0.39050600  0.71750350  1
  C  27  1  0.34330200  0.10006200  0.49449600  1
  C  28  1  0.33900000  0.10230300  0.46894250  1
  C  29  1  0.36650350  0.08903200  0.45288600  1
  C  30  1  0.39421700  0.07089000  0.46252400  1
  C  31  1  0.39723850  0.06683900  0.48760500  1
  C  32  1  0.37493300  0.08285100  0.50394600  1
  C  35  1  0.31627350  0.11574600  0.50957350  1
  C  36  1  0.32145850  0.14523700  0.50571250  1
  C  37  1  0.28725200  0.15834100  0.51837950  1
  C  38  1  0.25515650  0.14389200  0.53712200  1
  C  39  1  0.25350250  0.11586600  0.54294400  1
  C  40  1  0.28192200  0.10153800  0.52825650  1
  C  53  1  0.15023200  0.39274800  0.49375250  1
  C  54  1  0.15526750  0.39069000  0.46821950  1
  C  55  1  0.12724000  0.40353200  0.45203900  1
  C  56  1  0.09823500  0.42112200  0.46155400  1
  C  57  1  0.09412250  0.42480700  0.48662150  1
  C  58  1  0.11687900  0.40911100  0.50304600  1
  C  61  1  0.17884550  0.37816500  0.50909600  1
  C  62  1  0.17654000  0.34892000  0.50567950  1
  C  63  1  0.21124650  0.33701200  0.51926650  1
  C  64  1  0.24076750  0.35221900  0.53840900  1
  C  65  1  0.23925650  0.37996900  0.54379850  1
  C  66  1  0.21134750  0.39330300  0.52796750  1
  C  79  1  0.00178800  0.09907200  0.75125050  1
  C  80  1  0.00767750  0.10103300  0.77684000  1
  C  81  1  0.96597200  0.08825400  0.79262850  1
  C  82  1  0.91972050  0.07077300  0.78270000  1
  C  83  1  0.91320900  0.06698800  0.75757850  1
  C  84  1  0.95248250  0.08272500  0.74151200  1
  C  87  1  0.04575650  0.11369000  0.73630650  1
  C  88  1  0.07287500  0.14288600  0.73992700  1
  C  89  1  0.11999500  0.15478600  0.72666750  1
  C  90  1  0.13472000  0.13961800  0.70760050  1
  C  91  1  0.10546700  0.11192200  0.70202950  1
  C  92  1  0.06366600  0.09859000  0.71757200  1
  C  105  1  0.50146000  0.59948400  0.24513400  1
  C  106  1  0.50651750  0.60130800  0.21950000  1
  C  107  1  0.46473250  0.58788400  0.20399600  1
  C  108  1  0.41934550  0.56997100  0.21425300  1
  C  109  1  0.41373850  0.56625900  0.23942300  1
  C  110  1  0.45306400  0.58250500  0.25521900  1
  C  113  1  0.54516550  0.61523400  0.25967850  1
  C  114  1  0.56979700  0.64464200  0.25549100  1
  C  115  1  0.61751250  0.65777100  0.26787550  1
  C  116  1  0.63537050  0.64343700  0.28664250  1
  C  117  1  0.60887600  0.61551900  0.29274600  1
  C  118  1  0.56569400  0.60115000  0.27832450  1
  C  131  1  0.64837100  0.89159000  0.50133600  1
  C  132  1  0.65266950  0.88934700  0.52688950  1
  C  133  1  0.62516250  0.90261700  0.54294450  1
  C  134  1  0.59745400  0.92076100  0.53330750  1
  C  135  1  0.59443800  0.92481500  0.50822650  1
  C  136  1  0.61674100  0.90880300  0.49188500  1
  C  139  1  0.67539850  0.87590600  0.48625800  1
  C  140  1  0.67021100  0.84641300  0.49011700  1
  C  141  1  0.70441800  0.83331000  0.47744800  1
  C  142  1  0.73651350  0.84776200  0.45870550  1
  C  143  1  0.73816750  0.87578800  0.45288600  1
  C  144  1  0.70975050  0.89011400  0.46757550  1
  C  157  1  0.84140650  0.59890300  0.50210250  1
  C  158  1  0.83628950  0.60095200  0.52763150  1
  C  159  1  0.86426100  0.58810500  0.54383300  1
  C  160  1  0.89330400  0.57052100  0.53433950  1
  C  161  1  0.89751700  0.56685300  0.50927350  1
  C  162  1  0.87479900  0.58254900  0.49283300  1
  C  165  1  0.81283800  0.61349200  0.48674100  1
  C  166  1  0.81514150  0.64273500  0.49015600  1
  C  167  1  0.78046100  0.65464700  0.47655600  1
  C  168  1  0.75096500  0.63944200  0.45740500  1
  C  169  1  0.75248050  0.61169200  0.45201900  1
  C  170  1  0.78036550  0.59835600  0.46785900  1
  C  183  1  0.98989250  0.89258600  0.24458800  1
  C  184  1  0.98401750  0.89062800  0.21899750  1
  C  185  1  0.02573150  0.90341000  0.20321350  1
  C  186  1  0.07197550  0.92089000  0.21314800  1
  C  187  1  0.07847250  0.92467300  0.23827050  1
  C  188  1  0.03919350  0.90893100  0.25433150  1
  C  191  1  0.94591350  0.87796900  0.25952600  1
  C  192  1  0.91879150  0.84877300  0.25590200  1
  C  193  1  0.87166650  0.83687400  0.26915750  1
  C  194  1  0.85693750  0.85204200  0.28822550  1
  C  195  1  0.88619250  0.87973500  0.29379800  1
  C  196  1  0.92799900  0.89306800  0.27825900  1
  C  417  1  0.98777150  0.39137600  0.25250500  1
  C  418  1  0.97731650  0.38898500  0.27775100  1
  C  419  1  0.01601400  0.40135800  0.29498750  1
  C  420  1  0.06378050  0.41925100  0.28690350  1
  C  421  1  0.07465600  0.42362400  0.26204650  1
  C  422  1  0.03818150  0.40836400  0.24455650  1
  C  425  1  0.94709550  0.37576700  0.23643050  1
  C  426  1  0.92279950  0.34621400  0.23997050  1
  C  427  1  0.87645100  0.33309700  0.22665300  1
  C  428  1  0.85972750  0.34771100  0.20776400  1
  C  429  1  0.88612500  0.37586900  0.20236900  1
  C  430  1  0.92809550  0.39012600  0.21750850  1
  C  443  1  0.84341350  0.10009700  0.99435100  1
  C  444  1  0.83596250  0.10186400  0.96899900  1
  C  445  1  0.86243800  0.08890300  0.95226500  1
  C  446  1  0.89181550  0.07107400  0.96100900  1
  C  447  1  0.89783350  0.06739300  0.98600650  1
  C  448  1  0.87651750  0.08324400  0.00295000  1
  C  451  1  0.81754150  0.11584400  0.00991600  1
  C  452  1  0.82234700  0.14529700  0.00600150  1
  C  453  1  0.78872200  0.15844800  0.01903650  1
  C  454  1  0.75719950  0.14395000  0.03793000  1
  C  455  1  0.75565850  0.11589600  0.04361500  1
  C  456  1  0.78392650  0.10161600  0.02880450  1
  C  469  1  0.64912550  0.39229500  0.99415000  1
  C  470  1  0.65695700  0.39045700  0.96883500  1
  C  471  1  0.62972750  0.40277200  0.95192550  1
  C  472  1  0.59924600  0.42016100  0.96044000  1
  C  473  1  0.59274500  0.42388300  0.98539000  1
  C  474  1  0.61462850  0.40849300  0.00250100  1
  C  477  1  0.67649000  0.37762000  0.01002400  1
  C  478  1  0.67445150  0.34840500  0.00658250  1
  C  479  1  0.70878250  0.33646200  0.02038500  1
  C  480  1  0.73788450  0.35170000  0.03961900  1
  C  481  1  0.73619000  0.37944500  0.04495900  1
  C  482  1  0.70836450  0.39274800  0.02906100  1
  C  495  1  0.50421700  0.09934900  0.25241350  1
  C  496  1  0.51464300  0.10167300  0.27766250  1
  C  497  1  0.47564950  0.08960500  0.29485850  1
  C  498  1  0.42750250  0.07210200  0.28677700  1
  C  499  1  0.41659200  0.06787300  0.26192350  1
  C  500  1  0.45333800  0.08293800  0.24446300  1
  C  503  1  0.54558950  0.11398300  0.23621700  1
  C  504  1  0.57240100  0.14328900  0.23937300  1
  C  505  1  0.61839650  0.15521800  0.22540650  1
  C  506  1  0.63217750  0.13988400  0.20622550  1
  C  507  1  0.60291050  0.11204600  0.20110800  1
  C  508  1  0.56218850  0.09875400  0.21721150  1
  C  521  1  0.00385600  0.60030100  0.74332050  1
  C  522  1  0.01428600  0.60269400  0.71807300  1
  C  523  1  0.97557450  0.59031700  0.70084350  1
  C  524  1  0.92782150  0.57241900  0.70893500  1
  C  525  1  0.91697200  0.56804700  0.73379250  1
  C  526  1  0.95345600  0.58331200  0.75127850  1
  C  529  1  0.04454500  0.61590900  0.75939050  1
  C  530  1  0.06884600  0.64546100  0.75585000  1
  C  531  1  0.11520050  0.65857600  0.76916350  1
  C  532  1  0.13192500  0.64396000  0.78805250  1
  C  533  1  0.10552450  0.61580500  0.79344950  1
  C  534  1  0.06354800  0.60155000  0.77831200  1
  C  547  1  0.14824200  0.89157500  0.00146350  1
  C  548  1  0.15566600  0.88981700  0.02681950  1
  C  549  1  0.12919050  0.90279500  0.04353950  1
  C  550  1  0.09984250  0.92063100  0.03477900  1
  C  551  1  0.09384700  0.92429900  0.00977750  1
  C  552  1  0.11516450  0.90843300  0.99284800  1
  C  555  1  0.17412900  0.87582200  0.98591150  1
  C  556  1  0.16932300  0.84637100  0.98983450  1
  C  557  1  0.20295500  0.83321600  0.97680800  1
  C  558  1  0.23448700  0.84770700  0.95791450  1
  C  559  1  0.23602750  0.87575800  0.95222150  1
  C  560  1  0.20775450  0.89004300  0.96702450  1
  C  573  1  0.34254700  0.59935900  0.00165550  1
  C  574  1  0.33474850  0.60118200  0.02697550  1
  C  575  1  0.36198700  0.58885100  0.04386800  1
  C  576  1  0.39244700  0.57146100  0.03533300  1
  C  577  1  0.39891900  0.56775700  0.01037900  1
  C  578  1  0.37703200  0.58316300  0.99328450  1
  C  581  1  0.31515750  0.61403500  0.98579750  1
  C  582  1  0.31718550  0.64324900  0.98924950  1
  C  583  1  0.28284300  0.65519300  0.97545700  1
  C  584  1  0.25373500  0.63995900  0.95622100  1
  C  585  1  0.25543500  0.61221700  0.95087200  1
  C  586  1  0.28327200  0.59891300  0.96676150  1
  C  599  1  0.48746000  0.89231100  0.74341600  1
  C  600  1  0.47704500  0.88999300  0.71816700  1
  C  601  1  0.51604550  0.90206700  0.70097450  1
  C  602  1  0.56418550  0.91956700  0.70906150  1
  C  603  1  0.57508650  0.92379200  0.73391650  1
  C  604  1  0.53833250  0.90872300  0.75137250  1
  C  607  1  0.44608000  0.87767900  0.75961000  1
  C  608  1  0.41926550  0.84837400  0.75644950  1
  C  609  1  0.37326350  0.83644400  0.77041450  1
  C  610  1  0.35948450  0.85177600  0.78959650  1
  C  611  1  0.38875450  0.87961300  0.79471650  1
  C  612  1  0.42948000  0.89290500  0.77861600  1
  C  833  1  0.26016500  0.38300800  0.62905950  1
  C  835  1  0.34411800  0.40404100  0.64752550  1
  C  836  1  0.36311050  0.41530400  0.62473150  1
  C  838  1  0.27959750  0.39331700  0.60606650  1
  C  841  1  0.24985950  0.38401700  0.58540200  1
  C  843  1  0.37635700  0.40573300  0.66773150  1
  C  845  1  0.12385000  0.10888800  0.61679000  1
  C  847  1  0.18670500  0.08777600  0.59835850  1
  C  848  1  0.19451000  0.07660200  0.62117750  1
  C  850  1  0.13304300  0.09865300  0.63980350  1
  C  853  1  0.11267200  0.10802900  0.66044450  1
  C  855  1  0.21710800  0.08598700  0.57812250  1
  C  857  1  0.73154700  0.60865100  0.36675650  1
  C  859  1  0.64758750  0.58761600  0.34829650  1
  C  860  1  0.62860400  0.57635500  0.37109150  1
  C  862  1  0.71212200  0.59834200  0.38975200  1
  C  865  1  0.74186300  0.60764600  0.41041350  1
  C  867  1  0.61534200  0.58592200  0.32809350  1
  C  869  1  0.86781400  0.88276900  0.37903750  1
  C  871  1  0.80495850  0.90387800  0.39747200  1
  C  872  1  0.79715350  0.91505500  0.37465200  1
  C  874  1  0.85861700  0.89300300  0.35602500  1
  C  877  1  0.87898750  0.88362800  0.33538350  1
  C  879  1  0.77455800  0.90566700  0.41770800  1
  C  929  1  0.76056200  0.38270700  0.13000350  1
  C  931  1  0.84502100  0.40441800  0.14772650  1
  C  932  1  0.86271900  0.41584500  0.12482550  1
  C  934  1  0.77872650  0.39317600  0.10688800  1
  C  937  1  0.74825100  0.38362500  0.08648800  1
  C  939  1  0.87811100  0.40637000  0.16764150  1
  C  941  1  0.62270100  0.10814500  0.11604200  1
  C  943  1  0.68662900  0.08725100  0.09833500  1
  C  944  1  0.69370950  0.07617000  0.12128050  1
  C  946  1  0.63119850  0.09804100  0.13919700  1
  C  949  1  0.61028000  0.10758000  0.15959300  1
  C  951  1  0.71785800  0.08555800  0.07838850  1
  C  953  1  0.23106800  0.60897700  0.86582650  1
  C  955  1  0.14661750  0.58726300  0.84809850  1
  C  956  1  0.12891450  0.57583100  0.87099750  1
  C  958  1  0.21290150  0.59850500  0.88894100  1
  C  961  1  0.24337150  0.60805200  0.90934200  1
  C  963  1  0.11353100  0.58530800  0.82818100  1
  C  965  1  0.36897000  0.88350100  0.87978400  1
  C  967  1  0.30504550  0.90439500  0.89749550  1
  C  968  1  0.29796050  0.91547800  0.87455050  1
  C  970  1  0.36047050  0.89360800  0.85663000  1
  C  973  1  0.38138750  0.88407200  0.83623250  1
  C  975  1  0.27381950  0.90608900  0.91744250  1
  C  1025  1  0.71421100  0.51174700  0.75423700  1
  C  1027  1  0.79880900  0.51107600  0.73877450  1
  C  1028  1  0.77758050  0.48253800  0.73203050  1
  C  1030  1  0.69301800  0.48317400  0.74757900  1
  C  1033  1  0.64208450  0.46855700  0.75358850  1
  C  1035  1  0.85025400  0.52548900  0.73347700  1
  C  1037  1  0.44886250  0.98102000  0.48748200  1
  C  1039  1  0.53554500  0.98217900  0.50137250  1
  C  1040  1  0.54281700  0.01063700  0.50834950  1
  C  1042  1  0.45613750  0.00947700  0.49445550  1
  C  1045  1  0.41894150  0.02383300  0.48938250  1
  C  1047  1  0.57273300  0.96782200  0.50645300  1
  C  1049  1  0.04291450  0.51073800  0.48761950  1
  C  1051  1  0.95649450  0.50959500  0.50184300  1
  C  1052  1  0.94883250  0.48094500  0.50827900  1
  C  1054  1  0.03525400  0.48208700  0.49405550  1
  C  1057  1  0.07232550  0.46773600  0.48875900  1
  C  1059  1  0.91947550  0.52396000  0.50719100  1
  C  1061  1  0.77725400  0.98048700  0.75513850  1
  C  1063  1  0.69266600  0.98095800  0.73954250  1
  C  1064  1  0.71345050  0.00967300  0.73323900  1
  C  1066  1  0.79801100  0.00922200  0.74889200  1
  C  1069  1  0.84883750  0.02391500  0.75496900  1
  C  1071  1  0.64139850  0.96642600  0.73406050  1
  C  1073  1  0.27745850  0.47990200  0.24161800  1
  C  1075  1  0.19285850  0.48057800  0.25707650  1
  C  1076  1  0.21409400  0.50911500  0.26382250  1
  C  1078  1  0.29865450  0.50847400  0.24827600  1
  C  1081  1  0.34960250  0.52308600  0.24228050  1
  C  1083  1  0.14142700  0.46616400  0.26239050  1
  C  1097  1  0.21439900  0.01118200  0.24071850  1
  C  1099  1  0.29899450  0.01071100  0.25630650  1
  C  1100  1  0.27821250  0.98199800  0.26260950  1
  C  1102  1  0.19364550  0.98244800  0.24696500  1
  C  1105  1  0.14280650  0.96775500  0.24089950  1
  C  1107  1  0.35025450  0.02524700  0.26179750  1
  C  1169  1  0.94985100  0.98131700  0.98653550  1
  C  1171  1  0.03438400  0.98174300  0.00276800  1
  C  1172  1  0.04189500  0.01039100  0.00921650  1
  C  1174  1  0.95736300  0.00996500  0.99298150  1
  C  1177  1  0.92088150  0.02453500  0.98708800  1
  C  1179  1  0.07087700  0.96717600  0.00865400  1
  C  1181  1  0.54169750  0.51021300  0.98635550  1
  C  1183  1  0.45787500  0.51016300  0.00317850  1
  C  1184  1  0.44989550  0.48141100  0.00937400  1
  C  1186  1  0.53371950  0.48146100  0.99255300  1
  C  1189  1  0.56978850  0.46672800  0.98643250  1
  C  1191  1  0.42177700  0.52488900  0.00927600  1
  C  1217  1  0.60045550  0.37024300  0.87282100  1
  C  1219  1  0.52803450  0.38232200  0.85323850  1
  C  1220  1  0.51236200  0.39061100  0.87586700  1
  C  1222  1  0.58523100  0.37889200  0.89539750  1
  C  1225  1  0.61081300  0.37624400  0.91678950  1
  C  1227  1  0.50192550  0.38398700  0.83177850  1
  C  1229  1  0.47505250  0.12596900  0.37312500  1
  C  1231  1  0.39067100  0.11192700  0.39270600  1
  C  1232  1  0.36783700  0.10052200  0.37057250  1
  C  1234  1  0.45230050  0.11427200  0.35112400  1
  C  1237  1  0.48174750  0.11686600  0.33020900  1
  C  1239  1  0.36247150  0.11081900  0.41398100  1
  C  1241  1  0.01780300  0.36625900  0.37314350  1
  C  1243  1  0.10293000  0.38013600  0.39201850  1
  C  1244  1  0.12526250  0.39030500  0.36947700  1
  C  1246  1  0.03996800  0.37671900  0.35064050  1
  C  1249  1  0.01071650  0.37420400  0.32952300  1
  C  1251  1  0.13173900  0.38187200  0.41312950  1
  C  1253  1  0.89780250  0.12493400  0.87362150  1
  C  1255  1  0.96663000  0.10997700  0.85361850  1
  C  1256  1  0.97802800  0.09839000  0.87566450  1
  C  1258  1  0.90866400  0.11301700  0.89560500  1
  C  1261  1  0.88243200  0.11511600  0.91693000  1
  C  1263  1  0.99278900  0.10840500  0.83215450  1
  C  1265  1  0.39113900  0.62134800  0.12299700  1
  C  1267  1  0.46358100  0.60930500  0.14259100  1
  C  1268  1  0.47930050  0.60103700  0.11996500  1
  C  1270  1  0.40640650  0.61271800  0.10042200  1
  C  1273  1  0.38083000  0.61535600  0.07902550  1
  C  1275  1  0.48968450  0.60765000  0.16405600  1
  C  1277  1  0.51661550  0.86565400  0.62270850  1
  C  1279  1  0.60099350  0.87972400  0.60312400  1
  C  1280  1  0.62380950  0.89117100  0.62524950  1
  C  1282  1  0.53934900  0.87739300  0.64470050  1
  C  1285  1  0.50989250  0.87481600  0.66561200  1
  C  1287  1  0.62919550  0.88082900  0.58185250  1
  C  1289  1  0.97379100  0.62539900  0.62267900  1
  C  1291  1  0.88865250  0.61155300  0.60381050  1
  C  1292  1  0.86631750  0.60140200  0.62635600  1
  C  1294  1  0.95162300  0.61495700  0.64518600  1
  C  1297  1  0.98087600  0.61746800  0.66630200  1
  C  1299  1  0.85983900  0.60982800  0.58270300  1
  C  1301  1  0.09393150  0.86678400  0.12220300  1
  C  1303  1  0.02507750  0.88170700  0.14221400  1
  C  1304  1  0.01363600  0.89327700  0.12016800  1
  C  1306  1  0.08302600  0.87868200  0.10021950  1
  C  1309  1  0.10925750  0.87659800  0.07889000  1
  C  1311  1  0.99892550  0.88327100  0.16368250  1
  C  1409  1  0.26825250  0.25481700  0.77219350  1
  C  1411  1  0.21342800  0.21712400  0.74889550  1
  C  1412  1  0.23214250  0.23248800  0.72764650  1
  C  1414  1  0.28696850  0.27010200  0.75095000  1
  C  1417  1  0.32119500  0.29688300  0.75134500  1
  C  1419  1  0.17896400  0.19038500  0.74884050  1
  C  1421  1  0.25980600  0.23705000  0.47399000  1
  C  1423  1  0.24288550  0.27484100  0.49719500  1
  C  1424  1  0.24641500  0.25960800  0.51849500  1
  C  1426  1  0.26338250  0.22189000  0.49528750  1
  C  1429  1  0.27077950  0.19512000  0.49499250  1
  C  1431  1  0.23504900  0.30153500  0.49718800  1
  C  1433  1  0.72340750  0.73684200  0.22362950  1
  C  1435  1  0.77823300  0.77453500  0.24692850  1
  C  1436  1  0.75951950  0.75917100  0.26817650  1
  C  1438  1  0.70469350  0.72155600  0.24487450  1
  C  1441  1  0.67046650  0.69477400  0.24447850  1
  C  1443  1  0.81269950  0.80127400  0.24698450  1
  C  1445  1  0.73186050  0.75459800  0.52183100  1
  C  1447  1  0.74878550  0.71680800  0.49862400  1
  C  1448  1  0.74526000  0.73204500  0.47732500  1
  C  1450  1  0.72828600  0.76976000  0.50053550  1
  C  1453  1  0.72088850  0.79652900  0.50083150  1
  C  1455  1  0.75662300  0.69011500  0.49863000  1
  C  1505  1  0.76793700  0.25482300  0.27059150  1
  C  1507  1  0.71329400  0.21708800  0.24731200  1
  C  1508  1  0.73251800  0.23223900  0.22603150  1
  C  1510  1  0.78715850  0.26989600  0.24931350  1
  C  1513  1  0.82154400  0.29660100  0.24966900  1
  C  1515  1  0.67862400  0.19043800  0.24727350  1
  C  1517  1  0.75898100  0.23691400  0.97501300  1
  C  1519  1  0.74177700  0.27457500  0.99831400  1
  C  1520  1  0.74583050  0.25938500  0.01957700  1
  C  1522  1  0.76308800  0.22179300  0.99627150  1
  C  1525  1  0.77080050  0.19507700  0.99588700  1
  C  1527  1  0.73357450  0.30120300  0.99835900  1
  C  1529  1  0.22371700  0.73684700  0.72522250  1
  C  1531  1  0.27836550  0.77458000  0.74850250  1
  C  1532  1  0.25913750  0.75942800  0.76978350  1
  C  1534  1  0.20449200  0.72177400  0.74649950  1
  C  1537  1  0.17010200  0.69506900  0.74614400  1
  C  1539  1  0.31303750  0.80122800  0.74854350  1
  C  1541  1  0.23266200  0.75474400  0.02083850  1
  C  1543  1  0.24986250  0.71708000  0.99753550  1
  C  1544  1  0.24580900  0.73227200  0.97627350  1
  C  1546  1  0.22855650  0.76986400  0.99957950  1
  C  1549  1  0.22084650  0.79658100  0.99996450  1
  C  1551  1  0.25806350  0.69045300  0.99749150  1
  H  7  1  0.45137550  0.37795500  0.78397000  1
  H  8  1  0.60290850  0.43167300  0.79267550  1
  H  15  1  0.32363100  0.33784700  0.69941800  1
  H  16  1  0.44341450  0.41134200  0.71385700  1
  H  19  1  0.52647200  0.39621800  0.70547450  1
  H  20  1  0.58264400  0.42028300  0.70989800  1
  H  21  1  0.42939900  0.31057300  0.75615200  1
  H  22  1  0.47974950  0.33805300  0.76106450  1
  H  33  1  0.31742250  0.11485500  0.46175800  1
  H  34  1  0.41428000  0.06102500  0.45104200  1
  H  41  1  0.23302950  0.15423100  0.54703000  1
  H  42  1  0.27823050  0.08061900  0.53164850  1
  H  45  1  0.37665650  0.09493900  0.53939200  1
  H  46  1  0.40850750  0.07093200  0.53417500  1
  H  47  1  0.36569750  0.18176700  0.49021900  1
  H  48  1  0.38801400  0.15419300  0.48479900  1
  H  59  1  0.17824200  0.37882000  0.46114000  1
  H  60  1  0.07818050  0.43089800  0.44999150  1
  H  67  1  0.26321800  0.34277600  0.54897950  1
  H  68  1  0.21291800  0.41406200  0.53105900  1
  H  71  1  0.11409700  0.39647500  0.53833950  1
  H  72  1  0.08088100  0.41984800  0.53304950  1
  H  73  1  0.13657600  0.31160400  0.48994650  1
  H  74  1  0.11171800  0.33811900  0.48375750  1
  H  85  1  0.04214700  0.11292700  0.78423750  1
  H  86  1  0.88927400  0.06107000  0.79397900  1
  H  93  1  0.16690450  0.14906100  0.69719950  1
  H  94  1  0.04442750  0.07787300  0.71432550  1
  H  97  1  0.96381850  0.09561600  0.70633600  1
  H  98  1  0.90701600  0.07221200  0.71112750  1
  H  99  1  0.07025650  0.18015500  0.75585350  1
  H  100  1  0.01843750  0.15376200  0.76162000  1
  H  111  1  0.54025450  0.61369800  0.21186050  1
  H  112  1  0.38871700  0.55997900  0.20317850  1
  H  119  1  0.66805400  0.65380700  0.29640150  1
  H  120  1  0.54826650  0.58031400  0.28197300  1
  H  123  1  0.46521450  0.59543800  0.29036850  1
  H  124  1  0.40904150  0.57137100  0.28595200  1
  H  125  1  0.56226150  0.68108100  0.23968000  1
  H  126  1  0.51190750  0.65360200  0.23477300  1
  H  137  1  0.67424200  0.87679400  0.53407200  1
  H  138  1  0.57739150  0.93062600  0.54478900  1
  H  145  1  0.75863850  0.83742300  0.44879650  1
  H  146  1  0.71344250  0.91103500  0.46418450  1
  H  149  1  0.61503083  0.89671600  0.45643950  1
  H  150  1  0.58316950  0.92072400  0.46165700  1
  H  151  1  0.62597350  0.80988300  0.50560850  1
  H  152  1  0.60365700  0.83745800  0.51103050  1
  H  163  1  0.81327750  0.61281200  0.53469400  1
  H  164  1  0.91332400  0.56074500  0.54591700  1
  H  171  1  0.72852800  0.64888700  0.44682850  1
  H  172  1  0.77879550  0.57759600  0.46477000  1
  H  175  1  0.87765300  0.59518200  0.45753800  1
  H  176  1  0.91087650  0.57181900  0.46285050  1
  H  177  1  0.85508500  0.68004700  0.50590350  1
  H  178  1  0.87991850  0.65352800  0.51210650  1
  H  189  1  0.94955000  0.87873600  0.21159550  1
  H  190  1  0.10242650  0.93059700  0.20187150  1
  H  197  1  0.82475000  0.84259800  0.29862300  1
  H  198  1  0.94723750  0.91378400  0.28150750  1
  H  201  1  0.02783700  0.89603700  0.28950650  1
  H  202  1  0.08464050  0.91944400  0.28472100  1
  H  203  1  0.92140900  0.81150500  0.23997500  1
  H  204  1  0.97323350  0.83789500  0.23421250  1
  H  423  1  0.94170350  0.37686400  0.28391200  1
  H  424  1  0.09177100  0.42871500  0.29937300  1
  H  431  1  0.82767000  0.33746900  0.19756500  1
  H  432  1  0.94520400  0.41113800  0.21447200  1
  H  435  1  0.03147250  0.39743300  0.20879350  1
  H  436  1  0.08756650  0.42049800  0.21560650  1
  H  437  1  0.92954500  0.30969900  0.25592700  1
  H  438  1  0.97867250  0.33739400  0.26209250  1
  H  449  1  0.81265400  0.11384200  0.96238200  1
  H  450  1  0.91034150  0.06112500  0.94892150  1
  H  457  1  0.73512700  0.15421600  0.04795050  1
  H  458  1  0.78028900  0.08067700  0.03208700  1
  H  461  1  0.88010550  0.09512700  0.03849450  1
  H  462  1  0.91289150  0.07172200  0.03249100  1
  H  463  1  0.86537900  0.18167000  0.98983700  1
  H  464  1  0.88733200  0.15403900  0.98406800  1
  H  475  1  0.68130900  0.37898000  0.96238100  1
  H  476  1  0.58047000  0.42982900  0.94823650  1
  H  483  1  0.76038600  0.34232600  0.05022450  1
  H  484  1  0.70991350  0.41352200  0.03206000  1
  H  487  1  0.61024200  0.39642300  0.03797850  1
  H  488  1  0.57631900  0.41923100  0.03175350  1
  H  489  1  0.63534300  0.31121700  0.99039250  1
  H  490  1  0.61075950  0.33778200  0.98396700  1
  H  501  1  0.55051400  0.11343300  0.28384450  1
  H  502  1  0.39933500  0.06279900  0.29922500  1
  H  509  1  0.66387300  0.14924700  0.19551200  1
  H  510  1  0.54318150  0.07791000  0.21440650  1
  H  513  1  0.45989200  0.09438800  0.20883050  1
  H  514  1  0.40339700  0.07166500  0.21559750  1
  H  515  1  0.57036800  0.18057000  0.25544850  1
  H  516  1  0.51957350  0.15396200  0.26217000  1
  H  527  1  0.04989300  0.61481600  0.71190600  1
  H  528  1  0.89982400  0.56294900  0.69647050  1
  H  535  1  0.16398700  0.65420300  0.79825000  1
  H  536  1  0.04643450  0.58053800  0.78135100  1
  H  539  1  0.96018400  0.59424900  0.78703950  1
  H  540  1  0.90409050  0.57117400  0.78023550  1
  H  541  1  0.06210200  0.68197900  0.73989600  1
  H  542  1  0.01296550  0.65428700  0.73373600  1
  H  553  1  0.17896200  0.87783900  0.03344700  1
  H  554  1  0.08131950  0.93059500  0.04685600  1
  H  561  1  0.25655950  0.83743700  0.94789850  1
  H  562  1  0.21139150  0.91098100  0.96373450  1
  H  565  1  0.11158150  0.89652100  0.95731000  1
  H  566  1  0.07881650  0.91994200  0.96329350  1
  H  567  1  0.12628550  0.81000300  0.00600350  1
  H  568  1  0.10432650  0.83763400  0.01176050  1
  H  579  1  0.31040250  0.61265600  0.03344350  1
  H  580  1  0.41122450  0.56177800  0.04752400  1
  H  587  1  0.23122850  0.64933600  0.94562200  1
  H  588  1  0.28173350  0.57814100  0.96375350  1
  H  591  1  0.38139750  0.59526300  0.95781450  1
  H  592  1  0.41531300  0.57244400  0.96401400  1
  H  593  1  0.35629250  0.68043200  0.00544650  1
  H  594  1  0.38088950  0.65386900  0.01185750  1
  H  605  1  0.44117550  0.87823300  0.71198050  1
  H  606  1  0.59235900  0.92887700  0.69661700  1
  H  613  1  0.32778550  0.84241400  0.80030850  1
  H  614  1  0.44848950  0.91374800  0.78142500  1
  H  617  1  0.53177050  0.89726100  0.78700250  1
  H  618  1  0.58826800  0.91998500  0.78024350  1
  H  619  1  0.42129300  0.81109400  0.74037000  1
  H  620  1  0.47209150  0.83769900  0.73365300  1
  H  839  1  0.22274100  0.37027300  0.63130800  1
  H  840  1  0.40159200  0.42647500  0.62240750  1
  H  842  1  0.21763150  0.36792200  0.58743600  1
  H  844  1  0.41112900  0.42000500  0.66861750  1
  H  851  1  0.09925300  0.12166900  0.61451950  1
  H  852  1  0.22172350  0.06536800  0.62350100  1
  H  854  1  0.09654650  0.12412900  0.65838900  1
  H  856  1  0.23762750  0.07172400  0.57728200  1
  H  863  1  0.76897100  0.62138600  0.36450600  1
  H  864  1  0.59012400  0.56518200  0.37341950  1
  H  866  1  0.77408150  0.62374700  0.40838000  1
  H  868  1  0.58056950  0.57165200  0.32720950  1
  H  875  1  0.89240900  0.86998500  0.38130650  1
  H  876  1  0.76993950  0.92628800  0.37233100  1
  H  878  1  0.89511450  0.86752900  0.33743850  1
  H  880  1  0.75404150  0.91993100  0.41855000  1
  H  935  1  0.72349900  0.36967100  0.13255700  1
  H  936  1  0.90090150  0.42733100  0.12218750  1
  H  938  1  0.71649550  0.36730400  0.08875000  1
  H  940  1  0.91198700  0.42133200  0.16865650  1
  H  947  1  0.59805950  0.12084900  0.11347450  1
  H  948  1  0.72104800  0.06508000  0.12391800  1
  H  950  1  0.59440900  0.12374000  0.15730100  1
  H  952  1  0.73788950  0.07107200  0.07757100  1
  H  959  1  0.26813000  0.62201700  0.86327600  1
  H  960  1  0.09073750  0.56434300  0.87363350  1
  H  962  1  0.27512450  0.62437700  0.90708250  1
  H  964  1  0.07965200  0.57034700  0.82716700  1
  H  971  1  0.39361150  0.87080000  0.88234950  1
  H  972  1  0.27062200  0.92656800  0.87191500  1
  H  974  1  0.39725400  0.86791000  0.83852200  1
  H  976  1  0.25378000  0.92057100  0.91825900  1
  H  1031  1  0.69189300  0.52302000  0.76270800  1
  H  1032  1  0.80002300  0.47120800  0.72372900  1
  H  1034  1  0.62099750  0.47816500  0.76387000  1
  H  1036  1  0.87161550  0.51600500  0.72324350  1
  H  1043  1  0.41471400  0.96959500  0.47953150  1
  H  1044  1  0.57695900  0.02205800  0.51630400  1
  H  1046  1  0.38784700  0.01427800  0.47931050  1
  H  1048  1  0.60382200  0.97737600  0.51652950  1
  H  1055  1  0.07713900  0.52224100  0.47978500  1
  H  1056  1  0.91462200  0.46944600  0.51613100  1
  H  1058  1  0.10379050  0.47750600  0.47899750  1
  H  1060  1  0.88793400  0.51416800  0.51689850  1
  H  1067  1  0.79975750  0.96920800  0.76346250  1
  H  1068  1  0.69083750  0.02099700  0.72506400  1
  H  1070  1  0.87021350  0.01425500  0.76503300  1
  H  1072  1  0.61973350  0.97604000  0.72413050  1
  H  1079  1  0.29977850  0.46862400  0.23315500  1
  H  1080  1  0.19165550  0.52044600  0.27212500  1
  H  1082  1  0.37067650  0.51348400  0.23198500  1
  H  1084  1  0.12006000  0.47565600  0.27261300  1
  H  1103  1  0.19188850  0.02246500  0.23240350  1
  H  1104  1  0.30082650  0.97067100  0.27078300  1
  H  1106  1  0.12143800  0.97741200  0.23082900  1
  H  1108  1  0.37192450  0.01563000  0.27172250  1
  H  1175  1  0.91633400  0.97004600  0.97800700  1
  H  1176  1  0.07541050  0.02166000  0.01774550  1
  H  1178  1  0.88988100  0.01486900  0.97701700  1
  H  1180  1  0.10185150  0.97683500  0.01874350  1
  H  1187  1  0.57515300  0.52139100  0.97772850  1
  H  1188  1  0.41643150  0.47022900  0.01799350  1
  H  1190  1  0.60105100  0.47642400  0.97652700  1
  H  1192  1  0.39053950  0.51519800  0.01919750  1
  H  1223  1  0.63264500  0.36245700  0.87115050  1
  H  1224  1  0.48001700  0.39826800  0.87751250  1
  H  1226  1  0.63214000  0.36233200  0.91696100  1
  H  1228  1  0.46413750  0.38391200  0.83280400  1
  H  1235  1  0.51449050  0.13574500  0.37451600  1
  H  1236  1  0.32833850  0.09096100  0.36914950  1
  H  1238  1  0.48237200  0.13409800  0.32059450  1
  H  1240  1  0.32497050  0.11095300  0.41231850  1
  H  1247  1  0.97823950  0.35711900  0.37502550  1
  H  1248  1  0.16485200  0.39938500  0.36763700  1
  H  1250  1  0.97684200  0.35912500  0.32942700  1
  H  1252  1  0.16921150  0.38150700  0.41175100  1
  H  1259  1  0.86851500  0.13497400  0.87232450  1
  H  1260  1  0.00731500  0.08834700  0.87690250  1
  H  1262  1  0.86291150  0.12988100  0.91773700  1
  H  1264  1  0.02997950  0.10752700  0.83353100  1
  H  1271  1  0.35892150  0.62911400  0.12466300  1
  H  1272  1  0.51167250  0.59340400  0.11832450  1
  H  1274  1  0.35944400  0.62923900  0.07885400  1
  H  1276  1  0.52747450  0.60772700  0.16303650  1
  H  1283  1  0.47719050  0.85585600  0.62132150  1
  H  1284  1  0.66329950  0.90076000  0.62666700  1
  H  1286  1  0.50918700  0.85756600  0.67521800  1
  H  1288  1  0.66669850  0.88070000  0.58351700  1
  H  1295  1  0.01336000  0.63452000  0.62079200  1
  H  1296  1  0.82672300  0.59234200  0.62820000  1
  H  1298  1  0.01476200  0.63253500  0.66639400  1
  H  1300  1  0.82241800  0.61028400  0.58408800  1
  H  1307  1  0.12324900  0.85676300  0.12349800  1
  H  1308  1  0.98431900  0.90330100  0.11893350  1
  H  1310  1  0.12883250  0.86185600  0.07808450  1
  H  1312  1  0.96173000  0.88414600  0.16231100  1
  H  1415  1  0.28080750  0.26262100  0.78889800  1
  H  1416  1  0.22004900  0.22478000  0.71086850  1
  H  1418  1  0.32478350  0.30840600  0.76635000  1
  H  1420  1  0.17737050  0.17817400  0.76332950  1
  H  1427  1  0.26441450  0.22915000  0.45730750  1
  H  1428  1  0.24214150  0.26739700  0.53525400  1
  H  1430  1  0.26277700  0.18351300  0.48003400  1
  H  1432  1  0.24584950  0.31376600  0.48272200  1
  H  1439  1  0.71085350  0.72903900  0.20692550  1
  H  1440  1  0.77161600  0.76687800  0.28495550  1
  H  1442  1  0.66687500  0.68325300  0.22947250  1
  H  1444  1  0.81429400  0.81348500  0.23249450  1
  H  1451  1  0.72725050  0.76249500  0.53851350  1
  H  1452  1  0.74953650  0.72425700  0.46056600  1
  H  1454  1  0.72889400  0.80813500  0.51579150  1
  H  1456  1  0.74580850  0.67788100  0.51309200  1
  H  1511  1  0.78024850  0.26273500  0.28729400  1
  H  1512  1  0.72067900  0.22441100  0.20925850  1
  H  1514  1  0.82422200  0.30840000  0.26447800  1
  H  1516  1  0.67745950  0.17808900  0.26164350  1
  H  1523  1  0.76347700  0.22904700  0.95830300  1
  H  1524  1  0.74166400  0.26715700  0.03635500  1
  H  1526  1  0.76214050  0.18338200  0.98100250  1
  H  1528  1  0.74454600  0.31352800  0.98396200  1
  H  1535  1  0.21140450  0.72893700  0.70852000  1
  H  1536  1  0.27097850  0.76725600  0.78655650  1
  H  1538  1  0.16741800  0.68327300  0.73133400  1
  H  1540  1  0.31420800  0.81357800  0.73417350  1
  H  1547  1  0.22816850  0.76260900  0.03754850  1
  H  1548  1  0.24997650  0.72450200  0.95949550  1
  H  1550  1  0.22949850  0.80827500  0.01485050  1
  H  1552  1  0.24710000  0.67812800  0.01188850  1
  N  17  1  0.54901800  0.40948000  0.71647550  1
  N  18  1  0.44419900  0.33087700  0.75480500  1
  N  23  1  0.36453900  0.38568900  0.68334350  1
  N  24  1  0.34416100  0.30788700  0.73183100  1
  N  25  1  0.62363850  0.44209900  0.74870950  1
  N  26  1  0.52972550  0.40002700  0.81551450  1
  N  43  1  0.38593350  0.08209200  0.52796850  1
  N  44  1  0.35983150  0.16140800  0.49121250  1
  N  49  1  0.22561200  0.10614400  0.56261500  1
  N  50  1  0.28311350  0.18430100  0.51452450  1
  N  51  1  0.42687150  0.05018100  0.49464950  1
  N  52  1  0.37156150  0.09284200  0.42917200  1
  N  69  1  0.10483100  0.40941200  0.52699200  1
  N  70  1  0.14048150  0.33182100  0.49071550  1
  N  75  1  0.26432000  0.39220800  0.56369500  1
  N  76  1  0.21736800  0.31135200  0.51597450  1
  N  77  1  0.06414200  0.44127800  0.49364600  1
  N  78  1  0.12370250  0.40025900  0.42823350  1
  N  95  1  0.94125150  0.08251400  0.71744600  1
  N  96  1  0.05356400  0.15999800  0.75472000  1
  N  101  1  0.11856550  0.09974500  0.68215850  1
  N  102  1  0.15166350  0.18049100  0.73001550  1
  N  103  1  0.86720000  0.05038000  0.75009600  1
  N  104  1  0.96420750  0.09204000  0.81632950  1
  N  121  1  0.44266350  0.58217500  0.27937000  1
  N  122  1  0.54746250  0.66077900  0.24102800  1
  N  127  1  0.62715250  0.60596600  0.31247950  1
  N  128  1  0.64750950  0.68376800  0.26399350  1
  N  129  1  0.36802550  0.54955000  0.24714700  1
  N  130  1  0.46187950  0.59162800  0.18032900  1
  N  147  1  0.60574200  0.90956300  0.46786200  1
  N  148  1  0.63183950  0.83024300  0.50461600  1
  N  153  1  0.76605500  0.88550900  0.43321500  1
  N  154  1  0.70855500  0.80735100  0.48130000  1
  N  155  1  0.56480700  0.94147500  0.50118050  1
  N  156  1  0.62010150  0.89880500  0.56666050  1
  N  173  1  0.88690950  0.58225300  0.46889400  1
  N  174  1  0.85117250  0.65983000  0.50513350  1
  N  179  1  0.72742000  0.59945100  0.43212150  1
  N  180  1  0.77433200  0.68030700  0.47984600  1
  N  181  1  0.92756000  0.55040400  0.50227150  1
  N  182  1  0.86765500  0.59134100  0.56764600  1
  N  199  1  0.05040850  0.90914400  0.27839850  1
  N  200  1  0.93810400  0.83166200  0.24111000  1
  N  205  1  0.87309150  0.89191100  0.31366900  1
  N  206  1  0.83999850  0.81116800  0.26580850  1
  N  207  1  0.12447050  0.94128600  0.24575750  1
  N  208  1  0.02751000  0.89962700  0.17951250  1
  N  433  1  0.05275950  0.40965900  0.22085600  1
  N  434  1  0.94398850  0.33005700  0.25494200  1
  N  439  1  0.86801100  0.38593000  0.18288100  1
  N  440  1  0.84599400  0.30716400  0.23033300  1
  N  441  1  0.12184900  0.44023500  0.25605050  1
  N  442  1  0.00957250  0.39728400  0.31860000  1
  N  459  1  0.88940600  0.08261100  0.02676100  1
  N  460  1  0.85969200  0.16133200  0.99096250  1
  N  465  1  0.72730100  0.10592500  0.06308000  1
  N  466  1  0.78419950  0.18437400  0.01525850  1
  N  467  1  0.92792700  0.05075300  0.99264050  1
  N  468  1  0.86044550  0.09210800  0.92851600  1
  N  485  1  0.60099350  0.40895100  0.02623700  1
  N  486  1  0.63913200  0.33141900  0.99125000  1
  N  491  1  0.76165650  0.39187400  0.06469350  1
  N  492  1  0.71531150  0.31085900  0.01707300  1
  N  493  1  0.56251350  0.44047700  0.99192050  1
  N  494  1  0.63227550  0.39946200  0.92821150  1
  N  511  1  0.43856150  0.08201900  0.22079700  1
  N  512  1  0.55399000  0.16035900  0.25458350  1
  N  517  1  0.61588450  0.09953900  0.18141000  1
  N  518  1  0.65044550  0.18084200  0.22861650  1
  N  519  1  0.36940650  0.05133900  0.25585700  1
  N  520  1  0.48179000  0.09395700  0.31850450  1
  N  537  1  0.93889400  0.58201700  0.77498100  1
  N  538  1  0.04765300  0.66162000  0.74088150  1
  N  543  1  0.12363600  0.60574800  0.81293950  1
  N  544  1  0.14566150  0.68450700  0.76548250  1
  N  545  1  0.86979400  0.55142600  0.73979900  1
  N  546  1  0.98199500  0.59438600  0.67722800  1
  N  563  1  0.10228950  0.90905100  0.96903400  1
  N  564  1  0.13197050  0.83034000  0.00487250  1
  N  569  1  0.26438600  0.88572300  0.93275450  1
  N  570  1  0.20746850  0.80728800  0.98059050  1
  N  571  1  0.06378700  0.94094800  0.00312650  1
  N  572  1  0.13115900  0.89960900  0.06729250  1
  N  589  1  0.39064650  0.58272200  0.96954500  1
  N  590  1  0.35250850  0.66023100  0.00458200  1
  N  595  1  0.22996800  0.59979500  0.93113500  1
  N  596  1  0.27631600  0.68079500  0.97877300  1
  N  597  1  0.42911950  0.55115400  0.00382750  1
  N  598  1  0.35946700  0.59213800  0.06758700  1
  N  615  1  0.55310400  0.90963400  0.77503950  1
  N  616  1  0.43767350  0.83130300  0.74123900  1
  N  621  1  0.37578250  0.89211700  0.81441600  1
  N  622  1  0.34121400  0.81082100  0.76720050  1
  N  623  1  0.62226250  0.94032700  0.73998850  1
  N  624  1  0.50991600  0.89772600  0.67732750  1
  N  834  1  0.29292750  0.38829600  0.64841250  1
  N  837  1  0.33089600  0.40902200  0.60505850  1
  N  846  1  0.15127650  0.10353300  0.59744450  1
  N  849  1  0.16861200  0.08293600  0.64084050  1
  N  858  1  0.69877700  0.60336100  0.34740650  1
  N  861  1  0.66082550  0.58263800  0.39076250  1
  N  870  1  0.84038750  0.88812300  0.39838400  1
  N  873  1  0.82304850  0.90871900  0.35498900  1
  N  930  1  0.79416300  0.38826500  0.14904200  1
  N  933  1  0.82968600  0.40929700  0.10544800  1
  N  942  1  0.65098500  0.10284800  0.09698900  1
  N  945  1  0.66698950  0.08249200  0.14066500  1
  N  954  1  0.19747200  0.60341800  0.84678650  1
  N  957  1  0.16194350  0.58237900  0.89037650  1
  N  966  1  0.34068800  0.88879900  0.89883800  1
  N  969  1  0.32467850  0.90915700  0.85516550  1
  N  1026  1  0.76570100  0.52446600  0.74953850  1
  N  1029  1  0.72614950  0.46977900  0.73683400  1
  N  1038  1  0.48833250  0.96856200  0.49133950  1
  N  1041  1  0.50334400  0.02309400  0.50449250  1
  N  1050  1  0.00372800  0.52328500  0.49187350  1
  N  1053  1  0.98802450  0.46840000  0.50403200  1
  N  1062  1  0.72595750  0.96759500  0.75019000  1
  N  1065  1  0.76469600  0.02259200  0.73827100  1
  N  1074  1  0.22596700  0.46718400  0.24631750  1
  N  1077  1  0.26552750  0.52187200  0.25902100  1
  N  1098  1  0.26569850  0.02407600  0.24566500  1
  N  1101  1  0.22696400  0.96907700  0.25758150  1
  N  1170  1  0.98815800  0.96843300  0.99173750  1
  N  1173  1  0.00358800  0.02327400  0.00401400  1
  N  1182  1  0.50393300  0.52332300  0.99194550  1
  N  1185  1  0.48765600  0.46829900  0.00378150  1
  N  1218  1  0.57174500  0.37243800  0.85287200  1
  N  1221  1  0.54127750  0.38857400  0.89583100  1
  N  1230  1  0.44366950  0.12419600  0.39288200  1
  N  1233  1  0.39922250  0.10221100  0.35080200  1
  N  1242  1  0.04976700  0.36853300  0.39274150  1
  N  1245  1  0.09320650  0.38819400  0.34989150  1
  N  1254  1  0.92663650  0.12277300  0.85370100  1
  N  1257  1  0.94887600  0.10035100  0.89556100  1
  N  1266  1  0.41983950  0.61916200  0.14295100  1
  N  1269  1  0.45039400  0.60306500  0.09999500  1
  N  1278  1  0.54800700  0.86742300  0.60295450  1
  N  1281  1  0.59241750  0.88948900  0.64501700  1
  N  1290  1  0.94182300  0.62313200  0.60308250  1
  N  1293  1  0.89837650  0.60350600  0.64594050  1
  N  1302  1  0.06510450  0.86893400  0.14212650  1
  N  1305  1  0.04278000  0.89132500  0.10026750  1
  N  1410  1  0.23284850  0.22907800  0.77031350  1
  N  1413  1  0.26762250  0.25808900  0.72954250  1
  N  1422  1  0.25015900  0.26279500  0.47579800  1
  N  1425  1  0.25624250  0.23400000  0.51666950  1
  N  1434  1  0.75881300  0.76258200  0.22551050  1
  N  1437  1  0.72404100  0.73356900  0.26628150  1
  N  1446  1  0.74150850  0.72885400  0.52002200  1
  N  1449  1  0.73543000  0.75765200  0.47915250  1
  N  1506  1  0.73237400  0.22913700  0.26874100  1
  N  1509  1  0.76816050  0.25778500  0.22789700  1
  N  1518  1  0.74896950  0.26256800  0.97688500  1
  N  1521  1  0.75603550  0.23386000  0.01768850  1
  N  1530  1  0.25928100  0.76253200  0.72707400  1
  N  1533  1  0.22349200  0.73388500  0.76791550  1
  N  1542  1  0.24267000  0.72908700  0.01896550  1
  N  1545  1  0.23560700  0.75779700  0.97816200  1
