# generated using pymatgen
data_H20C43(NO)4
_symmetry_space_group_name_H-M   'P 1'
_cell_length_a   47.10550000
_cell_length_b   53.61900000
_cell_length_c   53.61900000
_cell_angle_alpha   90.00000000
_cell_angle_beta   90.00000000
_cell_angle_gamma   90.00000000
_symmetry_Int_Tables_number   1
_chemical_formula_structural   H20C43(NO)4
_chemical_formula_sum   'H640 C1376 N128 O128'
_cell_volume   135428.17876749
_cell_formula_units_Z   32
loop_
 _symmetry_equiv_pos_site_id
 _symmetry_equiv_pos_as_xyz
  1  'x, y, z'
loop_
 _atom_site_type_symbol
 _atom_site_label
 _atom_site_symmetry_multiplicity
 _atom_site_fract_x
 _atom_site_fract_y
 _atom_site_fract_z
 _atom_site_occupancy
  H  25  1  0.17044700  0.03034500  0.23979700  1
  H  26  1  0.18606400  0.06123600  0.21175100  1
  H  27  1  0.18224800  0.14251900  0.17470100  1
  H  28  1  0.16453800  0.18353200  0.17128000  1
  H  29  1  0.12066300  0.17532300  0.23923400  1
  H  30  1  0.12351600  0.08413200  0.27974600  1
  H  31  1  0.09470600  0.10785700  0.21818400  1
  H  32  1  0.02247300  0.13310100  0.25716200  1
  H  33  1  0.05123500  0.14817700  0.28961000  1
  H  34  1  0.19452700  0.13347400  0.25860600  1
  H  35  1  0.14055000  0.16613200  0.32820100  1
  H  36  1  0.19055400  0.16977900  0.32825500  1
  H  39  1  0.19651900  0.10976800  0.20965300  1
  H  40  1  0.16763200  0.10002000  0.19073600  1
  H  42  1  0.09962300  0.16743800  0.29695200  1
  H  43  1  0.09985600  0.13759300  0.31135600  1
  H  68  1  0.17076600  0.97654700  0.68290500  1
  H  69  1  0.18631600  0.94564400  0.71095900  1
  H  70  1  0.18224800  0.86442300  0.74809800  1
  H  71  1  0.16447000  0.82343700  0.75153000  1
  H  72  1  0.12076500  0.83161700  0.68349100  1
  H  73  1  0.12371300  0.92281800  0.64297700  1
  H  74  1  0.09481000  0.89904300  0.70451500  1
  H  75  1  0.02264100  0.87373700  0.66547100  1
  H  76  1  0.05145200  0.85872500  0.63303100  1
  H  77  1  0.19469200  0.87343800  0.66419000  1
  H  78  1  0.14081400  0.84076700  0.59454300  1
  H  79  1  0.19081900  0.83709500  0.59456000  1
  H  82  1  0.19664600  0.89711300  0.71311100  1
  H  83  1  0.16776200  0.90691300  0.73200300  1
  H  85  1  0.09982600  0.83951000  0.62571100  1
  H  86  1  0.10011900  0.86936300  0.61132600  1
  H  111  1  0.17035600  0.72520900  0.98823500  1
  H  112  1  0.18601600  0.75320800  0.01914400  1
  H  113  1  0.18216400  0.79022100  0.10044400  1
  H  114  1  0.16436000  0.79365100  0.14142700  1
  H  115  1  0.12067300  0.72560400  0.13321900  1
  H  116  1  0.12356600  0.68513900  0.04202700  1
  H  117  1  0.09475900  0.74670500  0.06581600  1
  H  118  1  0.02254600  0.70785700  0.09130300  1
  H  119  1  0.05129600  0.67532200  0.10621800  1
  H  120  1  0.19457000  0.70629000  0.09140900  1
  H  121  1  0.14062700  0.63664400  0.12400000  1
  H  122  1  0.19063100  0.63663000  0.12769100  1
  H  125  1  0.19653700  0.75525400  0.06769800  1
  H  126  1  0.16763700  0.77415600  0.05795400  1
  H  128  1  0.09968200  0.66785800  0.12531200  1
  H  129  1  0.09991700  0.65350500  0.09544400  1
  H  154  1  0.17021600  0.28178200  0.93450600  1
  H  155  1  0.18590800  0.25375500  0.90363100  1
  H  156  1  0.18228100  0.21674200  0.82234100  1
  H  157  1  0.16459600  0.21329200  0.78132700  1
  H  158  1  0.12073200  0.28126400  0.78945900  1
  H  159  1  0.12354500  0.32184500  0.88062600  1
  H  160  1  0.09466900  0.26032400  0.85687900  1
  H  161  1  0.02256400  0.29936600  0.83144600  1
  H  162  1  0.05141700  0.33176500  0.81639700  1
  H  163  1  0.19461300  0.30058200  0.83136700  1
  H  164  1  0.14082900  0.37021200  0.79854300  1
  H  165  1  0.19084100  0.37016700  0.79492700  1
  H  168  1  0.19651100  0.25169800  0.85510500  1
  H  169  1  0.16760300  0.23278300  0.86480900  1
  H  171  1  0.09984600  0.33903800  0.79724500  1
  H  172  1  0.10005600  0.35347300  0.82707400  1
  H  197  1  0.84127400  0.97643200  0.23986500  1
  H  198  1  0.82570000  0.94553800  0.21180900  1
  H  199  1  0.82970800  0.86431100  0.17467000  1
  H  200  1  0.84744500  0.82331000  0.17124500  1
  H  201  1  0.89118700  0.83147900  0.23926600  1
  H  202  1  0.88826400  0.92266900  0.27980200  1
  H  203  1  0.91715900  0.89896800  0.21828600  1
  H  204  1  0.98934100  0.87374600  0.25737000  1
  H  205  1  0.96052100  0.85862800  0.28975500  1
  H  206  1  0.81726800  0.87332400  0.25859700  1
  H  207  1  0.87116400  0.84054300  0.32818000  1
  H  208  1  0.82115700  0.83689300  0.32818200  1
  H  211  1  0.81532800  0.89700600  0.20965100  1
  H  212  1  0.84422500  0.90679800  0.19076800  1
  H  214  1  0.91214400  0.83931400  0.29698600  1
  H  215  1  0.91185400  0.86913600  0.31143600  1
  H  240  1  0.84116300  0.03035100  0.68298300  1
  H  241  1  0.82558600  0.06126300  0.71101100  1
  H  242  1  0.82959400  0.14251600  0.74808200  1
  H  243  1  0.84736000  0.18350800  0.75149500  1
  H  244  1  0.89107900  0.17529400  0.68346100  1
  H  245  1  0.88813200  0.08407900  0.64298600  1
  H  246  1  0.91703600  0.10785500  0.70448500  1
  H  247  1  0.98920100  0.13296000  0.66532000  1
  H  248  1  0.96037700  0.14804600  0.63292500  1
  H  249  1  0.81713600  0.13342700  0.66418000  1
  H  250  1  0.87099000  0.16620600  0.59456900  1
  H  251  1  0.82098300  0.16985600  0.59459100  1
  H  254  1  0.81520700  0.10980600  0.71312400  1
  H  255  1  0.84410100  0.10001300  0.73201100  1
  H  257  1  0.91200600  0.16740600  0.62572200  1
  H  258  1  0.91168000  0.13757600  0.61129100  1
  H  283  1  0.84126500  0.28179000  0.98835100  1
  H  284  1  0.82560300  0.25379400  0.01926400  1
  H  285  1  0.82960800  0.21667300  0.10051200  1
  H  286  1  0.84747000  0.21319900  0.14147000  1
  H  287  1  0.89119400  0.28122500  0.13327400  1
  H  288  1  0.88822800  0.32175200  0.04211100  1
  H  289  1  0.91702100  0.26020600  0.06584100  1
  H  290  1  0.98926500  0.29913500  0.09114000  1
  H  291  1  0.96051500  0.33161200  0.10618100  1
  H  292  1  0.81722800  0.30059900  0.09150800  1
  H  293  1  0.87118700  0.37018000  0.12421000  1
  H  294  1  0.82118100  0.37018800  0.12791900  1
  H  297  1  0.81519400  0.25170900  0.06782800  1
  H  298  1  0.84403600  0.23277200  0.05802500  1
  H  300  1  0.91215700  0.33898200  0.12541700  1
  H  301  1  0.91185800  0.35338600  0.09557400  1
  H  326  1  0.84142400  0.72503800  0.93453400  1
  H  327  1  0.82572800  0.75305400  0.90366100  1
  H  328  1  0.82941700  0.79011100  0.82238900  1
  H  329  1  0.84711400  0.79357700  0.78138100  1
  H  330  1  0.89103200  0.72563200  0.78952200  1
  H  331  1  0.88823600  0.68505700  0.88068800  1
  H  332  1  0.91705300  0.74654700  0.85696100  1
  H  333  1  0.98917800  0.70747500  0.83159900  1
  H  334  1  0.96033200  0.67508700  0.81652700  1
  H  335  1  0.81712400  0.70627600  0.83141400  1
  H  336  1  0.87093300  0.63667700  0.79855800  1
  H  337  1  0.82092200  0.63671100  0.79494200  1
  H  340  1  0.81517100  0.75513100  0.85512800  1
  H  341  1  0.84405900  0.77405600  0.86485700  1
  H  343  1  0.91192600  0.66784500  0.79730100  1
  H  344  1  0.91167500  0.65340200  0.82712600  1
  H  369  1  0.83704500  0.98063500  0.68165200  1
  H  370  1  0.82287700  0.94920100  0.70974100  1
  H  371  1  0.83503900  0.86928100  0.74868600  1
  H  372  1  0.85447800  0.82881800  0.75151100  1
  H  373  1  0.89237800  0.83721600  0.68078100  1
  H  374  1  0.88512600  0.92842400  0.64099600  1
  H  375  1  0.91722000  0.90091500  0.70358600  1
  H  376  1  0.98599600  0.90087300  0.65326400  1
  H  377  1  0.95695200  0.88393800  0.62192300  1
  H  378  1  0.81690900  0.87450700  0.66438400  1
  H  379  1  0.87059100  0.84533100  0.59310500  1
  H  380  1  0.82149900  0.83652400  0.59566600  1
  H  383  1  0.81582900  0.89999400  0.71334800  1
  H  384  1  0.84487800  0.91190400  0.73075800  1
  H  386  1  0.91455800  0.85267900  0.61919600  1
  H  387  1  0.90512400  0.88220200  0.60666900  1
  H  412  1  0.83709400  0.02622800  0.24107500  1
  H  413  1  0.82287500  0.05767100  0.21300800  1
  H  414  1  0.83482000  0.13764600  0.17412500  1
  H  415  1  0.85423000  0.17811600  0.17128600  1
  H  416  1  0.89241000  0.16966000  0.24189000  1
  H  417  1  0.88517500  0.07846100  0.28171300  1
  H  418  1  0.91721800  0.10601700  0.21904700  1
  H  419  1  0.98600400  0.10579300  0.26936500  1
  H  420  1  0.95701600  0.12274700  0.30073800  1
  H  421  1  0.81696000  0.13243400  0.25838000  1
  H  422  1  0.87076500  0.16149900  0.32963100  1
  H  423  1  0.82168600  0.17037500  0.32711200  1
  H  426  1  0.81577100  0.10686900  0.20945200  1
  H  427  1  0.84479600  0.09500500  0.19197700  1
  H  429  1  0.91469200  0.15410200  0.30352100  1
  H  430  1  0.90521500  0.12457200  0.31600700  1
  H  455  1  0.83740600  0.28303400  0.93869900  1
  H  456  1  0.82310800  0.25496900  0.90729200  1
  H  457  1  0.83464400  0.21621800  0.82722100  1
  H  458  1  0.85389200  0.21340900  0.78669500  1
  H  459  1  0.89226800  0.28393500  0.79514900  1
  H  460  1  0.88519200  0.32377500  0.88634400  1
  H  461  1  0.91721800  0.26114600  0.85878700  1
  H  462  1  0.98600800  0.31145100  0.85865200  1
  H  463  1  0.95695000  0.34279800  0.84176500  1
  H  464  1  0.81687700  0.30036900  0.83251200  1
  H  465  1  0.87052700  0.37163900  0.80327500  1
  H  466  1  0.82142900  0.36907100  0.79449600  1
  H  469  1  0.81577800  0.25146900  0.85809500  1
  H  470  1  0.84485500  0.23400700  0.86988000  1
  H  472  1  0.91449200  0.34554900  0.81058000  1
  H  473  1  0.90512200  0.35807300  0.84012000  1
  H  498  1  0.83746500  0.72402300  0.98414100  1
  H  499  1  0.82317000  0.75202200  0.01562100  1
  H  500  1  0.83472900  0.79061500  0.09575200  1
  H  501  1  0.85400300  0.79335500  0.13627400  1
  H  502  1  0.89237000  0.72284400  0.12768400  1
  H  503  1  0.88524300  0.68315700  0.03640800  1
  H  504  1  0.91731200  0.74573200  0.06411000  1
  H  505  1  0.98609800  0.69541600  0.06416500  1
  H  506  1  0.95699500  0.66401100  0.08091900  1
  H  507  1  0.81695600  0.70650500  0.09034700  1
  H  508  1  0.87055500  0.63507900  0.11927700  1
  H  509  1  0.82146700  0.63765200  0.12809400  1
  H  512  1  0.81586100  0.75540900  0.06481200  1
  H  513  1  0.84492300  0.77291800  0.05307100  1
  H  515  1  0.91453500  0.66115300  0.11206300  1
  H  516  1  0.90514100  0.64877000  0.08246900  1
  H  541  1  0.17487700  0.02637100  0.68153400  1
  H  542  1  0.18899400  0.05781000  0.70964200  1
  H  543  1  0.17675700  0.13771700  0.74860900  1
  H  544  1  0.15731100  0.17817700  0.75142600  1
  H  545  1  0.11942200  0.16976600  0.68069700  1
  H  546  1  0.12672800  0.07855900  0.64090100  1
  H  547  1  0.09455300  0.10608600  0.70350000  1
  H  548  1  0.02587100  0.10590900  0.65306500  1
  H  549  1  0.05493400  0.12286700  0.62175000  1
  H  550  1  0.19490400  0.13250800  0.66431700  1
  H  551  1  0.14120700  0.16173600  0.59307100  1
  H  552  1  0.19027500  0.17062200  0.59567100  1
  H  555  1  0.19597900  0.10701000  0.71327900  1
  H  556  1  0.16693200  0.09508500  0.73068300  1
  H  558  1  0.09723000  0.15425400  0.61908800  1
  H  559  1  0.10676700  0.12475300  0.60657000  1
  H  584  1  0.17489500  0.98069100  0.24115900  1
  H  585  1  0.18911000  0.94925600  0.21309200  1
  H  586  1  0.17711400  0.86931300  0.17416100  1
  H  587  1  0.15769900  0.82884600  0.17130300  1
  H  588  1  0.11949000  0.83728900  0.24189900  1
  H  589  1  0.12669700  0.92849000  0.28171900  1
  H  590  1  0.09472700  0.90096000  0.21905700  1
  H  591  1  0.02587700  0.90111900  0.26930200  1
  H  592  1  0.05483000  0.88414900  0.30069000  1
  H  593  1  0.19494200  0.87451600  0.25845100  1
  H  594  1  0.14106900  0.84542400  0.32965000  1
  H  595  1  0.19016000  0.83659100  0.32719000  1
  H  598  1  0.19617000  0.90006100  0.20949700  1
  H  599  1  0.16715100  0.91195600  0.19203600  1
  H  601  1  0.09716000  0.85280000  0.30348200  1
  H  602  1  0.10661400  0.88231800  0.31601100  1
  H  627  1  0.17461000  0.72381400  0.93860700  1
  H  628  1  0.18894700  0.75185800  0.90718900  1
  H  629  1  0.17738800  0.79065400  0.82712800  1
  H  630  1  0.15807700  0.79350400  0.78662600  1
  H  631  1  0.11961600  0.72302000  0.79509100  1
  H  632  1  0.12670700  0.68315500  0.88626800  1
  H  633  1  0.09474200  0.74581200  0.85869500  1
  H  634  1  0.02592100  0.69553100  0.85866900  1
  H  635  1  0.05496000  0.66413900  0.84181700  1
  H  636  1  0.19503100  0.70652400  0.83237400  1
  H  637  1  0.14132100  0.63523900  0.80326000  1
  H  638  1  0.19040700  0.63780200  0.79441000  1
  H  641  1  0.19623600  0.75533600  0.85798700  1
  H  642  1  0.16722500  0.77287900  0.86977500  1
  H  644  1  0.09737500  0.66132300  0.81059300  1
  H  645  1  0.10678700  0.64886500  0.84015200  1
  H  670  1  0.17476500  0.28309500  0.98416000  1
  H  671  1  0.18896700  0.25504600  0.01561700  1
  H  672  1  0.17703200  0.21621400  0.09561300  1
  H  673  1  0.15765500  0.21340600  0.13609400  1
  H  674  1  0.11945700  0.28400200  0.12759900  1
  H  675  1  0.12666500  0.32376400  0.03636100  1
  H  676  1  0.09457700  0.26116100  0.06401600  1
  H  677  1  0.02579800  0.31148800  0.06400800  1
  H  678  1  0.05487700  0.34287800  0.08080800  1
  H  679  1  0.19490400  0.30038400  0.09033600  1
  H  680  1  0.14125000  0.37173600  0.11936500  1
  H  681  1  0.19031600  0.36913800  0.12825700  1
  H  684  1  0.19605700  0.25150800  0.06481400  1
  H  685  1  0.16703200  0.23403100  0.05295300  1
  H  687  1  0.09727600  0.34569300  0.11201400  1
  H  688  1  0.10674500  0.35811900  0.08245700  1
  H  713  1  0.67053300  0.53032500  0.73979000  1
  H  714  1  0.68608800  0.56120400  0.71170500  1
  H  715  1  0.68208200  0.64243400  0.67456100  1
  H  716  1  0.66434300  0.68343700  0.67113900  1
  H  717  1  0.62067500  0.67528300  0.73920400  1
  H  718  1  0.62362600  0.58411400  0.77975700  1
  H  719  1  0.59470400  0.60781600  0.71822700  1
  H  720  1  0.52253600  0.63299900  0.75733400  1
  H  721  1  0.55135600  0.64810800  0.78972900  1
  H  722  1  0.69458800  0.63342300  0.75848500  1
  H  723  1  0.64076400  0.66628200  0.82807600  1
  H  724  1  0.69077700  0.66994300  0.82802300  1
  H  727  1  0.69648600  0.60973900  0.70953200  1
  H  728  1  0.66756400  0.59994800  0.69067800  1
  H  730  1  0.59973700  0.66745200  0.79693200  1
  H  731  1  0.60006000  0.63763200  0.81138700  1
  H  756  1  0.67078400  0.47656000  0.18296000  1
  H  757  1  0.68627300  0.44566800  0.21105000  1
  H  758  1  0.68209300  0.36446800  0.24822900  1
  H  759  1  0.66431800  0.32347900  0.25163800  1
  H  760  1  0.62078100  0.33162900  0.18351000  1
  H  761  1  0.62379400  0.42282600  0.14298500  1
  H  762  1  0.59478600  0.39905800  0.20450400  1
  H  763  1  0.52267400  0.37379500  0.16535500  1
  H  764  1  0.55153500  0.35876600  0.13295400  1
  H  765  1  0.69472400  0.37346100  0.16431000  1
  H  766  1  0.64097000  0.34073900  0.09461200  1
  H  767  1  0.69097700  0.33706100  0.09470400  1
  H  770  1  0.69657900  0.39713700  0.21325300  1
  H  771  1  0.66765300  0.40695300  0.23208600  1
  H  773  1  0.59991800  0.33951600  0.12572100  1
  H  774  1  0.60025100  0.36935800  0.11131700  1
  H  799  1  0.67038500  0.22510700  0.48821700  1
  H  800  1  0.68605800  0.25310800  0.51912000  1
  H  801  1  0.68219900  0.29015800  0.60039700  1
  H  802  1  0.66439000  0.29361000  0.64137700  1
  H  803  1  0.62070500  0.22556000  0.63320300  1
  H  804  1  0.62358800  0.18505900  0.54202200  1
  H  805  1  0.59477800  0.24659900  0.56577700  1
  H  806  1  0.52258900  0.20775700  0.59132000  1
  H  807  1  0.55135600  0.17525100  0.60627600  1
  H  808  1  0.69462400  0.20620700  0.59133900  1
  H  809  1  0.64070500  0.13661100  0.62407000  1
  H  810  1  0.69071800  0.13658300  0.62769500  1
  H  813  1  0.69657900  0.25516900  0.56767400  1
  H  814  1  0.66768500  0.27407300  0.55791800  1
  H  816  1  0.59975400  0.16784000  0.62538100  1
  H  817  1  0.59997700  0.15343700  0.59553700  1
  H  842  1  0.67025300  0.78186400  0.43450100  1
  H  843  1  0.68593100  0.75381800  0.40363900  1
  H  844  1  0.68224300  0.71674900  0.32237800  1
  H  845  1  0.66455100  0.71328400  0.28136800  1
  H  846  1  0.62075400  0.78129400  0.28945900  1
  H  847  1  0.62359000  0.82191700  0.38060700  1
  H  848  1  0.59467000  0.76041900  0.35689600  1
  H  849  1  0.52260400  0.79949800  0.33143300  1
  H  850  1  0.55149000  0.83185800  0.31635000  1
  H  851  1  0.69466200  0.80061000  0.33140300  1
  H  852  1  0.64094000  0.87021700  0.29845000  1
  H  853  1  0.69095800  0.87015400  0.29487900  1
  H  856  1  0.69651800  0.75172400  0.35511100  1
  H  857  1  0.66760000  0.73283100  0.36483500  1
  H  859  1  0.59992400  0.83905500  0.29717300  1
  H  860  1  0.60015100  0.85353700  0.32697900  1
  H  885  1  0.34122600  0.47645000  0.73982000  1
  H  886  1  0.32570300  0.44556200  0.71173800  1
  H  887  1  0.32980900  0.36435000  0.67457200  1
  H  888  1  0.34754800  0.32334800  0.67116700  1
  H  889  1  0.39115400  0.33150200  0.73925600  1
  H  890  1  0.38816500  0.42268600  0.77980200  1
  H  891  1  0.41715100  0.39900400  0.71832000  1
  H  892  1  0.48928300  0.37380200  0.75748300  1
  H  893  1  0.46041800  0.35865300  0.78982600  1
  H  894  1  0.31720900  0.37337900  0.75850900  1
  H  895  1  0.37099300  0.34046900  0.82810200  1
  H  896  1  0.32098200  0.33683000  0.82803800  1
  H  899  1  0.31535200  0.39702900  0.70954500  1
  H  900  1  0.34428300  0.40683300  0.69070800  1
  H  902  1  0.41203500  0.33929900  0.79696500  1
  H  903  1  0.41170200  0.36910200  0.81145100  1
  H  928  1  0.34116000  0.53029900  0.18305800  1
  H  929  1  0.32565200  0.56119800  0.21113000  1
  H  930  1  0.32977100  0.64243100  0.24824400  1
  H  931  1  0.34752600  0.68343100  0.25162300  1
  H  932  1  0.39105200  0.67524900  0.18349100  1
  H  933  1  0.38803800  0.58404500  0.14300200  1
  H  934  1  0.41706200  0.60780500  0.20447400  1
  H  935  1  0.48915800  0.63287600  0.16519200  1
  H  936  1  0.46027300  0.64798100  0.13284400  1
  H  937  1  0.31709900  0.63335400  0.16433500  1
  H  938  1  0.37079100  0.66625800  0.09468500  1
  H  939  1  0.32077600  0.66991300  0.09480900  1
  H  942  1  0.31529000  0.60973700  0.21330100  1
  H  943  1  0.34423800  0.59993500  0.23211700  1
  H  945  1  0.41189500  0.66738400  0.12574900  1
  H  946  1  0.41150800  0.63756900  0.11129000  1
  H  971  1  0.34124500  0.78187700  0.48832100  1
  H  972  1  0.32557100  0.75388000  0.51922800  1
  H  973  1  0.32957700  0.71672900  0.60045900  1
  H  974  1  0.34744400  0.71323400  0.64141200  1
  H  975  1  0.39115400  0.78126900  0.63325100  1
  H  976  1  0.38820800  0.82182200  0.54209300  1
  H  977  1  0.41700000  0.76030900  0.56577900  1
  H  978  1  0.48922500  0.79919800  0.59118000  1
  H  979  1  0.46046200  0.83164500  0.60626800  1
  H  980  1  0.31717800  0.80068000  0.59143000  1
  H  981  1  0.37112700  0.87022300  0.62423700  1
  H  982  1  0.32111300  0.87025500  0.62787400  1
  H  985  1  0.31515900  0.75178500  0.56779100  1
  H  986  1  0.34399600  0.73284600  0.55798100  1
  H  988  1  0.41207300  0.83897700  0.62548700  1
  H  989  1  0.41183300  0.85344000  0.59567300  1
  H  1014  1  0.34139100  0.22497600  0.43456600  1
  H  1015  1  0.32572400  0.25302000  0.40370800  1
  H  1016  1  0.32947800  0.29013400  0.32246200  1
  H  1017  1  0.34717400  0.29360300  0.28145400  1
  H  1018  1  0.39100100  0.22561000  0.28955600  1
  H  1019  1  0.38817100  0.18499200  0.38070300  1
  H  1020  1  0.41705800  0.24644800  0.35701700  1
  H  1021  1  0.48912600  0.20733500  0.33159900  1
  H  1022  1  0.46023500  0.17500000  0.31648100  1
  H  1023  1  0.31706500  0.20627800  0.33152000  1
  H  1024  1  0.37077200  0.13674600  0.29839200  1
  H  1025  1  0.32074800  0.13682300  0.29482800  1
  H  1028  1  0.31518000  0.25514100  0.35517600  1
  H  1029  1  0.34408700  0.27403300  0.36492300  1
  H  1031  1  0.41181600  0.16787300  0.29721900  1
  H  1032  1  0.41154500  0.15334900  0.32700500  1
  H  1057  1  0.33699700  0.48061300  0.18169800  1
  H  1058  1  0.32287500  0.44918800  0.20981500  1
  H  1059  1  0.33511600  0.36928900  0.24878700  1
  H  1060  1  0.35455700  0.32882500  0.25160100  1
  H  1061  1  0.39233000  0.33719400  0.18081600  1
  H  1062  1  0.38502700  0.42838900  0.14101200  1
  H  1063  1  0.41720200  0.40091600  0.20356800  1
  H  1064  1  0.48591400  0.40081900  0.15318200  1
  H  1065  1  0.45683000  0.38385400  0.12188200  1
  H  1066  1  0.31684200  0.37452600  0.16448700  1
  H  1067  1  0.37041100  0.34520000  0.09320600  1
  H  1068  1  0.32130900  0.33643100  0.09582700  1
  H  1071  1  0.31584000  0.39998500  0.21345800  1
  H  1072  1  0.34491700  0.41190600  0.23082500  1
  H  1074  1  0.41442700  0.35258800  0.11923600  1
  H  1075  1  0.40497400  0.38209600  0.10668200  1
  H  1100  1  0.33709200  0.52622400  0.74098000  1
  H  1101  1  0.32292800  0.55765300  0.71287600  1
  H  1102  1  0.33493300  0.63761700  0.67398500  1
  H  1103  1  0.35432600  0.67809700  0.67117000  1
  H  1104  1  0.39234700  0.66967500  0.74184300  1
  H  1105  1  0.38507000  0.57848500  0.78168200  1
  H  1106  1  0.41721900  0.60601400  0.71904900  1
  H  1107  1  0.48592000  0.60583400  0.76945600  1
  H  1108  1  0.45687900  0.62281100  0.80077900  1
  H  1109  1  0.31689300  0.63239100  0.75823700  1
  H  1110  1  0.37054900  0.66156600  0.82952800  1
  H  1111  1  0.32146400  0.67040200  0.82693800  1
  H  1114  1  0.31581700  0.60684400  0.70928600  1
  H  1115  1  0.34488800  0.59498500  0.69186800  1
  H  1117  1  0.41453600  0.65417100  0.80347200  1
  H  1118  1  0.40505500  0.62465300  0.81598300  1
  H  1143  1  0.33738100  0.78312900  0.43868000  1
  H  1144  1  0.32306200  0.75506600  0.40728100  1
  H  1145  1  0.33457900  0.71628100  0.32722900  1
  H  1146  1  0.35383600  0.71344300  0.28670800  1
  H  1147  1  0.39223900  0.78395900  0.29513000  1
  H  1148  1  0.38517600  0.82384200  0.38630900  1
  H  1149  1  0.41719400  0.76124300  0.35879100  1
  H  1150  1  0.48596900  0.81156800  0.35854600  1
  H  1151  1  0.45689000  0.84287800  0.34161400  1
  H  1152  1  0.31680800  0.80043400  0.33255700  1
  H  1153  1  0.37042400  0.87165300  0.30315000  1
  H  1154  1  0.32130900  0.86908500  0.29444200  1
  H  1157  1  0.31572100  0.75156000  0.35808200  1
  H  1158  1  0.34478600  0.73408700  0.36987600  1
  H  1160  1  0.41440800  0.84555800  0.31044000  1
  H  1161  1  0.40506100  0.85813800  0.33996100  1
  H  1186  1  0.33745500  0.22397100  0.48415500  1
  H  1187  1  0.32317300  0.25198700  0.51562300  1
  H  1188  1  0.33475900  0.29061100  0.59573300  1
  H  1189  1  0.35403500  0.29336000  0.63625200  1
  H  1190  1  0.39234900  0.22282400  0.62770100  1
  H  1191  1  0.38520800  0.18310200  0.53644000  1
  H  1192  1  0.41731500  0.24564800  0.56409600  1
  H  1193  1  0.48606700  0.19530000  0.56426800  1
  H  1194  1  0.45693200  0.16393300  0.58105300  1
  H  1195  1  0.31690800  0.20649400  0.59031100  1
  H  1196  1  0.37043900  0.13508900  0.61938500  1
  H  1197  1  0.32134100  0.13769100  0.62815200  1
  H  1200  1  0.31586300  0.25539400  0.56481300  1
  H  1201  1  0.34493700  0.27288600  0.55306300  1
  H  1203  1  0.41444900  0.16114500  0.61217600  1
  H  1204  1  0.40506500  0.14872100  0.58259700  1
  H  1229  1  0.67489600  0.52636200  0.18160000  1
  H  1230  1  0.68896400  0.55778900  0.20973900  1
  H  1231  1  0.67666400  0.63768800  0.24871800  1
  H  1232  1  0.65722300  0.67815100  0.25151300  1
  H  1233  1  0.61946900  0.66976400  0.18072600  1
  H  1234  1  0.62682500  0.57856900  0.14091900  1
  H  1235  1  0.59456600  0.60605500  0.20348000  1
  H  1236  1  0.52594700  0.60594400  0.15298100  1
  H  1237  1  0.55505400  0.62293600  0.12171000  1
  H  1238  1  0.69496800  0.63244200  0.16442400  1
  H  1239  1  0.64139500  0.66183600  0.09317700  1
  H  1240  1  0.69047400  0.67068200  0.09584400  1
  H  1243  1  0.69594900  0.60698600  0.21340700  1
  H  1244  1  0.66686500  0.59505900  0.23076300  1
  H  1246  1  0.59736600  0.65432800  0.11913800  1
  H  1247  1  0.60691000  0.62484400  0.10658300  1
  H  1272  1  0.67486600  0.48071000  0.74104700  1
  H  1273  1  0.68900700  0.44930000  0.71292400  1
  H  1274  1  0.67693600  0.36936500  0.67397400  1
  H  1275  1  0.65755000  0.32888500  0.67115000  1
  H  1276  1  0.61955000  0.33728100  0.74183900  1
  H  1277  1  0.62680800  0.42846400  0.78168200  1
  H  1278  1  0.59470600  0.40099400  0.71906200  1
  H  1279  1  0.52594900  0.40103500  0.76940200  1
  H  1280  1  0.55497400  0.38402800  0.80072500  1
  H  1281  1  0.69500600  0.37460200  0.75825900  1
  H  1282  1  0.64132700  0.34528800  0.82948200  1
  H  1283  1  0.69043100  0.33650400  0.82691400  1
  H  1286  1  0.69607600  0.40011400  0.70927400  1
  H  1287  1  0.66699300  0.41200100  0.69189300  1
  H  1289  1  0.59734000  0.35269000  0.80339800  1
  H  1290  1  0.60679600  0.38218900  0.81597000  1
  H  1315  1  0.67461200  0.22372800  0.43860400  1
  H  1316  1  0.68897100  0.25177100  0.40719100  1
  H  1317  1  0.67745400  0.29057800  0.32713600  1
  H  1318  1  0.65813800  0.29344800  0.28663700  1
  H  1319  1  0.61964800  0.22297300  0.29507800  1
  H  1320  1  0.62671900  0.18308000  0.38624500  1
  H  1321  1  0.59476700  0.24571300  0.35870300  1
  H  1322  1  0.52595600  0.19542300  0.35856900  1
  H  1323  1  0.55501000  0.16406000  0.34168300  1
  H  1324  1  0.69509500  0.20644400  0.33242900  1
  H  1325  1  0.64141600  0.13518600  0.30320400  1
  H  1326  1  0.69052500  0.13772700  0.29444200  1
  H  1329  1  0.69628200  0.25524300  0.35798900  1
  H  1330  1  0.66727900  0.27279900  0.36977400  1
  H  1332  1  0.59745900  0.16129500  0.31048100  1
  H  1333  1  0.60682300  0.14878900  0.34003000  1
  H  1358  1  0.67473000  0.78313100  0.48412900  1
  H  1359  1  0.68891400  0.75505900  0.51557300  1
  H  1360  1  0.67697600  0.71622300  0.59557000  1
  H  1361  1  0.65761400  0.71342400  0.63605800  1
  H  1362  1  0.61947400  0.78404600  0.62758000  1
  H  1363  1  0.62669600  0.82382500  0.53635600  1
  H  1364  1  0.59456400  0.76126500  0.56395500  1
  H  1365  1  0.52581100  0.81162100  0.56413000  1
  H  1366  1  0.55493300  0.84296400  0.58096700  1
  H  1367  1  0.69494900  0.80038800  0.59022900  1
  H  1368  1  0.64139900  0.87171100  0.61946900  1
  H  1369  1  0.69048400  0.86906900  0.62828800  1
  H  1372  1  0.69602300  0.75150400  0.56476600  1
  H  1373  1  0.66697300  0.73405500  0.55291200  1
  H  1375  1  0.59738500  0.84568700  0.61213400  1
  H  1376  1  0.60681100  0.85818200  0.58259600  1
  H  1389  1  0.21766900  0.01034300  0.31077000  1
  H  1390  1  0.06814800  0.00193000  0.22866100  1
  H  1403  1  0.21784300  0.99677500  0.61207400  1
  H  1404  1  0.06789200  0.00488200  0.69361400  1
  H  1417  1  0.21800900  0.65526900  0.96813800  1
  H  1418  1  0.06800900  0.73606500  0.95991300  1
  H  1431  1  0.21756500  0.35290300  0.95439800  1
  H  1432  1  0.06818600  0.27070200  0.96289900  1
  H  1445  1  0.79413700  0.99676900  0.31069200  1
  H  1446  1  0.94385200  0.00472900  0.22889600  1
  H  1459  1  0.79399500  0.01015200  0.61222300  1
  H  1460  1  0.94405600  0.00208300  0.69368700  1
  H  1473  1  0.79384000  0.35171800  0.96799400  1
  H  1474  1  0.94378200  0.27079900  0.96018400  1
  H  1487  1  0.79426000  0.65411900  0.95485500  1
  H  1488  1  0.94383700  0.73615700  0.96259100  1
  H  1501  1  0.71782900  0.51026100  0.81065100  1
  H  1502  1  0.56815500  0.50198200  0.72874500  1
  H  1515  1  0.71797600  0.49678100  0.11218800  1
  H  1516  1  0.56789200  0.50488800  0.19354100  1
  H  1529  1  0.71800400  0.15516400  0.46810800  1
  H  1530  1  0.56803200  0.23599800  0.45991900  1
  H  1543  1  0.71761500  0.85294000  0.45442300  1
  H  1544  1  0.56818200  0.77080700  0.46284500  1
  H  1557  1  0.29399300  0.49681400  0.81056900  1
  H  1558  1  0.44384600  0.50471500  0.72896300  1
  H  1571  1  0.29385800  0.51013800  0.11233900  1
  H  1572  1  0.44405000  0.50202700  0.19361200  1
  H  1585  1  0.29384500  0.85181900  0.46797000  1
  H  1586  1  0.44375500  0.77085900  0.46015900  1
  H  1599  1  0.29420100  0.15408700  0.45489600  1
  H  1600  1  0.44382700  0.23605600  0.46259500  1
  H  1613  1  0.25609800  0.10736200  0.35896400  1
  H  1614  1  0.25559700  0.21675100  0.24608400  1
  H  1627  1  0.25633500  0.89992300  0.56418600  1
  H  1628  1  0.25574500  0.78983000  0.67641500  1
  H  1641  1  0.25615500  0.60599000  0.06530400  1
  H  1642  1  0.25557300  0.71863700  0.17491700  1
  H  1655  1  0.25628900  0.40073800  0.85756300  1
  H  1656  1  0.25559000  0.28835700  0.74765300  1
  H  1669  1  0.75575700  0.89965100  0.35875100  1
  H  1670  1  0.75606100  0.78987100  0.24623000  1
  H  1683  1  0.75558100  0.10690000  0.56416400  1
  H  1684  1  0.75598200  0.21708000  0.67628400  1
  H  1697  1  0.75578700  0.40073100  0.06520800  1
  H  1698  1  0.75613900  0.28840500  0.17518600  1
  H  1711  1  0.75549600  0.60607200  0.85753900  1
  H  1712  1  0.75612400  0.71853400  0.74772200  1
  H  1725  1  0.75561700  0.89885600  0.56481500  1
  H  1726  1  0.75605600  0.78918800  0.67736600  1
  H  1739  1  0.75572500  0.10783300  0.35778200  1
  H  1740  1  0.75616700  0.21784100  0.24551700  1
  H  1753  1  0.75554700  0.39982300  0.85691400  1
  H  1754  1  0.75613700  0.28761300  0.74690300  1
  H  1767  1  0.75539200  0.60690200  0.06605700  1
  H  1768  1  0.75639000  0.71950800  0.17569000  1
  H  1781  1  0.25601100  0.10790000  0.56496700  1
  H  1782  1  0.25591900  0.21797900  0.67715200  1
  H  1795  1  0.25619300  0.89891100  0.35803200  1
  H  1796  1  0.25569200  0.78926800  0.24543300  1
  H  1809  1  0.25630100  0.60712000  0.85686600  1
  H  1810  1  0.25574900  0.71926300  0.74675000  1
  H  1823  1  0.25621400  0.39990700  0.06597700  1
  H  1824  1  0.25561800  0.28755300  0.17585700  1
  H  1837  1  0.20977900  0.25245300  0.19923000  1
  H  1838  1  0.05838100  0.18920200  0.15081200  1
  H  1851  1  0.20998300  0.75477300  0.72349700  1
  H  1852  1  0.05818000  0.81741000  0.77196700  1
  H  1865  1  0.21003700  0.76623600  0.20961800  1
  H  1866  1  0.05853000  0.81428200  0.14715600  1
  H  1879  1  0.20970000  0.24123200  0.71203700  1
  H  1880  1  0.05857500  0.19283600  0.77575600  1
  H  1893  1  0.80200000  0.75451400  0.19948300  1
  H  1894  1  0.95339400  0.81750500  0.15062500  1
  H  1907  1  0.80191700  0.25223100  0.72353200  1
  H  1908  1  0.95368700  0.18953000  0.77187400  1
  H  1921  1  0.80179600  0.24059400  0.20960800  1
  H  1922  1  0.95335400  0.19253100  0.14713000  1
  H  1935  1  0.80214000  0.76572800  0.71197700  1
  H  1936  1  0.95314800  0.81402100  0.77595000  1
  H  1949  1  0.70975000  0.75230400  0.69923900  1
  H  1950  1  0.55822800  0.68938000  0.65072600  1
  H  1963  1  0.70998500  0.25485400  0.22344100  1
  H  1964  1  0.55815600  0.31731700  0.27207100  1
  H  1977  1  0.71005500  0.26631000  0.70959000  1
  H  1978  1  0.55849300  0.31416800  0.64707100  1
  H  1991  1  0.70969900  0.74119600  0.21207200  1
  H  1992  1  0.55853400  0.69287900  0.27578300  1
  H  2005  1  0.30200700  0.25457000  0.69948500  1
  H  2006  1  0.45343800  0.31746900  0.65059400  1
  H  2019  1  0.30191400  0.75211600  0.22348200  1
  H  2020  1  0.45372000  0.68960400  0.27198400  1
  H  2033  1  0.30177000  0.74055100  0.70956900  1
  H  2034  1  0.45337400  0.69261800  0.64706700  1
  H  2047  1  0.30213500  0.26574500  0.21205000  1
  H  2048  1  0.45319100  0.31398600  0.27597500  1
  H  2061  1  0.01983500  0.03709900  0.25837700  1
  H  2062  1  0.99187000  0.17711900  0.19674500  1
  H  2075  1  0.01975400  0.96953700  0.66409100  1
  H  2076  1  0.99172300  0.82986200  0.72651600  1
  H  2089  1  0.01971300  0.70561500  0.99593400  1
  H  2090  1  0.99196500  0.76793100  0.13527600  1
  H  2103  1  0.01970400  0.30043600  0.92771600  1
  H  2104  1  0.99195900  0.23929800  0.78748900  1
  H  2117  1  0.99209100  0.96982800  0.25835200  1
  H  2118  1  0.02017800  0.82980300  0.19683500  1
  H  2131  1  0.99212000  0.03723500  0.66402600  1
  H  2132  1  0.01992800  0.17708000  0.72618100  1
  H  2145  1  0.99219700  0.30116400  0.99575700  1
  H  2146  1  0.01980500  0.23902500  0.13516300  1
  H  2159  1  0.99255800  0.70663900  0.92784800  1
  H  2160  1  0.01955600  0.76779500  0.78758800  1
  H  2173  1  0.51973400  0.53706300  0.75848500  1
  H  2174  1  0.49196000  0.67711600  0.69685300  1
  H  2187  1  0.51967000  0.46954200  0.16399000  1
  H  2188  1  0.49176400  0.32986100  0.22644800  1
  H  2201  1  0.51967400  0.20539700  0.49597300  1
  H  2202  1  0.49202600  0.26791100  0.63524500  1
  H  2215  1  0.51964700  0.80063400  0.42768000  1
  H  2216  1  0.49199800  0.73936800  0.28749300  1
  H  2229  1  0.49214200  0.46982200  0.75852200  1
  H  2230  1  0.52009900  0.32983600  0.69685900  1
  H  2243  1  0.49220600  0.53720300  0.16391600  1
  H  2244  1  0.51988400  0.67705300  0.22611200  1
  H  2257  1  0.49219300  0.80143800  0.49580700  1
  H  2258  1  0.51976100  0.73900100  0.63508800  1
  H  2271  1  0.49265000  0.20643800  0.42783100  1
  H  2272  1  0.51949200  0.26773000  0.28760500  1
  C  1  1  0.15244000  0.13768000  0.27250800  1
  C  2  1  0.13734600  0.14763100  0.29320200  1
  C  3  1  0.09059700  0.13763900  0.27329700  1
  C  4  1  0.10398600  0.12644200  0.25233400  1
  C  5  1  0.08586400  0.11654300  0.23328300  1
  C  6  1  0.05580600  0.11874900  0.23448400  1
  C  7  1  0.04392000  0.13091100  0.25539400  1
  C  8  1  0.06087600  0.13984700  0.27463600  1
  C  9  1  0.15159800  0.15887700  0.31342400  1
  C  10  1  0.18105700  0.16109700  0.31340000  1
  C  11  1  0.19720600  0.15185400  0.29333100  1
  C  12  1  0.18274600  0.14017100  0.27314400  1
  C  13  1  0.14566500  0.09885900  0.24837300  1
  C  14  1  0.16370100  0.09137900  0.22844900  1
  C  15  1  0.16161500  0.13386200  0.20889800  1
  C  16  1  0.14360100  0.14289500  0.22814100  1
  C  17  1  0.16933400  0.14910900  0.18859400  1
  C  18  1  0.15893400  0.17335000  0.18665800  1
  C  19  1  0.14096800  0.18342500  0.20515500  1
  C  20  1  0.13366400  0.16807600  0.22579700  1
  C  21  1  0.13689200  0.07966800  0.26541500  1
  C  22  1  0.14536100  0.05427100  0.26260800  1
  C  23  1  0.16385600  0.04832100  0.24277200  1
  C  24  1  0.17312000  0.06653900  0.22616800  1
  C  37  1  0.13637000  0.12622400  0.25043700  1
  C  38  1  0.17335000  0.10844000  0.20866800  1
  C  41  1  0.10621100  0.14796600  0.29467300  1
  C  44  1  0.15262400  0.86924200  0.65023900  1
  C  45  1  0.13756100  0.85927500  0.62953400  1
  C  46  1  0.09078500  0.86930200  0.64937200  1
  C  47  1  0.10414200  0.88050100  0.67035200  1
  C  48  1  0.08599200  0.89038200  0.68939200  1
  C  49  1  0.05593900  0.88816400  0.68814900  1
  C  50  1  0.04408300  0.87596300  0.66725000  1
  C  51  1  0.06106800  0.86706500  0.64801100  1
  C  52  1  0.15184200  0.84802000  0.60933400  1
  C  53  1  0.18129800  0.84578200  0.60940100  1
  C  54  1  0.19741600  0.85502700  0.62948700  1
  C  55  1  0.18293000  0.86673500  0.64964400  1
  C  56  1  0.14582900  0.90807100  0.67436000  1
  C  57  1  0.16387400  0.91553300  0.69428500  1
  C  58  1  0.16169900  0.87306900  0.71385900  1
  C  59  1  0.14371100  0.86403700  0.69459700  1
  C  60  1  0.16935000  0.85783600  0.73419300  1
  C  61  1  0.15891300  0.83360900  0.73613600  1
  C  62  1  0.14099000  0.82352700  0.71760700  1
  C  63  1  0.13375200  0.83886300  0.69693900  1
  C  64  1  0.13707400  0.92727400  0.65732300  1
  C  65  1  0.14558900  0.95266000  0.66012000  1
  C  66  1  0.16412100  0.95858300  0.67994000  1
  C  67  1  0.17332200  0.94036200  0.69656800  1
  C  80  1  0.13652400  0.88070800  0.67228800  1
  C  81  1  0.17348000  0.89847400  0.71408100  1
  C  84  1  0.10643000  0.85897500  0.62801200  1
  C  87  1  0.15249400  0.69235500  0.09558000  1
  C  88  1  0.13740600  0.67165300  0.10552300  1
  C  89  1  0.09065000  0.69156400  0.09555100  1
  C  90  1  0.10403800  0.71252500  0.08434700  1
  C  91  1  0.08591800  0.73159700  0.07448900  1
  C  92  1  0.05586700  0.73042600  0.07676000  1
  C  93  1  0.04398400  0.70956700  0.08900800  1
  C  94  1  0.06093500  0.69027700  0.09785400  1
  C  95  1  0.15166900  0.65143500  0.11676400  1
  C  96  1  0.18112700  0.65147600  0.11899800  1
  C  97  1  0.19726800  0.67155800  0.10977100  1
  C  98  1  0.18279800  0.69173800  0.09808600  1
  C  99  1  0.14571800  0.71650300  0.05676800  1
  C  100  1  0.16373600  0.73644400  0.04929700  1
  C  101  1  0.16162700  0.75598000  0.09178700  1
  C  102  1  0.14363700  0.73671600  0.10081200  1
  C  103  1  0.16928400  0.77630300  0.10703400  1
  C  104  1  0.15883500  0.77824300  0.13125900  1
  C  105  1  0.14091600  0.75971000  0.14132900  1
  C  106  1  0.13367600  0.73904700  0.12598600  1
  C  107  1  0.13694500  0.69947200  0.03756900  1
  C  108  1  0.14539800  0.70229700  0.01217100  1
  C  109  1  0.16382100  0.72218600  0.00621700  1
  C  110  1  0.17311100  0.73876600  0.02444800  1
  C  123  1  0.13642100  0.71442600  0.08413000  1
  C  124  1  0.17336900  0.75622400  0.06636700  1
  C  127  1  0.10627000  0.67017100  0.10584300  1
  C  130  1  0.15256100  0.31454700  0.82710000  1
  C  131  1  0.13752800  0.33525200  0.81710400  1
  C  132  1  0.09072300  0.31542700  0.82705700  1
  C  133  1  0.10405100  0.29445500  0.83829800  1
  C  134  1  0.08587300  0.27544300  0.84819200  1
  C  135  1  0.05581900  0.27671300  0.84597800  1
  C  136  1  0.04400000  0.29758800  0.83370600  1
  C  137  1  0.06101100  0.31679600  0.82478000  1
  C  138  1  0.15183800  0.35543500  0.80584300  1
  C  139  1  0.18129700  0.35534600  0.80362900  1
  C  140  1  0.19738800  0.33526400  0.81292200  1
  C  141  1  0.18287200  0.31512900  0.82463800  1
  C  142  1  0.14567700  0.29044500  0.86593500  1
  C  143  1  0.16366100  0.27049500  0.87344800  1
  C  144  1  0.16164800  0.25094800  0.83096300  1
  C  145  1  0.14365300  0.27019300  0.82190600  1
  C  146  1  0.16937700  0.23063500  0.81573300  1
  C  147  1  0.15899700  0.22868400  0.79148800  1
  C  148  1  0.14104100  0.24717900  0.78139300  1
  C  149  1  0.13373100  0.26783400  0.79672100  1
  C  150  1  0.13688900  0.30749700  0.88511300  1
  C  151  1  0.14527000  0.30466200  0.91053100  1
  C  152  1  0.16369600  0.28478700  0.91651400  1
  C  153  1  0.17298200  0.26817700  0.89831200  1
  C  166  1  0.13643100  0.29250800  0.83855500  1
  C  167  1  0.17334000  0.25071700  0.85639900  1
  C  170  1  0.10639700  0.33677000  0.81672900  1
  C  173  1  0.85934000  0.86909500  0.27252500  1
  C  174  1  0.87440800  0.85909800  0.29321300  1
  C  175  1  0.92118400  0.86915800  0.27339200  1
  C  176  1  0.90782400  0.88036300  0.25241800  1
  C  177  1  0.92597700  0.89028100  0.23339700  1
  C  178  1  0.95603300  0.88809500  0.23465200  1
  C  179  1  0.96789400  0.87591500  0.25556200  1
  C  180  1  0.95090400  0.86696100  0.27477000  1
  C  181  1  0.86013400  0.84780600  0.31339600  1
  C  182  1  0.83067400  0.84559700  0.31334800  1
  C  183  1  0.81455100  0.85487400  0.29328000  1
  C  184  1  0.82903300  0.86659900  0.27312900  1
  C  185  1  0.86613700  0.90793500  0.24841900  1
  C  186  1  0.84810500  0.91541000  0.22849000  1
  C  187  1  0.85026200  0.87294600  0.20890900  1
  C  188  1  0.86825100  0.86390800  0.22816700  1
  C  189  1  0.84260100  0.85771600  0.18857700  1
  C  190  1  0.85300700  0.83347900  0.18663900  1
  C  191  1  0.87091800  0.82338500  0.20517000  1
  C  192  1  0.87819700  0.83872900  0.22582100  1
  C  193  1  0.87490000  0.92713000  0.26546000  1
  C  194  1  0.86639600  0.95252000  0.26266800  1
  C  195  1  0.84789300  0.95846200  0.24283500  1
  C  196  1  0.83868000  0.94024700  0.22620700  1
  C  209  1  0.87544200  0.88057000  0.25048000  1
  C  210  1  0.83849700  0.89835700  0.20868900  1
  C  213  1  0.90554000  0.85878500  0.29472900  1
  C  216  1  0.85920400  0.13767200  0.65023800  1
  C  217  1  0.87425700  0.14764700  0.62953200  1
  C  218  1  0.92104400  0.13757400  0.64933100  1
  C  219  1  0.90769500  0.12640200  0.67032700  1
  C  220  1  0.92585200  0.11651100  0.68935600  1
  C  221  1  0.95591000  0.11868800  0.68809700  1
  C  222  1  0.96775800  0.13080600  0.66714200  1
  C  223  1  0.95076400  0.13973800  0.64792500  1
  C  224  1  0.85997000  0.15893700  0.60935500  1
  C  225  1  0.83051100  0.16116300  0.60942600  1
  C  226  1  0.81440000  0.15187600  0.62949700  1
  C  227  1  0.82889500  0.14015700  0.64964300  1
  C  228  1  0.86600500  0.09884000  0.67435600  1
  C  229  1  0.84797100  0.09138100  0.69429100  1
  C  230  1  0.85015400  0.13385200  0.71385300  1
  C  231  1  0.86814100  0.14287500  0.69458800  1
  C  232  1  0.84249400  0.14909700  0.73417600  1
  C  233  1  0.85293100  0.17332500  0.73610800  1
  C  234  1  0.87087700  0.18338700  0.71758900  1
  C  235  1  0.87810400  0.16805000  0.69691900  1
  C  236  1  0.87476700  0.07963000  0.65733000  1
  C  237  1  0.86626900  0.05424100  0.66014600  1
  C  238  1  0.84775100  0.04832200  0.67997700  1
  C  239  1  0.83852200  0.06655200  0.69658300  1
  C  252  1  0.87531400  0.12620100  0.67227800  1
  C  253  1  0.83837400  0.10844700  0.71408600  1
  C  256  1  0.90538700  0.14794100  0.62799500  1
  C  259  1  0.85930800  0.31451900  0.09569800  1
  C  260  1  0.87439900  0.33520400  0.10567000  1
  C  261  1  0.92115000  0.31533000  0.09560500  1
  C  262  1  0.90775600  0.29437100  0.08440500  1
  C  263  1  0.92586900  0.27531800  0.07450000  1
  C  264  1  0.95592700  0.27653100  0.07668600  1
  C  265  1  0.96782200  0.29740000  0.08890300  1
  C  266  1  0.95087000  0.31665300  0.09782700  1
  C  267  1  0.86014200  0.35539800  0.11696100  1
  C  268  1  0.83068500  0.35535300  0.11920900  1
  C  269  1  0.81454200  0.33529000  0.10994200  1
  C  270  1  0.82900600  0.31513400  0.09821300  1
  C  271  1  0.86605200  0.29040300  0.05685700  1
  C  272  1  0.84799900  0.27048200  0.04939200  1
  C  273  1  0.85015200  0.25091300  0.09186300  1
  C  274  1  0.86817100  0.27015800  0.10088400  1
  C  275  1  0.84251100  0.23057700  0.10709700  1
  C  276  1  0.85299400  0.22860900  0.13130800  1
  C  277  1  0.87091400  0.24714000  0.14139000  1
  C  278  1  0.87816800  0.26779700  0.12604500  1
  C  279  1  0.87483200  0.30742800  0.03765600  1
  C  280  1  0.86635400  0.30461800  0.01226200  1
  C  281  1  0.84785000  0.28478500  0.00632500  1
  C  282  1  0.83858600  0.26818800  0.02455200  1
  C  295  1  0.87537400  0.29246200  0.08421500  1
  C  296  1  0.83835700  0.25070800  0.06646200  1
  C  299  1  0.90553400  0.33670000  0.10595400  1
  C  302  1  0.85918000  0.69232500  0.82714300  1
  C  303  1  0.87422100  0.67163500  0.81712400  1
  C  304  1  0.92101800  0.69144700  0.82713000  1
  C  305  1  0.90768400  0.71242300  0.83835600  1
  C  306  1  0.92585400  0.73143600  0.84825700  1
  C  307  1  0.95590600  0.73017700  0.84603200  1
  C  308  1  0.96773700  0.70927100  0.83382500  1
  C  309  1  0.95073000  0.69006900  0.82488300  1
  C  310  1  0.85991900  0.65145200  0.80585800  1
  C  311  1  0.83046000  0.65152800  0.80365300  1
  C  312  1  0.81436200  0.67160500  0.81294700  1
  C  313  1  0.82887200  0.69173800  0.82467400  1
  C  314  1  0.86604200  0.71641600  0.86598200  1
  C  315  1  0.84801400  0.73633900  0.87348300  1
  C  316  1  0.85005200  0.75590500  0.83100700  1
  C  317  1  0.86807700  0.73667900  0.82195800  1
  C  318  1  0.84230800  0.77621300  0.81577600  1
  C  319  1  0.85270300  0.77817500  0.79153600  1
  C  320  1  0.87065700  0.75968000  0.78143400  1
  C  321  1  0.87800600  0.73904700  0.79677700  1
  C  322  1  0.87484300  0.69937300  0.88516400  1
  C  323  1  0.86637700  0.70215000  0.91056500  1
  C  324  1  0.84795200  0.72203100  0.91654600  1
  C  325  1  0.83867300  0.73864300  0.89834200  1
  C  338  1  0.87530200  0.71436400  0.83860500  1
  C  339  1  0.83834000  0.75612200  0.85643700  1
  C  342  1  0.90535100  0.67010900  0.81677900  1
  C  345  1  0.85859000  0.87318800  0.64902900  1
  C  346  1  0.87351000  0.86483300  0.62755200  1
  C  347  1  0.91928600  0.88243700  0.64368200  1
  C  348  1  0.90681000  0.88815500  0.66711800  1
  C  349  1  0.92524300  0.89751700  0.68619100  1
  C  350  1  0.95451700  0.90230500  0.68178200  1
  C  351  1  0.96511100  0.89792400  0.65750900  1
  C  352  1  0.94800200  0.88784500  0.63889600  1
  C  353  1  0.85970300  0.85130600  0.60852800  1
  C  354  1  0.83077600  0.84606900  0.61009300  1
  C  355  1  0.81451700  0.85482500  0.63033000  1
  C  356  1  0.82866600  0.86817900  0.64966300  1
  C  357  1  0.86379600  0.91278800  0.67241800  1
  C  358  1  0.84611400  0.91975800  0.69274100  1
  C  359  1  0.85254200  0.87798900  0.71318200  1
  C  360  1  0.86963600  0.86925300  0.69315700  1
  C  361  1  0.84733700  0.86295900  0.73424700  1
  C  362  1  0.85884500  0.83908800  0.73588100  1
  C  363  1  0.87538000  0.82913700  0.71631100  1
  C  364  1  0.88053200  0.84436300  0.69507600  1
  C  365  1  0.87156500  0.93230900  0.65535100  1
  C  366  1  0.86248100  0.95746600  0.65841400  1
  C  367  1  0.84383000  0.96278700  0.67831000  1
  C  368  1  0.83545500  0.94423400  0.69496200  1
  C  381  1  0.87468400  0.88587000  0.67041100  1
  C  382  1  0.83886400  0.90268700  0.71329700  1
  C  385  1  0.90371700  0.87029800  0.62322100  1
  C  388  1  0.85866000  0.13369000  0.27370000  1
  C  389  1  0.87361600  0.14201200  0.29517000  1
  C  390  1  0.91935200  0.12437600  0.27898700  1
  C  391  1  0.90684800  0.11872700  0.25554400  1
  C  392  1  0.92525500  0.10937200  0.23644400  1
  C  393  1  0.95451100  0.10451000  0.24084600  1
  C  394  1  0.96513200  0.10881400  0.26512000  1
  C  395  1  0.94806000  0.11891100  0.28375000  1
  C  396  1  0.85985100  0.15554900  0.31421100  1
  C  397  1  0.83093300  0.16082800  0.31267100  1
  C  398  1  0.81464000  0.15210900  0.29243900  1
  C  399  1  0.82874400  0.13874000  0.27309200  1
  C  400  1  0.86383400  0.09409100  0.25029400  1
  C  401  1  0.84612700  0.08711800  0.22998700  1
  C  402  1  0.85246100  0.12890800  0.20956900  1
  C  403  1  0.86961900  0.13763300  0.22955500  1
  C  404  1  0.84716700  0.14395700  0.18853400  1
  C  405  1  0.85865600  0.16783500  0.18689300  1
  C  406  1  0.87528500  0.17776500  0.20641200  1
  C  407  1  0.88051300  0.16252300  0.22762100  1
  C  408  1  0.87164400  0.07456600  0.26734200  1
  C  409  1  0.86256200  0.04940600  0.26428300  1
  C  410  1  0.84390200  0.04407400  0.24440000  1
  C  411  1  0.83553300  0.06262200  0.22773800  1
  C  424  1  0.87471800  0.12101200  0.25229100  1
  C  425  1  0.83881100  0.10419800  0.20945600  1
  C  428  1  0.90381600  0.13650300  0.29947600  1
  C  431  1  0.85855400  0.31572800  0.83116400  1
  C  432  1  0.87346300  0.33720300  0.82279600  1
  C  433  1  0.91926900  0.32105600  0.84032700  1
  C  434  1  0.90679500  0.29762000  0.84605400  1
  C  435  1  0.92524100  0.27853900  0.85538900  1
  C  436  1  0.95452000  0.28294400  0.86015900  1
  C  437  1  0.96511500  0.30721200  0.85575400  1
  C  438  1  0.94800700  0.32582100  0.84567000  1
  C  439  1  0.85964300  0.35622200  0.80927100  1
  C  440  1  0.83071900  0.35463900  0.80402400  1
  C  441  1  0.81446600  0.33442100  0.81283300  1
  C  442  1  0.82862600  0.31509000  0.82617700  1
  C  443  1  0.86383600  0.29234200  0.87076400  1
  C  444  1  0.84617500  0.27201900  0.87777600  1
  C  445  1  0.85239800  0.25161800  0.83596600  1
  C  446  1  0.86955100  0.27159600  0.82721800  1
  C  447  1  0.84701400  0.23061000  0.82090500  1
  C  448  1  0.85842000  0.22898200  0.79699500  1
  C  449  1  0.87510200  0.24846600  0.78706400  1
  C  450  1  0.88038800  0.26966600  0.80230700  1
  C  451  1  0.87165200  0.30941400  0.89026400  1
  C  452  1  0.86265100  0.30635000  0.91544600  1
  C  453  1  0.84410400  0.28640000  0.92083000  1
  C  454  1  0.83564600  0.26976200  0.90229200  1
  C  467  1  0.87466500  0.29434000  0.84382600  1
  C  468  1  0.83882800  0.25148700  0.86070800  1
  C  471  1  0.90368500  0.34152400  0.82821500  1
  C  474  1  0.85862000  0.69110700  0.09160600  1
  C  475  1  0.87351600  0.66959500  0.09989900  1
  C  476  1  0.91933300  0.68577500  0.08242700  1
  C  477  1  0.90686900  0.70923000  0.07676100  1
  C  478  1  0.92532800  0.72832900  0.06748400  1
  C  479  1  0.95462400  0.72393500  0.06279100  1
  C  480  1  0.96520600  0.69964900  0.06709400  1
  C  481  1  0.94806800  0.68100800  0.07707400  1
  C  482  1  0.85968300  0.65052900  0.11334600  1
  C  483  1  0.83075900  0.65209900  0.11858700  1
  C  484  1  0.81452700  0.67238300  0.10990000  1
  C  485  1  0.82869600  0.69175100  0.09661800  1
  C  486  1  0.86391700  0.71457500  0.05205600  1
  C  487  1  0.84628000  0.73492800  0.04508200  1
  C  488  1  0.85248000  0.75523200  0.08694000  1
  C  489  1  0.86962900  0.73523200  0.09564900  1
  C  490  1  0.84709700  0.77621000  0.10204200  1
  C  491  1  0.85850700  0.77779300  0.12595200  1
  C  492  1  0.87520800  0.75829800  0.13583600  1
  C  493  1  0.88048100  0.73712300  0.12055700  1
  C  494  1  0.87172900  0.69754400  0.03251600  1
  C  495  1  0.86277700  0.70070100  0.00733100  1
  C  496  1  0.84418000  0.72063200  0.00200100  1
  C  497  1  0.83576500  0.73724800  0.02056800  1
  C  510  1  0.87473900  0.71252000  0.07899300  1
  C  511  1  0.83891100  0.75541100  0.06219900  1
  C  514  1  0.90372500  0.66526600  0.09444700  1
  C  517  1  0.15322200  0.13381900  0.64896400  1
  C  518  1  0.13830100  0.14218700  0.62749200  1
  C  519  1  0.09254900  0.12448600  0.64356600  1
  C  520  1  0.10500300  0.11882000  0.66702600  1
  C  521  1  0.08655600  0.10945100  0.68609100  1
  C  522  1  0.05729800  0.10463700  0.68164100  1
  C  523  1  0.04674600  0.10888200  0.65733200  1
  C  524  1  0.06385300  0.11901600  0.63874900  1
  C  525  1  0.15209400  0.15576400  0.60849700  1
  C  526  1  0.18099800  0.16108400  0.61010400  1
  C  527  1  0.19726100  0.15231100  0.63033200  1
  C  528  1  0.18313900  0.13886300  0.64961500  1
  C  529  1  0.14802400  0.09420100  0.67234000  1
  C  530  1  0.16571000  0.08723600  0.69266300  1
  C  531  1  0.15925000  0.12899700  0.71311100  1
  C  532  1  0.14215400  0.13772800  0.69308600  1
  C  533  1  0.16444800  0.14402900  0.73417600  1
  C  534  1  0.15292200  0.16789400  0.73581200  1
  C  535  1  0.13637800  0.17783900  0.71624400  1
  C  536  1  0.13125100  0.16261600  0.69500200  1
  C  537  1  0.14025500  0.07467400  0.65528100  1
  C  538  1  0.14938400  0.04952500  0.65832200  1
  C  539  1  0.16803900  0.04420900  0.67821500  1
  C  540  1  0.17634800  0.06275600  0.69490100  1
  C  553  1  0.13712500  0.12111500  0.67033300  1
  C  554  1  0.17294300  0.10430600  0.71322500  1
  C  557  1  0.10811600  0.13665800  0.62312400  1
  C  560  1  0.15322400  0.87324200  0.27373300  1
  C  561  1  0.13824600  0.86490600  0.29518600  1
  C  562  1  0.09252600  0.88255400  0.27897800  1
  C  563  1  0.10505800  0.88822600  0.25555300  1
  C  564  1  0.08667100  0.89759400  0.23644400  1
  C  565  1  0.05740000  0.90242800  0.24081600  1
  C  566  1  0.04676700  0.89815100  0.26509100  1
  C  567  1  0.06381300  0.88802300  0.28372000  1
  C  568  1  0.15199800  0.85138300  0.31424300  1
  C  569  1  0.18092600  0.84613300  0.31274000  1
  C  570  1  0.19723900  0.85487000  0.29252900  1
  C  571  1  0.18314600  0.86820700  0.27315300  1
  C  572  1  0.14809600  0.91284600  0.25033800  1
  C  573  1  0.16583300  0.91981500  0.23005300  1
  C  574  1  0.15946800  0.87804100  0.20960500  1
  C  575  1  0.14229700  0.86931500  0.22958300  1
  C  576  1  0.16475900  0.86300000  0.18856600  1
  C  577  1  0.15326800  0.83912200  0.18691300  1
  C  578  1  0.13663500  0.82919100  0.20642700  1
  C  579  1  0.13139500  0.84442800  0.22763800  1
  C  580  1  0.14026800  0.93237600  0.26737300  1
  C  581  1  0.14938600  0.95752800  0.26434300  1
  C  582  1  0.16811700  0.96284100  0.24450500  1
  C  583  1  0.17649600  0.94429200  0.22784800  1
  C  596  1  0.13718900  0.88593200  0.25231900  1
  C  597  1  0.17313100  0.90274500  0.20950800  1
  C  600  1  0.10803700  0.87040600  0.29946700  1
  C  603  1  0.15334700  0.69117500  0.83108600  1
  C  604  1  0.13841900  0.66969700  0.82274500  1
  C  605  1  0.09263800  0.68588400  0.84028800  1
  C  606  1  0.10513100  0.70932300  0.84597600  1
  C  607  1  0.08670500  0.72842300  0.85530100  1
  C  608  1  0.05741500  0.72404000  0.86002700  1
  C  609  1  0.04680600  0.69976500  0.85570900  1
  C  610  1  0.06390800  0.68112800  0.84567400  1
  C  611  1  0.15221800  0.65065900  0.80923200  1
  C  612  1  0.18113800  0.65222600  0.80396500  1
  C  613  1  0.19740300  0.67246800  0.81270200  1
  C  614  1  0.18326900  0.69179900  0.82606700  1
  C  615  1  0.14809200  0.71457100  0.87068500  1
  C  616  1  0.16577700  0.73487900  0.87769400  1
  C  617  1  0.15959800  0.75527100  0.83587700  1
  C  618  1  0.14240400  0.73531400  0.82713600  1
  C  619  1  0.16499800  0.77627300  0.82081500  1
  C  620  1  0.15356700  0.77792200  0.79691700  1
  C  621  1  0.13684700  0.75845900  0.78699100  1
  C  622  1  0.13153800  0.73726600  0.80223800  1
  C  623  1  0.14024200  0.69751700  0.89019200  1
  C  624  1  0.14924500  0.70057800  0.91537300  1
  C  625  1  0.16786900  0.72047600  0.92074400  1
  C  626  1  0.17630200  0.73712800  0.90221200  1
  C  639  1  0.13726400  0.71257700  0.84374700  1
  C  640  1  0.17318800  0.75537900  0.86061100  1
  C  643  1  0.10820800  0.66538700  0.82821000  1
  C  646  1  0.15323400  0.31576500  0.09159800  1
  C  647  1  0.13832200  0.33726100  0.09991400  1
  C  648  1  0.09254200  0.32111700  0.08233000  1
  C  649  1  0.10501000  0.29766300  0.07666800  1
  C  650  1  0.08656400  0.27856700  0.06736700  1
  C  651  1  0.05729000  0.28297800  0.06259700  1
  C  652  1  0.04668800  0.30725100  0.06694000  1
  C  653  1  0.06381200  0.32588600  0.07695300  1
  C  654  1  0.15212900  0.35629000  0.11343300  1
  C  655  1  0.18103700  0.35469100  0.11874100  1
  C  656  1  0.19728500  0.33442600  0.11003400  1
  C  657  1  0.18314900  0.31511400  0.09664100  1
  C  658  1  0.14800500  0.29235100  0.05201000  1
  C  659  1  0.16570900  0.27204000  0.04505000  1
  C  660  1  0.15936200  0.25164000  0.08684600  1
  C  661  1  0.14221100  0.27163500  0.09556300  1
  C  662  1  0.16466600  0.23061800  0.10191000  1
  C  663  1  0.15318300  0.22899000  0.12579000  1
  C  664  1  0.13652400  0.24850000  0.13569700  1
  C  665  1  0.13132500  0.26971600  0.12045800  1
  C  666  1  0.14020000  0.30939000  0.03247500  1
  C  667  1  0.14929300  0.30632200  0.00731900  1
  C  668  1  0.16795400  0.28643600  0.00200300  1
  C  669  1  0.17631000  0.26978100  0.02055900  1
  C  682  1  0.13713600  0.29437100  0.07893400  1
  C  683  1  0.17301700  0.25151500  0.06214000  1
  C  686  1  0.10812600  0.34160500  0.09441200  1
  C  689  1  0.65253100  0.63768400  0.77243700  1
  C  690  1  0.63748200  0.64768400  0.79313500  1
  C  691  1  0.59069100  0.63760200  0.77334500  1
  C  692  1  0.60404000  0.62640300  0.75236400  1
  C  693  1  0.58588700  0.61649000  0.73334400  1
  C  694  1  0.55583100  0.61867800  0.73459800  1
  C  695  1  0.54397900  0.63082100  0.75553200  1
  C  696  1  0.56097100  0.63977700  0.77474200  1
  C  697  1  0.65178000  0.65899900  0.81329400  1
  C  698  1  0.68123700  0.66123700  0.81320400  1
  C  699  1  0.69733900  0.65192700  0.79313500  1
  C  700  1  0.68283800  0.64017000  0.77301700  1
  C  701  1  0.64572300  0.59883200  0.74835200  1
  C  702  1  0.66373000  0.59134600  0.72840800  1
  C  703  1  0.66155600  0.63380500  0.70881600  1
  C  704  1  0.64359000  0.64285000  0.72808700  1
  C  705  1  0.66920500  0.64903500  0.68847800  1
  C  706  1  0.65878800  0.67326900  0.68653800  1
  C  707  1  0.64088700  0.68336000  0.70507600  1
  C  708  1  0.63364200  0.66802800  0.72574400  1
  C  709  1  0.63698700  0.57964900  0.76541500  1
  C  710  1  0.64546600  0.55425300  0.76261600  1
  C  711  1  0.66394200  0.54830000  0.74276400  1
  C  712  1  0.67316600  0.56651200  0.72613600  1
  C  725  1  0.63641900  0.62619600  0.75040900  1
  C  726  1  0.67331700  0.60839200  0.70859200  1
  C  729  1  0.60635200  0.64798300  0.79467300  1
  C  732  1  0.65268200  0.36924800  0.15030700  1
  C  733  1  0.63765600  0.35927400  0.12958500  1
  C  734  1  0.59084400  0.36932400  0.14935100  1
  C  735  1  0.60417000  0.38052200  0.17034800  1
  C  736  1  0.58599100  0.39040600  0.18936400  1
  C  737  1  0.55594000  0.38820600  0.18807900  1
  C  738  1  0.54411300  0.37602000  0.16715700  1
  C  739  1  0.56112800  0.36710700  0.14794600  1
  C  740  1  0.65197100  0.34799600  0.10941600  1
  C  741  1  0.68142600  0.34574700  0.10953000  1
  C  742  1  0.69750700  0.35500300  0.12963500  1
  C  743  1  0.68298600  0.36673900  0.14975600  1
  C  744  1  0.64585100  0.40808500  0.17440400  1
  C  745  1  0.66385700  0.41555400  0.19435500  1
  C  746  1  0.66162600  0.37309900  0.21394600  1
  C  747  1  0.64368700  0.36405900  0.19465500  1
  C  748  1  0.66922800  0.35787500  0.23430100  1
  C  749  1  0.65879200  0.33364700  0.23623300  1
  C  750  1  0.64091900  0.32355500  0.21767300  1
  C  751  1  0.63372900  0.33888200  0.19698400  1
  C  752  1  0.63713200  0.42728300  0.15734800  1
  C  753  1  0.64564500  0.45267000  0.16014900  1
  C  754  1  0.66414100  0.45859700  0.17999200  1
  C  755  1  0.67330800  0.44038300  0.19664100  1
  C  768  1  0.63654600  0.38072300  0.17233000  1
  C  769  1  0.67341200  0.39850200  0.21417600  1
  C  772  1  0.60652600  0.35898100  0.12801900  1
  C  775  1  0.65254600  0.19229600  0.59558700  1
  C  776  1  0.63746700  0.17160800  0.60557100  1
  C  777  1  0.59070000  0.19149400  0.59558200  1
  C  778  1  0.60407800  0.21244300  0.58434700  1
  C  779  1  0.58594700  0.23149800  0.57447000  1
  C  780  1  0.55589500  0.23031900  0.57674700  1
  C  781  1  0.54402600  0.20947000  0.58902000  1
  C  782  1  0.56098600  0.19019900  0.59789000  1
  C  783  1  0.65173900  0.15140000  0.61682200  1
  C  784  1  0.68120100  0.15143600  0.61902700  1
  C  785  1  0.69732900  0.17151800  0.60978400  1
  C  786  1  0.68285300  0.19167500  0.59806600  1
  C  787  1  0.64575300  0.21641900  0.55675600  1
  C  788  1  0.66377400  0.23635600  0.54927700  1
  C  789  1  0.66166400  0.25591100  0.59175800  1
  C  790  1  0.64367200  0.23665300  0.60079100  1
  C  791  1  0.66931900  0.27624300  0.60699400  1
  C  792  1  0.65886800  0.27819800  0.63121600  1
  C  793  1  0.64094900  0.25966700  0.64129700  1
  C  794  1  0.63371000  0.23899900  0.62596300  1
  C  795  1  0.63697100  0.19938600  0.53756100  1
  C  796  1  0.64542000  0.20220600  0.51216000  1
  C  797  1  0.66385100  0.22208700  0.50620100  1
  C  798  1  0.67314900  0.23866700  0.52442800  1
  C  811  1  0.63646100  0.21435100  0.58412100  1
  C  812  1  0.67341000  0.25614000  0.56634000  1
  C  815  1  0.60633100  0.17012100  0.60590400  1
  C  818  1  0.65261800  0.81457300  0.32707100  1
  C  819  1  0.63760300  0.83527100  0.31703500  1
  C  820  1  0.59077800  0.81550000  0.32702400  1
  C  821  1  0.60408700  0.79453000  0.33828700  1
  C  822  1  0.58588700  0.77554000  0.34819900  1
  C  823  1  0.55583600  0.77683300  0.34598500  1
  C  824  1  0.54403900  0.79770600  0.33369700  1
  C  825  1  0.56106900  0.81689100  0.32474900  1
  C  826  1  0.65193300  0.85542400  0.30573900  1
  C  827  1  0.68139600  0.85533300  0.30356200  1
  C  828  1  0.69746700  0.83524800  0.31287600  1
  C  829  1  0.68293100  0.81514200  0.32462700  1
  C  830  1  0.64571000  0.79050500  0.36592800  1
  C  831  1  0.66368500  0.77055100  0.37344800  1
  C  832  1  0.66164500  0.75097600  0.33098000  1
  C  833  1  0.64366600  0.77022700  0.32191200  1
  C  834  1  0.66935100  0.73064600  0.31576300  1
  C  835  1  0.65896600  0.72868500  0.29152200  1
  C  836  1  0.64102900  0.74718800  0.28141300  1
  C  837  1  0.63373900  0.76785800  0.29672900  1
  C  838  1  0.63693200  0.80756800  0.38510000  1
  C  839  1  0.64531300  0.80474200  0.41051900  1
  C  840  1  0.66373400  0.78486500  0.41650900  1
  C  841  1  0.67301300  0.76824400  0.39831200  1
  C  854  1  0.63646500  0.79255800  0.33854800  1
  C  855  1  0.67334600  0.75075600  0.35641300  1
  C  858  1  0.60647500  0.83681300  0.31666000  1
  C  861  1  0.35926000  0.36910000  0.77247200  1
  C  862  1  0.37429400  0.35907200  0.79316300  1
  C  863  1  0.42110200  0.36917300  0.77341800  1
  C  864  1  0.40777200  0.38038900  0.75243500  1
  C  865  1  0.42594800  0.39031700  0.73343900  1
  C  866  1  0.45600200  0.38814200  0.73473200  1
  C  867  1  0.46783700  0.37596400  0.75565200  1
  C  868  1  0.45082000  0.36699100  0.77483500  1
  C  869  1  0.35998600  0.34774800  0.81331000  1
  C  870  1  0.33052600  0.34554000  0.81322300  1
  C  871  1  0.31443900  0.35484800  0.79314600  1
  C  872  1  0.32895100  0.36661600  0.77303900  1
  C  873  1  0.36608700  0.40795400  0.74839100  1
  C  874  1  0.34808700  0.41543300  0.72843900  1
  C  875  1  0.35029500  0.37297800  0.70884400  1
  C  876  1  0.36824600  0.36393400  0.72812600  1
  C  877  1  0.34267600  0.35775200  0.68849500  1
  C  878  1  0.35308600  0.33351600  0.68656800  1
  C  879  1  0.37095700  0.32341700  0.70512700  1
  C  880  1  0.37819600  0.33875500  0.72579300  1
  C  881  1  0.37482100  0.42714900  0.76544500  1
  C  882  1  0.36631600  0.45253700  0.76264900  1
  C  883  1  0.34784100  0.45848100  0.74279600  1
  C  884  1  0.33865700  0.44026900  0.72615100  1
  C  897  1  0.37539400  0.38059100  0.75045600  1
  C  898  1  0.33852100  0.39838500  0.70861800  1
  C  901  1  0.40542400  0.35877000  0.79472200  1
  C  904  1  0.35913200  0.63763900  0.15033000  1
  C  905  1  0.37413900  0.64764300  0.12961300  1
  C  906  1  0.42096800  0.63752600  0.14931400  1
  C  907  1  0.40766000  0.62635200  0.17033000  1
  C  908  1  0.42585100  0.61645500  0.18933000  1
  C  909  1  0.45590700  0.61862000  0.18802100  1
  C  910  1  0.46771600  0.63072800  0.16704600  1
  C  911  1  0.45068600  0.63967200  0.14785700  1
  C  912  1  0.35980300  0.65897300  0.10948200  1
  C  913  1  0.33034600  0.66120900  0.10961600  1
  C  914  1  0.31428200  0.65188400  0.12970000  1
  C  915  1  0.32882200  0.64011600  0.14979100  1
  C  916  1  0.36598100  0.59879100  0.17441800  1
  C  917  1  0.34800000  0.59132400  0.19438400  1
  C  918  1  0.35023700  0.63378400  0.21396700  1
  C  919  1  0.36816700  0.64281900  0.19466400  1
  C  920  1  0.34263300  0.64902000  0.23431100  1
  C  921  1  0.35306300  0.67325200  0.23622800  1
  C  922  1  0.37095000  0.68332500  0.21767100  1
  C  923  1  0.37812400  0.66799600  0.19697900  1
  C  924  1  0.37470400  0.57959100  0.15736700  1
  C  925  1  0.36621400  0.55420100  0.16018800  1
  C  926  1  0.34774100  0.54827200  0.18004900  1
  C  927  1  0.33855300  0.56649500  0.19668000  1
  C  940  1  0.37528800  0.62615300  0.17233600  1
  C  941  1  0.33846000  0.60837700  0.21421100  1
  C  944  1  0.40526700  0.64792100  0.12801800  1
  C  947  1  0.35926200  0.81457700  0.59568400  1
  C  948  1  0.37434700  0.83525400  0.60567900  1
  C  949  1  0.42110600  0.81538200  0.59563900  1
  C  950  1  0.40771900  0.79444000  0.58439500  1
  C  951  1  0.42584000  0.77540600  0.57447000  1
  C  952  1  0.45589600  0.77661800  0.57667000  1
  C  953  1  0.46778200  0.79746500  0.58893300  1
  C  954  1  0.45082400  0.81669900  0.59788500  1
  C  955  1  0.36008600  0.85544300  0.61697700  1
  C  956  1  0.33062600  0.85540900  0.61919100  1
  C  957  1  0.31449000  0.83534500  0.60991600  1
  C  958  1  0.32895500  0.81520000  0.59817200  1
  C  959  1  0.36602300  0.79047500  0.55683200  1
  C  960  1  0.34796800  0.77056100  0.54936100  1
  C  961  1  0.35011600  0.75097400  0.59182500  1
  C  962  1  0.36813600  0.77021600  0.60085600  1
  C  963  1  0.34247800  0.73063100  0.60705000  1
  C  964  1  0.35296500  0.72865000  0.63125900  1
  C  965  1  0.37088000  0.74717900  0.64135100  1
  C  966  1  0.37813200  0.76784300  0.62601500  1
  C  967  1  0.37481200  0.80750300  0.53763400  1
  C  968  1  0.36633700  0.80469800  0.51223800  1
  C  969  1  0.34783000  0.78486900  0.50629600  1
  C  970  1  0.33855700  0.76827200  0.52451900  1
  C  983  1  0.37533600  0.79252900  0.58419400  1
  C  984  1  0.33832200  0.75078000  0.56642400  1
  C  987  1  0.40548400  0.83673500  0.60601100  1
  C  990  1  0.35910700  0.19232400  0.32714300  1
  C  991  1  0.37411800  0.17165000  0.31705200  1
  C  992  1  0.42094300  0.19138400  0.32711200  1
  C  993  1  0.40764000  0.21235400  0.33837400  1
  C  994  1  0.42583800  0.23133800  0.34829800  1
  C  995  1  0.45588800  0.23005100  0.34606600  1
  C  996  1  0.46768900  0.20914600  0.33383500  1
  C  997  1  0.45065700  0.18997600  0.32486400  1
  C  998  1  0.35978200  0.15151500  0.30573100  1
  C  999  1  0.33031800  0.15162200  0.30354300  1
  C  1000  1  0.31425600  0.17168900  0.31290600  1
  C  1001  1  0.32879400  0.19176000  0.32470800  1
  C  1002  1  0.36600600  0.21637300  0.36601200  1
  C  1003  1  0.34800000  0.23630800  0.37352200  1
  C  1004  1  0.35006800  0.25590400  0.33106200  1
  C  1005  1  0.36806800  0.23666400  0.32200000  1
  C  1006  1  0.34235300  0.27622700  0.31584100  1
  C  1007  1  0.35274700  0.27819200  0.29160200  1
  C  1008  1  0.37067500  0.25968400  0.28149000  1
  C  1009  1  0.37799900  0.23903500  0.29682000  1
  C  1010  1  0.37480400  0.19932300  0.38518800  1
  C  1011  1  0.36633100  0.20208900  0.41058900  1
  C  1012  1  0.34792100  0.22197500  0.41657800  1
  C  1013  1  0.33865700  0.23860400  0.39838300  1
  C  1026  1  0.37526200  0.21432900  0.33863400  1
  C  1027  1  0.33834900  0.25611100  0.35648900  1
  C  1030  1  0.40524600  0.17009200  0.31670300  1
  C  1033  1  0.35850200  0.37314900  0.14909900  1
  C  1034  1  0.37339000  0.36475100  0.12762300  1
  C  1035  1  0.41918900  0.38237900  0.14367800  1
  C  1036  1  0.40674500  0.38812500  0.16712100  1
  C  1037  1  0.42520300  0.39750300  0.18616900  1
  C  1038  1  0.45447200  0.40227900  0.18172700  1
  C  1039  1  0.46503500  0.39787700  0.15744700  1
  C  1040  1  0.44790100  0.38778200  0.13886100  1
  C  1041  1  0.35954800  0.35120000  0.10863400  1
  C  1042  1  0.33062000  0.34597600  0.11023600  1
  C  1043  1  0.31439700  0.35478300  0.13047400  1
  C  1044  1  0.32857500  0.36816000  0.14977000  1
  C  1045  1  0.36374100  0.41276400  0.17246100  1
  C  1046  1  0.34608900  0.41974100  0.19280100  1
  C  1047  1  0.35255600  0.37798300  0.21325600  1
  C  1048  1  0.36961300  0.36923800  0.19321300  1
  C  1049  1  0.34738800  0.36296300  0.23433500  1
  C  1050  1  0.35889700  0.33909100  0.23596300  1
  C  1051  1  0.37539800  0.32913100  0.21637500  1
  C  1052  1  0.38051400  0.34434800  0.19512700  1
  C  1053  1  0.37148500  0.43227800  0.15537900  1
  C  1054  1  0.36240400  0.45743700  0.15844100  1
  C  1055  1  0.34378000  0.46276300  0.17835500  1
  C  1056  1  0.33542800  0.44421600  0.19502400  1
  C  1069  1  0.37462700  0.38584600  0.17045300  1
  C  1070  1  0.33887800  0.40268000  0.21337800  1
  C  1073  1  0.40359000  0.37021400  0.12325000  1
  C  1076  1  0.35856600  0.63370200  0.77360600  1
  C  1077  1  0.37347700  0.64205400  0.79508700  1
  C  1078  1  0.41924800  0.62441700  0.77897900  1
  C  1079  1  0.40678500  0.61874300  0.75552500  1
  C  1080  1  0.42522400  0.60937900  0.73645700  1
  C  1081  1  0.45447400  0.60452100  0.74090100  1
  C  1082  1  0.46504800  0.60882500  0.76519100  1
  C  1083  1  0.44795000  0.61895600  0.78378300  1
  C  1084  1  0.35966900  0.65559900  0.81409700  1
  C  1085  1  0.33074900  0.66086300  0.81251200  1
  C  1086  1  0.31450100  0.65211800  0.79226200  1
  C  1087  1  0.32864500  0.63872900  0.77295300  1
  C  1088  1  0.36379200  0.59409500  0.75021900  1
  C  1089  1  0.34613400  0.58711100  0.72988500  1
  C  1090  1  0.35249600  0.62889600  0.70946300  1
  C  1091  1  0.36960500  0.63763400  0.72947800  1
  C  1092  1  0.34724600  0.64393800  0.68841400  1
  C  1093  1  0.35872500  0.66781900  0.68678600  1
  C  1094  1  0.37530500  0.67776100  0.70633100  1
  C  1095  1  0.38049100  0.66252800  0.72755500  1
  C  1096  1  0.37157000  0.57458000  0.76728700  1
  C  1097  1  0.36250300  0.54941700  0.76422300  1
  C  1098  1  0.34388800  0.54407200  0.74431100  1
  C  1099  1  0.33555300  0.56261200  0.72762800  1
  C  1112  1  0.37466300  0.62102000  0.75222600  1
  C  1113  1  0.33886100  0.60418100  0.70933400  1
  C  1116  1  0.40367500  0.63656300  0.79943500  1
  C  1119  1  0.35849300  0.81577200  0.33111800  1
  C  1120  1  0.37339200  0.83723500  0.32269700  1
  C  1121  1  0.41921200  0.82112300  0.34023400  1
  C  1122  1  0.40674900  0.79769600  0.34600800  1
  C  1123  1  0.42520700  0.77863400  0.35536100  1
  C  1124  1  0.45448400  0.78306000  0.36011800  1
  C  1125  1  0.46507500  0.80731800  0.35566100  1
  C  1126  1  0.44795200  0.82590500  0.34555300  1
  C  1127  1  0.35955100  0.85623500  0.30916300  1
  C  1128  1  0.33062000  0.85464800  0.30394800  1
  C  1129  1  0.31439000  0.83442600  0.31277300  1
  C  1130  1  0.32855600  0.81513100  0.32616400  1
  C  1131  1  0.36380100  0.79241500  0.37073800  1
  C  1132  1  0.34613200  0.77209900  0.37775800  1
  C  1133  1  0.35234500  0.75167700  0.33595700  1
  C  1134  1  0.36950900  0.77164800  0.32720100  1
  C  1135  1  0.34695500  0.73066600  0.32090500  1
  C  1136  1  0.35836600  0.72901900  0.29700100  1
  C  1137  1  0.37506000  0.74849400  0.28706000  1
  C  1138  1  0.38035300  0.76969700  0.30229400  1
  C  1139  1  0.37163200  0.80948700  0.39023500  1
  C  1140  1  0.36263500  0.80643200  0.41542000  1
  C  1141  1  0.34407900  0.78649000  0.42080800  1
  C  1142  1  0.33560600  0.76985200  0.40227500  1
  C  1155  1  0.37461700  0.79440300  0.34379400  1
  C  1156  1  0.33877200  0.75156500  0.36069900  1
  C  1159  1  0.40361500  0.84156700  0.32809100  1
  C  1162  1  0.35856600  0.19109300  0.59164500  1
  C  1163  1  0.37344300  0.16958600  0.59997900  1
  C  1164  1  0.41928200  0.18571700  0.58250400  1
  C  1165  1  0.40683800  0.20917000  0.57679500  1
  C  1166  1  0.42531600  0.22824700  0.56750000  1
  C  1167  1  0.45461400  0.22383300  0.56283000  1
  C  1168  1  0.46517700  0.19954900  0.56717900  1
  C  1169  1  0.44801800  0.18092900  0.57717600  1
  C  1170  1  0.35958700  0.15054500  0.61344300  1
  C  1171  1  0.33065600  0.15213500  0.61866300  1
  C  1172  1  0.31445000  0.17242800  0.60996300  1
  C  1173  1  0.32863700  0.19175500  0.59663000  1
  C  1174  1  0.36389400  0.21453400  0.55207500  1
  C  1175  1  0.34627200  0.23489200  0.54509200  1
  C  1176  1  0.35248600  0.25521400  0.58693900  1
  C  1177  1  0.36961900  0.23520800  0.59565800  1
  C  1178  1  0.34711700  0.27620200  0.60203100  1
  C  1179  1  0.35852900  0.27779100  0.62593800  1
  C  1180  1  0.37521300  0.25829300  0.63583400  1
  C  1181  1  0.38047200  0.23710600  0.62056500  1
  C  1182  1  0.37170200  0.19749100  0.53254100  1
  C  1183  1  0.36275400  0.20064500  0.50735400  1
  C  1184  1  0.34416800  0.22058200  0.50201600  1
  C  1185  1  0.33575900  0.23720900  0.52057600  1
  C  1198  1  0.37470800  0.21248200  0.57901500  1
  C  1199  1  0.33891400  0.25538700  0.56220000  1
  C  1202  1  0.40365400  0.16523600  0.59455000  1
  C  1205  1  0.65330800  0.63382500  0.14903700  1
  C  1206  1  0.63842300  0.64223700  0.12756500  1
  C  1207  1  0.59264200  0.62452100  0.14356500  1
  C  1208  1  0.60506300  0.61882300  0.16703100  1
  C  1209  1  0.58659200  0.60943900  0.18606700  1
  C  1210  1  0.55734100  0.60463600  0.18158200  1
  C  1211  1  0.54681800  0.60890900  0.15726900  1
  C  1212  1  0.56395100  0.61906200  0.13871400  1
  C  1213  1  0.65225300  0.65584000  0.10860800  1
  C  1214  1  0.68115900  0.66114600  0.11025900  1
  C  1215  1  0.69738400  0.65233200  0.13049400  1
  C  1216  1  0.68322800  0.63884200  0.14972600  1
  C  1217  1  0.64806900  0.59419600  0.17239100  1
  C  1218  1  0.66571700  0.58722300  0.19273800  1
  C  1219  1  0.65922300  0.62897800  0.21318900  1
  C  1220  1  0.64216700  0.63771800  0.19314200  1
  C  1221  1  0.66438300  0.64400500  0.23426800  1
  C  1222  1  0.65286000  0.66787100  0.23589200  1
  C  1223  1  0.63635500  0.67782300  0.21630200  1
  C  1224  1  0.63126600  0.66260800  0.19504800  1
  C  1225  1  0.64032700  0.57467700  0.15531400  1
  C  1226  1  0.64944700  0.54952500  0.15836100  1
  C  1227  1  0.66806700  0.54420100  0.17827700  1
  C  1228  1  0.67634600  0.56274100  0.19498100  1
  C  1241  1  0.63717600  0.62111200  0.17037800  1
  C  1242  1  0.67291100  0.60428600  0.21331800  1
  C  1245  1  0.60824100  0.63672200  0.12315700  1
  C  1248  1  0.65332300  0.37323300  0.77360200  1
  C  1249  1  0.63840100  0.36483700  0.79506100  1
  C  1250  1  0.59263200  0.38249100  0.77895900  1
  C  1251  1  0.60511200  0.38821100  0.75552500  1
  C  1252  1  0.58668500  0.39759600  0.73645700  1
  C  1253  1  0.55742100  0.40240800  0.74087700  1
  C  1254  1  0.54683500  0.39808500  0.76515900  1
  C  1255  1  0.56392400  0.38793500  0.78375000  1
  C  1256  1  0.65221300  0.35128400  0.81406600  1
  C  1257  1  0.68114400  0.34605300  0.81249300  1
  C  1258  1  0.69739400  0.35484800  0.79226900  1
  C  1259  1  0.68325000  0.36823900  0.77296300  1
  C  1260  1  0.64812200  0.41285200  0.75024100  1
  C  1261  1  0.66579300  0.41984000  0.72991600  1
  C  1262  1  0.65939300  0.37807300  0.70946300  1
  C  1263  1  0.64228800  0.36932600  0.72947600  1
  C  1264  1  0.66463000  0.36304100  0.68840300  1
  C  1265  1  0.65315300  0.33915600  0.68677100  1
  C  1266  1  0.63658800  0.32920800  0.70632000  1
  C  1267  1  0.63140200  0.34443400  0.72755000  1
  C  1268  1  0.64033500  0.43236500  0.76730800  1
  C  1269  1  0.64943400  0.45752200  0.76427200  1
  C  1270  1  0.66810300  0.46285400  0.74439400  1
  C  1271  1  0.67643900  0.44432000  0.72770400  1
  C  1284  1  0.63723400  0.38593200  0.75222900  1
  C  1285  1  0.67303600  0.40278400  0.70934300  1
  C  1288  1  0.60819500  0.37031100  0.79940100  1
  C  1291  1  0.65340600  0.19111100  0.33106500  1
  C  1292  1  0.63848800  0.16963900  0.32269500  1
  C  1293  1  0.59268700  0.18580900  0.34021000  1
  C  1294  1  0.60517200  0.20924100  0.34593900  1
  C  1295  1  0.58673400  0.22832800  0.35527900  1
  C  1296  1  0.55744300  0.22393200  0.35998200  1
  C  1297  1  0.54683900  0.19966400  0.35562200  1
  C  1298  1  0.56395100  0.18104400  0.34556800  1
  C  1299  1  0.65230600  0.15060600  0.30918900  1
  C  1300  1  0.68123500  0.15216500  0.30396500  1
  C  1301  1  0.69748200  0.17240900  0.31271900  1
  C  1302  1  0.68333700  0.19173600  0.32608200  1
  C  1303  1  0.64811800  0.21449500  0.37067300  1
  C  1304  1  0.66580600  0.23479700  0.37768900  1
  C  1305  1  0.65964900  0.25519700  0.33587100  1
  C  1306  1  0.64244800  0.23524900  0.32712500  1
  C  1307  1  0.66505900  0.27620200  0.32081700  1
  C  1308  1  0.65362500  0.27786200  0.29692100  1
  C  1309  1  0.63689400  0.25840800  0.28699000  1
  C  1310  1  0.63157800  0.23721200  0.30222900  1
  C  1311  1  0.64025500  0.19744100  0.39017700  1
  C  1312  1  0.64924900  0.20050000  0.41536200  1
  C  1313  1  0.66787600  0.22039400  0.42073900  1
  C  1314  1  0.67632300  0.23704300  0.40221000  1
  C  1327  1  0.63730600  0.21250500  0.34372900  1
  C  1328  1  0.67323400  0.25529600  0.36060900  1
  C  1331  1  0.60826700  0.16532900  0.32811500  1
  C  1334  1  0.65328900  0.81578100  0.59158900  1
  C  1335  1  0.63840800  0.83727200  0.59996200  1
  C  1336  1  0.59258900  0.82118600  0.58239600  1
  C  1337  1  0.60503400  0.79773700  0.57667200  1
  C  1338  1  0.58656400  0.77866800  0.56735100  1
  C  1339  1  0.55728800  0.78310100  0.56261900  1
  C  1340  1  0.54670300  0.80736800  0.56703000  1
  C  1341  1  0.56385400  0.82597600  0.57706400  1
  C  1342  1  0.65225300  0.85626500  0.61350400  1
  C  1343  1  0.68116900  0.85463700  0.61877900  1
  C  1344  1  0.69738000  0.83436800  0.61002800  1
  C  1345  1  0.68321400  0.81510600  0.59659200  1
  C  1346  1  0.64801000  0.79239200  0.55198900  1
  C  1347  1  0.66568700  0.77206600  0.54501700  1
  C  1348  1  0.65933900  0.75166200  0.58681200  1
  C  1349  1  0.64221200  0.77166800  0.59553700  1
  C  1350  1  0.66463000  0.73063600  0.60187200  1
  C  1351  1  0.65315500  0.72901400  0.62575700  1
  C  1352  1  0.63651800  0.74853500  0.63567200  1
  C  1353  1  0.63132800  0.76975500  0.62043300  1
  C  1354  1  0.64021400  0.80944200  0.53246000  1
  C  1355  1  0.64929200  0.80637200  0.50730100  1
  C  1356  1  0.66792900  0.78647100  0.50197300  1
  C  1357  1  0.67627400  0.76980300  0.52052200  1
  C  1370  1  0.63715700  0.79441600  0.57891800  1
  C  1371  1  0.67298100  0.75153000  0.56210100  1
  C  1374  1  0.60820500  0.84163800  0.59450900  1
  C  1377  1  0.13604600  0.03330200  0.27713100  1
  C  1378  1  0.15684100  0.02038700  0.29129800  1
  C  1379  1  0.15863100  0.99423500  0.29061000  1
  C  1380  1  0.13899900  0.97881500  0.27777500  1
  C  1381  1  0.11544100  0.99169900  0.26742000  1
  C  1382  1  0.11465000  0.01792300  0.26659400  1
  C  1385  1  0.19692400  0.00959800  0.30530400  1
  C  1388  1  0.08324900  0.00260500  0.24230600  1
  C  1391  1  0.13634100  0.97363400  0.64559600  1
  C  1392  1  0.15709500  0.98672500  0.63153900  1
  C  1393  1  0.15872900  0.01287000  0.63203100  1
  C  1394  1  0.13905000  0.02823200  0.64487000  1
  C  1395  1  0.11556900  0.01526500  0.65525400  1
  C  1396  1  0.11499400  0.98904300  0.65621500  1
  C  1399  1  0.19696600  0.99753800  0.61712100  1
  C  1402  1  0.08322000  0.00425000  0.68016200  1
  C  1405  1  0.13596900  0.68786000  0.99119900  1
  C  1406  1  0.15686300  0.67383400  0.97819000  1
  C  1407  1  0.15850400  0.67433300  0.95200900  1
  C  1408  1  0.13877600  0.68713900  0.93661200  1
  C  1409  1  0.11515000  0.69721300  0.94958100  1
  C  1410  1  0.11450300  0.69818300  0.97578300  1
  C  1413  1  0.19700900  0.65990800  0.96736800  1
  C  1416  1  0.08248700  0.72191000  0.96055100  1
  C  1419  1  0.13589400  0.31917600  0.93148500  1
  C  1420  1  0.15681200  0.33320800  0.94441700  1
  C  1421  1  0.15862800  0.33248700  0.97057500  1
  C  1422  1  0.13892000  0.31975400  0.98603600  1
  C  1423  1  0.11537900  0.30948000  0.97306300  1
  C  1424  1  0.11441500  0.30880600  0.94685800  1
  C  1427  1  0.19696200  0.34704300  0.95519100  1
  C  1430  1  0.08263500  0.28487700  0.96222800  1
  C  1433  1  0.87569900  0.97348300  0.27715900  1
  C  1434  1  0.85495400  0.98657500  0.29124700  1
  C  1435  1  0.85323400  0.01273400  0.29054600  1
  C  1436  1  0.87292000  0.02813700  0.27774100  1
  C  1437  1  0.89644600  0.01512900  0.26749800  1
  C  1438  1  0.89713800  0.98889900  0.26670600  1
  C  1441  1  0.81488400  0.99746700  0.30522900  1
  C  1444  1  0.92869500  0.00411100  0.24249400  1
  C  1447  1  0.87558600  0.03324800  0.64565700  1
  C  1448  1  0.85476500  0.02021100  0.63162700  1
  C  1449  1  0.85312800  0.99406700  0.63214100  1
  C  1450  1  0.87287100  0.97876500  0.64498000  1
  C  1451  1  0.89639700  0.99168000  0.65532000  1
  C  1452  1  0.89697200  0.01790000  0.65626900  1
  C  1455  1  0.81487800  0.00939100  0.61725500  1
  C  1458  1  0.92873900  0.00270800  0.68022700  1
  C  1461  1  0.87575000  0.31906000  0.99129900  1
  C  1462  1  0.85493900  0.33308900  0.97818100  1
  C  1463  1  0.85336100  0.33259800  0.95199600  1
  C  1464  1  0.87315700  0.31976300  0.93670300  1
  C  1465  1  0.89673900  0.30968700  0.94969700  1
  C  1466  1  0.89725400  0.30872400  0.97590000  1
  C  1469  1  0.81483500  0.34706000  0.96726700  1
  C  1472  1  0.92931900  0.28496600  0.96076900  1
  C  1475  1  0.87587700  0.68774300  0.93153500  1
  C  1476  1  0.85498800  0.67378100  0.94462400  1
  C  1477  1  0.85328900  0.67450300  0.97079000  1
  C  1478  1  0.87317700  0.68724300  0.98604800  1
  C  1479  1  0.89670700  0.69742200  0.97305000  1
  C  1480  1  0.89746500  0.69805800  0.94684100  1
  C  1483  1  0.81487100  0.65996900  0.95557000  1
  C  1486  1  0.92938000  0.72198300  0.96201900  1
  C  1489  1  0.63616000  0.53328700  0.77714400  1
  C  1490  1  0.65697000  0.52035100  0.79127500  1
  C  1491  1  0.65874300  0.49419600  0.79056300  1
  C  1492  1  0.63907900  0.47879800  0.77774300  1
  C  1493  1  0.61550800  0.49169900  0.76743300  1
  C  1494  1  0.61473300  0.51792600  0.76662700  1
  C  1497  1  0.69707400  0.50953200  0.80521400  1
  C  1500  1  0.58328000  0.50264100  0.74237100  1
  C  1503  1  0.63641900  0.47364000  0.14561000  1
  C  1504  1  0.65719500  0.48673000  0.13157800  1
  C  1505  1  0.65883000  0.51287600  0.13207300  1
  C  1506  1  0.63913200  0.52823800  0.14489000  1
  C  1507  1  0.61563100  0.51527100  0.15524200  1
  C  1508  1  0.61505400  0.48904800  0.15620000  1
  C  1511  1  0.69708900  0.49754400  0.11720800  1
  C  1514  1  0.58324000  0.50425600  0.18010900  1
  C  1517  1  0.63598100  0.18777300  0.49118800  1
  C  1518  1  0.65686600  0.17374100  0.47817400  1
  C  1519  1  0.65850100  0.17424500  0.45199300  1
  C  1520  1  0.63877700  0.18705700  0.43659900  1
  C  1521  1  0.61515800  0.19713700  0.44957400  1
  C  1522  1  0.61451500  0.19810300  0.47577500  1
  C  1525  1  0.69700600  0.15980800  0.46734200  1
  C  1528  1  0.58250300  0.22184100  0.46055300  1
  C  1531  1  0.63593500  0.81925800  0.43147000  1
  C  1532  1  0.65685100  0.83327900  0.44441300  1
  C  1533  1  0.65865600  0.83254800  0.47057400  1
  C  1534  1  0.63893400  0.81982100  0.48602300  1
  C  1535  1  0.61539100  0.80956200  0.47303700  1
  C  1536  1  0.61444000  0.80889400  0.44683200  1
  C  1539  1  0.69700600  0.84709100  0.45520600  1
  C  1542  1  0.58263900  0.78497500  0.46218300  1
  C  1545  1  0.37560200  0.47349800  0.77714800  1
  C  1546  1  0.35484000  0.48660200  0.79120800  1
  C  1547  1  0.35312900  0.51276000  0.79049400  1
  C  1548  1  0.37283600  0.52815400  0.77770700  1
  C  1549  1  0.39637600  0.51513800  0.76750000  1
  C  1550  1  0.39706400  0.48890700  0.76671900  1
  C  1553  1  0.31475100  0.49750600  0.80513400  1
  C  1556  1  0.42866600  0.50410500  0.74254300  1
  C  1559  1  0.37550600  0.53321200  0.14567900  1
  C  1560  1  0.35466200  0.52018300  0.13167000  1
  C  1561  1  0.35302100  0.49403900  0.13218100  1
  C  1562  1  0.37277800  0.47873100  0.14499300  1
  C  1563  1  0.39632500  0.49163900  0.15530400  1
  C  1564  1  0.39690700  0.51785900  0.15625700  1
  C  1567  1  0.31474900  0.50937200  0.11734500  1
  C  1570  1  0.42871200  0.50265600  0.18017100  1
  C  1573  1  0.37574200  0.81913700  0.49127500  1
  C  1574  1  0.35493500  0.83317100  0.47815500  1
  C  1575  1  0.35336000  0.83268400  0.45197000  1
  C  1576  1  0.37315000  0.81984300  0.43667500  1
  C  1577  1  0.39672700  0.80975700  0.44967100  1
  C  1578  1  0.39724000  0.80879500  0.47587400  1
  C  1581  1  0.31483800  0.84715500  0.46724100  1
  C  1584  1  0.42929600  0.78502900  0.46074300  1
  C  1587  1  0.37582900  0.18767600  0.43155600  1
  C  1588  1  0.35493500  0.17372100  0.44465200  1
  C  1589  1  0.35324600  0.17444500  0.47081800  1
  C  1590  1  0.37314600  0.18717800  0.48607200  1
  C  1591  1  0.39667600  0.19734600  0.47306900  1
  C  1592  1  0.39742700  0.19797800  0.44685800  1
  C  1595  1  0.31481500  0.15992700  0.45560500  1
  C  1598  1  0.42936200  0.22189000  0.46202800  1
  C  1601  1  0.28431500  0.16960700  0.31000900  1
  C  1602  1  0.26961800  0.14995300  0.32202900  1
  C  1603  1  0.24205000  0.14320900  0.31515100  1
  C  1604  1  0.22713300  0.15491700  0.29545100  1
  C  1605  1  0.24172300  0.17463200  0.28340900  1
  C  1606  1  0.26950400  0.18127900  0.29020500  1
  C  1609  1  0.25629500  0.12078000  0.34545400  1
  C  1612  1  0.25530200  0.20349300  0.25975300  1
  C  1615  1  0.28455500  0.83748600  0.61290200  1
  C  1616  1  0.26985800  0.85715300  0.60090800  1
  C  1617  1  0.24226300  0.86381500  0.60777700  1
  C  1618  1  0.22734700  0.85196800  0.62739500  1
  C  1619  1  0.24193200  0.83220800  0.63936800  1
  C  1620  1  0.26973500  0.82562700  0.63258300  1
  C  1623  1  0.25649900  0.88638100  0.57757300  1
  C  1626  1  0.25547100  0.80318500  0.66283900  1
  C  1629  1  0.28434300  0.65483100  0.12765400  1
  C  1630  1  0.26965000  0.64284300  0.10797300  1
  C  1631  1  0.24210300  0.64976600  0.10120000  1
  C  1632  1  0.22719400  0.66950100  0.11287500  1
  C  1633  1  0.24177900  0.68146900  0.13263700  1
  C  1634  1  0.26954200  0.67464900  0.13930700  1
  C  1637  1  0.25631000  0.61941800  0.07880400  1
  C  1640  1  0.25535900  0.70511400  0.16150800  1
  C  1643  1  0.28449800  0.35187300  0.79523800  1
  C  1644  1  0.26982800  0.36387800  0.81491800  1
  C  1645  1  0.24225800  0.35698200  0.82163800  1
  C  1646  1  0.22732000  0.33731100  0.80988800  1
  C  1647  1  0.24188500  0.32537700  0.79008500  1
  C  1648  1  0.26966700  0.33216600  0.78344400  1
  C  1651  1  0.25650900  0.38722300  0.84415200  1
  C  1654  1  0.25540600  0.30183300  0.76110900  1
  C  1657  1  0.72740600  0.83734100  0.30994000  1
  C  1658  1  0.74214300  0.85698500  0.32193400  1
  C  1659  1  0.76973200  0.86365300  0.31504700  1
  C  1660  1  0.78461600  0.85183400  0.29539300  1
  C  1661  1  0.76999300  0.83211300  0.28339400  1
  C  1662  1  0.74219600  0.82553700  0.29020100  1
  C  1665  1  0.75553000  0.88619900  0.34527700  1
  C  1668  1  0.75637700  0.80318000  0.25985000  1
  C  1671  1  0.72726400  0.16938400  0.61276600  1
  C  1672  1  0.74199000  0.14969800  0.60083500  1
  C  1673  1  0.76957100  0.14303600  0.60775300  1
  C  1674  1  0.78446500  0.15487600  0.62738600  1
  C  1675  1  0.76985500  0.17466800  0.63929200  1
  C  1676  1  0.74206400  0.18124400  0.63246400  1
  C  1679  1  0.75539400  0.12045300  0.57753800  1
  C  1682  1  0.75627500  0.20371100  0.66272000  1
  C  1685  1  0.72744400  0.35198100  0.12757800  1
  C  1686  1  0.74217500  0.36397900  0.10793000  1
  C  1687  1  0.76974500  0.35705100  0.10124600  1
  C  1688  1  0.78461600  0.33735600  0.11303100  1
  C  1689  1  0.76999800  0.32542200  0.13279300  1
  C  1690  1  0.74221100  0.33224600  0.13938600  1
  C  1693  1  0.75559200  0.38733300  0.07873700  1
  C  1696  1  0.75637500  0.30188500  0.16173500  1
  C  1699  1  0.72727400  0.65492200  0.79520500  1
  C  1700  1  0.74194300  0.64295300  0.81491000  1
  C  1701  1  0.76950300  0.64986600  0.82165100  1
  C  1702  1  0.78443100  0.66955000  0.80991800  1
  C  1703  1  0.76986200  0.68149000  0.79012500  1
  C  1704  1  0.74209200  0.67467500  0.78346800  1
  C  1707  1  0.75526900  0.61959900  0.84413900  1
  C  1710  1  0.75631800  0.70505200  0.76117000  1
  C  1713  1  0.72732100  0.83643600  0.61351900  1
  C  1714  1  0.74212000  0.85607500  0.60155300  1
  C  1715  1  0.76960700  0.86292000  0.60858600  1
  C  1716  1  0.78458800  0.85122200  0.62827100  1
  C  1717  1  0.76997400  0.83140100  0.64015700  1
  C  1718  1  0.74214900  0.82476500  0.63333300  1
  C  1721  1  0.75540900  0.88540200  0.57828900  1
  C  1724  1  0.75635800  0.80248200  0.66373300  1
  C  1727  1  0.72741600  0.17031900  0.30916300  1
  C  1728  1  0.74222400  0.15070900  0.32115700  1
  C  1729  1  0.76974700  0.14393900  0.31416100  1
  C  1730  1  0.78471800  0.15574900  0.29454500  1
  C  1731  1  0.77008900  0.17553700  0.28262200  1
  C  1732  1  0.74224100  0.18211400  0.28942200  1
  C  1735  1  0.75554900  0.12137500  0.34439600  1
  C  1738  1  0.75646800  0.20451000  0.25911700  1
  C  1741  1  0.72732900  0.35129900  0.79431900  1
  C  1742  1  0.74209800  0.36319600  0.81402300  1
  C  1743  1  0.76956200  0.35611800  0.82090100  1
  C  1744  1  0.78453900  0.33643300  0.80919800  1
  C  1745  1  0.76995100  0.32461800  0.78931900  1
  C  1746  1  0.74214700  0.33147800  0.78265700  1
  C  1749  1  0.75538300  0.38643000  0.84338000  1
  C  1752  1  0.75634900  0.30108700  0.76036100  1
  C  1755  1  0.72732700  0.65581400  0.12840000  1
  C  1756  1  0.74204300  0.64374700  0.10878000  1
  C  1757  1  0.76954300  0.65071300  0.10190200  1
  C  1758  1  0.78460100  0.67037800  0.11356000  1
  C  1759  1  0.77004800  0.68233600  0.13337600  1
  C  1760  1  0.74221500  0.67559100  0.14005900  1
  C  1763  1  0.75522000  0.62042700  0.07946000  1
  C  1766  1  0.75654900  0.70598800  0.16227800  1
  C  1769  1  0.28451300  0.17037600  0.61351000  1
  C  1770  1  0.26964800  0.15076100  0.60157200  1
  C  1771  1  0.24212700  0.14402600  0.60860500  1
  C  1772  1  0.22719400  0.15588200  0.62821600  1
  C  1773  1  0.24187000  0.17566800  0.64009400  1
  C  1774  1  0.26972200  0.18220100  0.63325700  1
  C  1777  1  0.25626300  0.12139200  0.57840100  1
  C  1780  1  0.25557500  0.20463800  0.66356300  1
  C  1783  1  0.28445100  0.83652000  0.30927600  1
  C  1784  1  0.26965200  0.85611400  0.32130400  1
  C  1785  1  0.24214400  0.86293400  0.31431200  1
  C  1786  1  0.22715800  0.85122000  0.29464400  1
  C  1787  1  0.24178100  0.83144800  0.28268300  1
  C  1788  1  0.26961800  0.82482500  0.28947600  1
  C  1791  1  0.25635200  0.88539700  0.34461800  1
  C  1794  1  0.25539300  0.80255100  0.25907800  1
  C  1797  1  0.28456800  0.65569600  0.79432600  1
  C  1798  1  0.26978400  0.64373200  0.81397400  1
  C  1799  1  0.24229500  0.65078400  0.82080000  1
  C  1800  1  0.22732800  0.67044700  0.80904300  1
  C  1801  1  0.24192500  0.68228400  0.78918800  1
  C  1802  1  0.26975200  0.67545600  0.78256900  1
  C  1805  1  0.25647300  0.62050400  0.84332200  1
  C  1808  1  0.25553300  0.70579400  0.76021300  1
  C  1811  1  0.28445700  0.35123500  0.12845200  1
  C  1812  1  0.26969700  0.36318100  0.10877500  1
  C  1813  1  0.24221200  0.35614400  0.10192300  1
  C  1814  1  0.22721300  0.33648300  0.11364100  1
  C  1815  1  0.24181300  0.32460900  0.13347900  1
  C  1816  1  0.26962900  0.33143300  0.14013000  1
  C  1819  1  0.25643500  0.38641000  0.07940700  1
  C  1822  1  0.25541000  0.30104100  0.16241300  1
  C  1825  1  0.12721400  0.24509600  0.16082900  1
  C  1826  1  0.14825200  0.24633800  0.17974400  1
  C  1827  1  0.15013100  0.22774800  0.19810300  1
  C  1828  1  0.13033700  0.20795200  0.20039700  1
  C  1829  1  0.10630000  0.20974300  0.18455900  1
  C  1830  1  0.10548800  0.22725000  0.16506700  1
  C  1833  1  0.18883700  0.24839500  0.19646600  1
  C  1836  1  0.07364900  0.19942700  0.15965200  1
  C  1839  1  0.12746700  0.76191800  0.76185500  1
  C  1840  1  0.14855200  0.76079900  0.74299400  1
  C  1841  1  0.15023600  0.77927400  0.72453800  1
  C  1842  1  0.13032300  0.79899800  0.72237100  1
  C  1843  1  0.10635300  0.79721300  0.73827900  1
  C  1844  1  0.10574700  0.77980400  0.75785400  1
  C  1847  1  0.18891800  0.75851300  0.72596100  1
  C  1850  1  0.07362600  0.80733300  0.76319600  1
  C  1853  1  0.12720100  0.80410300  0.20296000  1
  C  1854  1  0.14829100  0.78520500  0.20409200  1
  C  1855  1  0.15000400  0.76670700  0.18560200  1
  C  1856  1  0.13015600  0.76448600  0.16579700  1
  C  1857  1  0.10611000  0.78025900  0.16780400  1
  C  1858  1  0.10543700  0.79982800  0.18519000  1
  C  1861  1  0.18888000  0.76843300  0.20612300  1
  C  1864  1  0.07309100  0.80500400  0.15777300  1
  C  1867  1  0.12698800  0.20297800  0.71964600  1
  C  1868  1  0.14822800  0.22171100  0.71843000  1
  C  1869  1  0.15020200  0.23999300  0.73710200  1
  C  1870  1  0.13037800  0.24237300  0.75689700  1
  C  1871  1  0.10633700  0.22653300  0.75504000  1
  C  1872  1  0.10522100  0.20721000  0.73739900  1
  C  1875  1  0.18889400  0.23823300  0.71646200  1
  C  1878  1  0.07313300  0.20207000  0.76509400  1
  C  1881  1  0.88451900  0.76168700  0.16098600  1
  C  1882  1  0.86350700  0.76047800  0.17990800  1
  C  1883  1  0.86169800  0.77912100  0.19821900  1
  C  1884  1  0.88158500  0.79885600  0.20039500  1
  C  1885  1  0.90558700  0.79705100  0.18453800  1
  C  1886  1  0.90630900  0.77951300  0.16507200  1
  C  1889  1  0.82294700  0.75853100  0.19668000  1
  C  1892  1  0.93815200  0.80730300  0.15952500  1
  C  1895  1  0.88438500  0.24504700  0.76191100  1
  C  1896  1  0.86335400  0.24616300  0.74300700  1
  C  1897  1  0.86165100  0.22770300  0.72453600  1
  C  1898  1  0.88148800  0.20792600  0.72231600  1
  C  1899  1  0.90544500  0.20972800  0.73825700  1
  C  1900  1  0.90607500  0.22713000  0.75784300  1
  C  1903  1  0.82298300  0.24848500  0.72598100  1
  C  1906  1  0.93821800  0.19960300  0.76312800  1
  C  1909  1  0.88473400  0.20288100  0.20296200  1
  C  1910  1  0.86356800  0.22169400  0.20414600  1
  C  1911  1  0.86184000  0.24014400  0.18561300  1
  C  1912  1  0.88174700  0.24232100  0.16583900  1
  C  1913  1  0.90581600  0.22658200  0.16780100  1
  C  1914  1  0.90651900  0.20703100  0.18520500  1
  C  1917  1  0.82295700  0.23841200  0.20612500  1
  C  1920  1  0.93881200  0.20182200  0.15775600  1
  C  1923  1  0.88482300  0.80403200  0.71975200  1
  C  1924  1  0.86358700  0.78527400  0.71852700  1
  C  1925  1  0.86157700  0.76694400  0.73714700  1
  C  1926  1  0.88136500  0.76452400  0.75696100  1
  C  1927  1  0.90541300  0.78035400  0.75514400  1
  C  1928  1  0.90654400  0.79970100  0.73752900  1
  C  1931  1  0.82293200  0.76873100  0.71644900  1
  C  1934  1  0.93860400  0.80480000  0.76526200  1
  C  1937  1  0.62719200  0.74513100  0.66079900  1
  C  1938  1  0.64822600  0.74630400  0.67971800  1
  C  1939  1  0.65006000  0.72766500  0.69803400  1
  C  1940  1  0.63024300  0.70787000  0.70032100  1
  C  1941  1  0.60621600  0.70978700  0.68448300  1
  C  1942  1  0.60542600  0.72732600  0.66501800  1
  C  1945  1  0.68880300  0.74827600  0.69645400  1
  C  1948  1  0.57352400  0.69956900  0.65957400  1
  C  1951  1  0.62749400  0.26189200  0.26186000  1
  C  1952  1  0.64856400  0.26081000  0.24298500  1
  C  1953  1  0.65021300  0.27930600  0.22454700  1
  C  1954  1  0.63027700  0.29901300  0.22241000  1
  C  1955  1  0.60632200  0.29719300  0.23833300  1
  C  1956  1  0.60575100  0.27976300  0.25789400  1
  C  1959  1  0.68891800  0.25857400  0.22592200  1
  C  1962  1  0.57360600  0.30726000  0.26328000  1
  C  1965  1  0.62718200  0.30411000  0.70287900  1
  C  1966  1  0.64829200  0.28523100  0.70403200  1
  C  1967  1  0.65002600  0.26671500  0.68556300  1
  C  1968  1  0.63018100  0.26445800  0.66575800  1
  C  1969  1  0.60611600  0.28021200  0.66775000  1
  C  1970  1  0.60542000  0.29979500  0.68511700  1
  C  1973  1  0.68889700  0.26849100  0.70608700  1
  C  1976  1  0.57306500  0.30491400  0.65769800  1
  C  1979  1  0.62697400  0.70296700  0.21968700  1
  C  1980  1  0.64822200  0.72169400  0.21846700  1
  C  1981  1  0.65019600  0.73998400  0.23712900  1
  C  1982  1  0.63036800  0.74237800  0.25692000  1
  C  1983  1  0.60632000  0.72654800  0.25506200  1
  C  1984  1  0.60520100  0.70721500  0.23743100  1
  C  1987  1  0.68889200  0.73820300  0.21649800  1
  C  1990  1  0.57309900  0.70210200  0.26511900  1
  C  1993  1  0.38452900  0.26168900  0.66098200  1
  C  1994  1  0.36351600  0.26049900  0.67990600  1
  C  1995  1  0.36171600  0.27915300  0.69820600  1
  C  1996  1  0.38161600  0.29888100  0.70037100  1
  C  1997  1  0.40561700  0.29705500  0.68451600  1
  C  1998  1  0.40632900  0.27950500  0.66506100  1
  C  2001  1  0.32295600  0.25857800  0.69668000  1
  C  2004  1  0.43818700  0.30727900  0.65949900  1
  C  2007  1  0.38436300  0.74505100  0.26191600  1
  C  2008  1  0.36334400  0.74612300  0.24299800  1
  C  2009  1  0.36167300  0.72763700  0.22454900  1
  C  2010  1  0.38153500  0.70787800  0.22236500  1
  C  2011  1  0.40547900  0.70972200  0.23831700  1
  C  2012  1  0.40607600  0.72714700  0.25788200  1
  C  2015  1  0.32298200  0.74838900  0.22594800  1
  C  2018  1  0.43824600  0.69965500  0.26322000  1
  C  2021  1  0.38473200  0.70288700  0.70289600  1
  C  2022  1  0.36355200  0.72168400  0.70409200  1
  C  2023  1  0.36181100  0.74014600  0.68556800  1
  C  2024  1  0.38171400  0.74234500  0.66579700  1
  C  2025  1  0.40579600  0.72662100  0.66775200  1
  C  2026  1  0.40651700  0.70706300  0.68514500  1
  C  2029  1  0.32293100  0.73838000  0.70608300  1
  C  2032  1  0.43881900  0.70189300  0.65769800  1
  C  2035  1  0.38483400  0.30402500  0.21980300  1
  C  2036  1  0.36359000  0.28527400  0.21858500  1
  C  2037  1  0.36158000  0.26694400  0.23720700  1
  C  2038  1  0.38137600  0.26452000  0.25701300  1
  C  2039  1  0.40543100  0.28033700  0.25518700  1
  C  2040  1  0.40656400  0.29968500  0.23757100  1
  C  2043  1  0.32292800  0.26874000  0.21651600  1
  C  2046  1  0.43863900  0.30477200  0.26529200  1
  C  2049  1  0.97533700  0.09956100  0.22200500  1
  C  2050  1  0.99495400  0.07983000  0.22614200  1
  C  2051  1  0.02427900  0.08454700  0.22534500  1
  C  2052  1  0.03584300  0.10768700  0.21761900  1
  C  2053  1  0.01618400  0.12425400  0.20622000  1
  C  2054  1  0.98687500  0.12076600  0.20983200  1
  C  2057  1  0.01615900  0.05135900  0.24617800  1
  C  2060  1  0.99531100  0.15849900  0.19934700  1
  C  2063  1  0.97536000  0.90727500  0.70064700  1
  C  2064  1  0.99500700  0.92691000  0.69634400  1
  C  2065  1  0.02430400  0.92223100  0.69733100  1
  C  2066  1  0.03594200  0.89905800  0.70503200  1
  C  2067  1  0.01612600  0.88261200  0.71643800  1
  C  2068  1  0.98683200  0.88599300  0.71267400  1
  C  2071  1  0.01616400  0.95558400  0.67665700  1
  C  2074  1  0.99518600  0.84843400  0.72361300  1
  C  2077  1  0.97543000  0.74283700  0.05785100  1
  C  2078  1  0.99495900  0.73853800  0.03809200  1
  C  2079  1  0.02431900  0.73961400  0.04270700  1
  C  2080  1  0.03589800  0.74738000  0.06588900  1
  C  2081  1  0.01615500  0.75886500  0.08229900  1
  C  2082  1  0.98688900  0.75507700  0.07899600  1
  C  2085  1  0.01614900  0.71847600  0.00961800  1
  C  2088  1  0.99525600  0.76623900  0.11653600  1
  C  2091  1  0.97535600  0.26405700  0.86505700  1
  C  2092  1  0.99491000  0.26842700  0.88478100  1
  C  2093  1  0.02424200  0.26769400  0.88002500  1
  C  2094  1  0.03579100  0.25981300  0.85689700  1
  C  2095  1  0.01606300  0.24846400  0.84037300  1
  C  2096  1  0.98675800  0.25178600  0.84389800  1
  C  2099  1  0.01607200  0.28860800  0.91313500  1
  C  2102  1  0.99527100  0.24094200  0.80623100  1
  C  2105  1  0.03660100  0.90743700  0.22194600  1
  C  2106  1  0.01698700  0.92714100  0.22608600  1
  C  2107  1  0.98768100  0.92230000  0.22541600  1
  C  2108  1  0.97602500  0.89911600  0.21784600  1
  C  2109  1  0.99579300  0.88263600  0.20641400  1
  C  2110  1  0.02511800  0.88616300  0.20987700  1
  C  2113  1  0.99577200  0.95556800  0.24615300  1
  C  2116  1  0.01671400  0.84841700  0.19945200  1
  C  2119  1  0.03643600  0.09961300  0.70045300  1
  C  2120  1  0.01677900  0.07995100  0.69623100  1
  C  2121  1  0.98746500  0.08451900  0.69725400  1
  C  2122  1  0.97590100  0.10766900  0.70496400  1
  C  2123  1  0.99558900  0.12428900  0.71626600  1
  C  2124  1  0.02487300  0.12091500  0.71243900  1
  C  2127  1  0.99567600  0.05120000  0.67658300  1
  C  2130  1  0.01647900  0.15850000  0.72331800  1
  C  2133  1  0.03646000  0.26408500  0.05777300  1
  C  2134  1  0.01690700  0.26833000  0.03800600  1
  C  2135  1  0.98754100  0.26726000  0.04259700  1
  C  2136  1  0.97587000  0.25960800  0.06578000  1
  C  2137  1  0.99564000  0.24810200  0.08217300  1
  C  2138  1  0.02491600  0.25184500  0.07887900  1
  C  2141  1  0.99574400  0.28832700  0.00946700  1
  C  2144  1  0.01652200  0.24070900  0.11642100  1
  C  2147  1  0.03664400  0.74291400  0.86502100  1
  C  2148  1  0.01709000  0.73863000  0.88477700  1
  C  2149  1  0.98773400  0.73928800  0.88011500  1
  C  2150  1  0.97592700  0.74697600  0.85702600  1
  C  2151  1  0.99565900  0.75840400  0.84051500  1
  C  2152  1  0.02499500  0.75519800  0.84396200  1
  C  2155  1  0.99609400  0.71845800  0.91324300  1
  C  2158  1  0.01631200  0.76609600  0.80633300  1
  C  2161  1  0.47532700  0.59956500  0.72208900  1
  C  2162  1  0.49492100  0.57982000  0.72624600  1
  C  2163  1  0.52425100  0.58451100  0.72546300  1
  C  2164  1  0.53584400  0.60764100  0.71774000  1
  C  2165  1  0.51621200  0.62423200  0.70634500  1
  C  2166  1  0.48689900  0.62076500  0.70993500  1
  C  2169  1  0.51608000  0.55132900  0.74628700  1
  C  2172  1  0.49538000  0.65849400  0.69945900  1
  C  2175  1  0.47533300  0.40725800  0.20056900  1
  C  2176  1  0.49496400  0.42690300  0.19624900  1
  C  2177  1  0.52426200  0.42224800  0.19724000  1
  C  2178  1  0.53592300  0.39908400  0.20494800  1
  C  2179  1  0.51612300  0.38262200  0.21635000  1
  C  2180  1  0.48682700  0.38598600  0.21259400  1
  C  2183  1  0.51609100  0.45559000  0.17655800  1
  C  2186  1  0.49521200  0.34843400  0.22353800  1
  C  2189  1  0.47543700  0.24271200  0.55786200  1
  C  2190  1  0.49495300  0.23837400  0.53810200  1
  C  2191  1  0.52431700  0.23945600  0.54269900  1
  C  2192  1  0.53591400  0.24725600  0.56586500  1
  C  2193  1  0.51618200  0.25876100  0.58226900  1
  C  2194  1  0.48691400  0.25497500  0.57898700  1
  C  2197  1  0.51612000  0.21827300  0.50964400  1
  C  2200  1  0.49530800  0.26618900  0.61650500  1
  C  2203  1  0.47534200  0.76419200  0.36503500  1
  C  2204  1  0.49488500  0.76858900  0.38475900  1
  C  2205  1  0.52421900  0.76785400  0.38001800  1
  C  2206  1  0.53578700  0.75995100  0.35690700  1
  C  2207  1  0.51607000  0.74859100  0.34037900  1
  C  2208  1  0.48676100  0.75190900  0.34388900  1
  C  2211  1  0.51602500  0.78879500  0.41310700  1
  C  2214  1  0.49529900  0.74103400  0.30623500  1
  C  2217  1  0.53659400  0.40743800  0.72204200  1
  C  2218  1  0.51699700  0.42714500  0.72622000  1
  C  2219  1  0.48768900  0.42233000  0.72553900  1
  C  2220  1  0.47600800  0.39916200  0.71794300  1
  C  2221  1  0.49576200  0.38267400  0.70649900  1
  C  2222  1  0.52509000  0.38618000  0.70995900  1
  C  2225  1  0.49581100  0.45557000  0.74631200  1
  C  2228  1  0.51665100  0.34844900  0.69949800  1
  C  2231  1  0.53646000  0.59960100  0.20037500  1
  C  2232  1  0.51682100  0.57993000  0.19613200  1
  C  2233  1  0.48750400  0.58447700  0.19715600  1
  C  2234  1  0.47591900  0.60761600  0.20487500  1
  C  2235  1  0.49559000  0.62425200  0.21617300  1
  C  2236  1  0.52487700  0.62089400  0.21235700  1
  C  2239  1  0.49574700  0.55116800  0.17647600  1
  C  2242  1  0.51644900  0.65847200  0.22324200  1
  C  2245  1  0.53644500  0.76423300  0.55775700  1
  C  2246  1  0.51689700  0.76852400  0.53799600  1
  C  2247  1  0.48752900  0.76743100  0.54257200  1
  C  2248  1  0.47585100  0.75972300  0.56573400  1
  C  2249  1  0.49562000  0.74819000  0.58211100  1
  C  2250  1  0.52489400  0.75194600  0.57883400  1
  C  2253  1  0.49574100  0.78857300  0.50949300  1
  C  2256  1  0.51648800  0.74072400  0.61634800  1
  C  2259  1  0.53666200  0.24279100  0.36500700  1
  C  2260  1  0.51712500  0.23847500  0.38477000  1
  C  2261  1  0.48776500  0.23912400  0.38012800  1
  C  2262  1  0.47593200  0.24683000  0.35705600  1
  C  2263  1  0.49564300  0.25827400  0.34053800  1
  C  2264  1  0.52498600  0.25508500  0.34396400  1
  C  2267  1  0.49616700  0.21827000  0.41323200  1
  C  2270  1  0.51626300  0.26601000  0.30635200  1
  N  1383  1  0.18437300  0.98810600  0.29890000  1
  N  1386  1  0.09477600  0.02411700  0.25001900  1
  N  1397  1  0.18443200  0.01900700  0.62365900  1
  N  1400  1  0.09489000  0.98276300  0.67253600  1
  N  1411  1  0.18438700  0.66635300  0.94592200  1
  N  1414  1  0.09444000  0.71456000  0.98201700  1
  N  1425  1  0.18436200  0.34079000  0.97670200  1
  N  1428  1  0.09442000  0.29232900  0.94072000  1
  N  1439  1  0.82750300  0.01892400  0.29881700  1
  N  1442  1  0.91706100  0.98264200  0.25020200  1
  N  1453  1  0.82741500  0.98792400  0.62379500  1
  N  1456  1  0.91706500  0.02419200  0.67259300  1
  N  1467  1  0.82750700  0.34060300  0.94584700  1
  N  1470  1  0.91728600  0.29233800  0.98219400  1
  N  1481  1  0.82757900  0.66622800  0.97703000  1
  N  1484  1  0.91743900  0.71451100  0.94058400  1
  N  1495  1  0.68449800  0.48804900  0.79881000  1
  N  1498  1  0.59483500  0.52414200  0.75008500  1
  N  1509  1  0.68454500  0.51901200  0.12373300  1
  N  1512  1  0.59492200  0.48276900  0.17249600  1
  N  1523  1  0.68438100  0.16625900  0.44590000  1
  N  1526  1  0.59446000  0.21448400  0.48201600  1
  N  1537  1  0.68439200  0.84083600  0.47671100  1
  N  1540  1  0.59444000  0.79242800  0.44068300  1
  N  1551  1  0.32738400  0.51895800  0.79873000  1
  N  1554  1  0.41701500  0.48264000  0.75024300  1
  N  1565  1  0.32729300  0.48790200  0.12386500  1
  N  1568  1  0.41703000  0.52414600  0.17255700  1
  N  1579  1  0.32750800  0.84069600  0.44582100  1
  N  1582  1  0.41726600  0.79240400  0.48216800  1
  N  1593  1  0.32753300  0.16618100  0.47706400  1
  N  1596  1  0.41741000  0.21442200  0.44059600  1
  N  1607  1  0.23403900  0.12490400  0.33039400  1
  N  1610  1  0.27765300  0.19931900  0.27473300  1
  N  1621  1  0.23423800  0.88217600  0.59260700  1
  N  1624  1  0.27786200  0.80748000  0.64793800  1
  N  1635  1  0.23409800  0.63454200  0.08287700  1
  N  1638  1  0.27767700  0.69008000  0.15738700  1
  N  1649  1  0.23424900  0.37218300  0.83997600  1
  N  1652  1  0.27777000  0.31679100  0.76530500  1
  N  1663  1  0.77778400  0.88198600  0.33023900  1
  N  1666  1  0.73401900  0.80745000  0.27479600  1
  N  1677  1  0.77762300  0.12466500  0.59260500  1
  N  1680  1  0.73391300  0.19940700  0.64779300  1
  N  1691  1  0.77780300  0.37223200  0.08290500  1
  N  1694  1  0.73404600  0.31687600  0.15750900  1
  N  1705  1  0.77751900  0.63465900  0.83998600  1
  N  1708  1  0.73397800  0.69005700  0.76534000  1
  N  1719  1  0.77758500  0.88132300  0.59344400  1
  N  1722  1  0.73400800  0.80667300  0.64874700  1
  N  1733  1  0.77773800  0.12551500  0.32927100  1
  N  1736  1  0.73409500  0.20024100  0.27405200  1
  N  1747  1  0.77752700  0.37122800  0.83933800  1
  N  1750  1  0.73403600  0.31612500  0.76450500  1
  N  1761  1  0.77745100  0.63552600  0.08351000  1
  N  1764  1  0.73416300  0.69102300  0.15816200  1
  N  1775  1  0.23408500  0.12559700  0.59351900  1
  N  1778  1  0.27791900  0.20032400  0.64860800  1
  N  1789  1  0.23417000  0.88132700  0.32946900  1
  N  1792  1  0.27775800  0.80674900  0.27404500  1
  N  1803  1  0.23431500  0.63567600  0.83923400  1
  N  1806  1  0.27787200  0.69080000  0.76441200  1
  N  1817  1  0.23424700  0.37127100  0.08350100  1
  N  1820  1  0.27774300  0.31605400  0.15825900  1
  N  1831  1  0.17618500  0.22905500  0.20772900  1
  N  1834  1  0.08533000  0.21973900  0.14932000  1
  N  1845  1  0.17625300  0.77794200  0.71484000  1
  N  1848  1  0.08542400  0.78707500  0.77353900  1
  N  1859  1  0.17616600  0.75728200  0.18675300  1
  N  1862  1  0.08516500  0.81551800  0.17781800  1
  N  1873  1  0.17626000  0.24959600  0.73575000  1
  N  1876  1  0.08496400  0.19157400  0.74492000  1
  N  1887  1  0.83565900  0.77787500  0.20788700  1
  N  1890  1  0.92642100  0.78697800  0.14926000  1
  N  1901  1  0.83563100  0.22905500  0.71484900  1
  N  1904  1  0.92642900  0.21985300  0.77349600  1
  N  1915  1  0.83566700  0.24955000  0.18674300  1
  N  1918  1  0.92677500  0.19132600  0.17783000  1
  N  1929  1  0.83552900  0.75733200  0.73573500  1
  N  1932  1  0.92679000  0.81532500  0.74509600  1
  N  1943  1  0.67611200  0.72892800  0.70767100  1
  N  1946  1  0.58524400  0.71987500  0.64926800  1
  N  1957  1  0.67622300  0.27800600  0.21483000  1
  N  1960  1  0.58543500  0.28700300  0.27359900  1
  N  1971  1  0.67619500  0.25730800  0.68672800  1
  N  1974  1  0.58512900  0.31545900  0.67773200  1
  N  1985  1  0.67625700  0.74958100  0.23577600  1
  N  1988  1  0.58493400  0.69159000  0.24495600  1
  N  1999  1  0.33567900  0.27792400  0.70787600  1
  N  2002  1  0.42644700  0.28695400  0.64924400  1
  N  2013  1  0.33565700  0.72895600  0.21484700  1
  N  2016  1  0.42642600  0.71990500  0.27355600  1
  N  2027  1  0.33563200  0.74953600  0.68670800  1
  N  2030  1  0.42678900  0.69137600  0.67776500  1
  N  2041  1  0.33552800  0.25734000  0.23580100  1
  N  2044  1  0.42682300  0.31530000  0.24513100  1
  N  2055  1  0.03685900  0.06686500  0.23890200  1
  N  2058  1  0.97456000  0.14286900  0.20620500  1
  N  2069  1  0.03683400  0.93997400  0.68381500  1
  N  2072  1  0.97441500  0.86400300  0.71665200  1
  N  2083  1  0.03678900  0.72578900  0.02516500  1
  N  2086  1  0.97456800  0.75888200  0.10106000  1
  N  2097  1  0.03681800  0.28121000  0.89773900  1
  N  2100  1  0.97453400  0.24808500  0.82177200  1
  N  2111  1  0.97510700  0.93997400  0.23898800  1
  N  2114  1  0.03747000  0.86408300  0.20620700  1
  N  2125  1  0.97495900  0.06675400  0.68375700  1
  N  2128  1  0.03725400  0.14293300  0.71636000  1
  N  2139  1  0.97509300  0.28105900  0.02502300  1
  N  2142  1  0.03722200  0.24804400  0.10094900  1
  N  2153  1  0.97527500  0.72576500  0.89788300  1
  N  2156  1  0.03712400  0.75898600  0.82180900  1
  N  2167  1  0.53680400  0.56681600  0.73902100  1
  N  2170  1  0.47460700  0.64287800  0.70629800  1
  N  2181  1  0.53677600  0.43999900  0.18372100  1
  N  2184  1  0.47442900  0.36399000  0.21658400  1
  N  2195  1  0.53677200  0.22560800  0.52517000  1
  N  2198  1  0.47460700  0.25881500  0.60105000  1
  N  2209  1  0.53678300  0.78138300  0.39772800  1
  N  2212  1  0.47455000  0.74818400  0.32176100  1
  N  2223  1  0.47513200  0.44000100  0.73912800  1
  N  2226  1  0.53742200  0.36409700  0.70626200  1
  N  2237  1  0.47501500  0.56670600  0.18365400  1
  N  2240  1  0.53724100  0.64291900  0.21628900  1
  N  2251  1  0.47508500  0.78126400  0.52502500  1
  N  2254  1  0.53719200  0.74809800  0.60089900  1
  N  2265  1  0.47532900  0.22558000  0.39789200  1
  N  2268  1  0.53709300  0.25890300  0.32180900  1
  O  1384  1  0.18173700  0.03050400  0.29947800  1
  O  1387  1  0.09619000  0.98164200  0.25128000  1
  O  1398  1  0.18194600  0.97661200  0.62325800  1
  O  1401  1  0.09617400  0.02525800  0.67129500  1
  O  1412  1  0.18188900  0.66589800  0.98826300  1
  O  1415  1  0.09587600  0.71338900  0.93960300  1
  O  1426  1  0.18169000  0.34141400  0.93428000  1
  O  1429  1  0.09603700  0.29344800  0.98314900  1
  O  1440  1  0.83002500  0.97652700  0.29944000  1
  O  1443  1  0.91578900  0.02511500  0.25140300  1
  O  1454  1  0.82990600  0.03032300  0.62336300  1
  O  1457  1  0.91578100  0.98169300  0.67137600  1
  O  1468  1  0.82989300  0.34105100  0.98819200  1
  O  1471  1  0.91601500  0.29348200  0.93977700  1
  O  1482  1  0.83005400  0.66556400  0.93459700  1
  O  1485  1  0.91610200  0.71346900  0.98302600  1
  O  1496  1  0.68188900  0.53044800  0.79942700  1
  O  1499  1  0.59622400  0.48166500  0.75131200  1
  O  1510  1  0.68205900  0.47661800  0.12332700  1
  O  1513  1  0.59621100  0.52526300  0.17126000  1
  O  1524  1  0.68189300  0.16579800  0.48824100  1
  O  1527  1  0.59588600  0.21331800  0.43960100  1
  O  1538  1  0.68174000  0.84147600  0.43428800  1
  O  1541  1  0.59603700  0.79353600  0.48311200  1
  O  1552  1  0.32989400  0.47656200  0.79937100  1
  O  1555  1  0.41575000  0.52511400  0.75142600  1
  O  1566  1  0.32979000  0.53030100  0.12344000  1
  O  1569  1  0.41573300  0.48164600  0.17133300  1
  O  1580  1  0.32989200  0.84114200  0.48816800  1
  O  1583  1  0.41599600  0.79354700  0.43975100  1
  O  1594  1  0.32999300  0.16551600  0.43462900  1
  O  1597  1  0.41608300  0.21338500  0.48303800  1
  O  1608  1  0.27951500  0.13543500  0.34098900  1
  O  1611  1  0.23185200  0.18913600  0.26446000  1
  O  1622  1  0.27975900  0.87177500  0.58203000  1
  O  1625  1  0.23202400  0.81756400  0.65819400  1
  O  1636  1  0.27953400  0.62387900  0.09345100  1
  O  1639  1  0.23189400  0.70038600  0.14717600  1
  O  1650  1  0.27972300  0.38281000  0.82947200  1
  O  1653  1  0.23195200  0.30654800  0.77545800  1
  O  1664  1  0.73227400  0.87157700  0.34084700  1
  O  1667  1  0.77985200  0.81751800  0.26451200  1
  O  1678  1  0.73212500  0.13506200  0.58195400  1
  O  1681  1  0.77973100  0.18932800  0.65811700  1
  O  1692  1  0.73232200  0.38290100  0.09333800  1
  O  1695  1  0.77986700  0.30657000  0.14742200  1
  O  1706  1  0.73206300  0.62400100  0.82944600  1
  O  1709  1  0.77977600  0.70034300  0.77552000  1
  O  1720  1  0.73227800  0.87060000  0.58256800  1
  O  1723  1  0.77981000  0.81687100  0.65909500  1
  O  1734  1  0.73237600  0.13611700  0.34008800  1
  O  1737  1  0.77993500  0.19013600  0.26374000  1
  O  1748  1  0.73225700  0.38216900  0.82856600  1
  O  1751  1  0.77980700  0.30572700  0.77473800  1
  O  1762  1  0.73212900  0.62476200  0.09429500  1
  O  1765  1  0.77999000  0.70122700  0.14791300  1
  O  1776  1  0.27944700  0.13614100  0.58264400  1
  O  1779  1  0.23207300  0.19029800  0.65897100  1
  O  1790  1  0.27951300  0.87064800  0.34027300  1
  O  1793  1  0.23193700  0.81692700  0.26374000  1
  O  1804  1  0.27962600  0.62478400  0.82854600  1
  O  1807  1  0.23206000  0.70114500  0.77457400  1
  O  1818  1  0.27954300  0.38216100  0.09424500  1
  O  1821  1  0.23194100  0.30572200  0.14805900  1
  O  1832  1  0.17337700  0.25885800  0.17762900  1
  O  1835  1  0.08683000  0.19127000  0.18082100  1
  O  1846  1  0.17364500  0.74822500  0.74503200  1
  O  1849  1  0.08679800  0.81560600  0.74205200  1
  O  1860  1  0.17351800  0.78740900  0.21643800  1
  O  1863  1  0.08669300  0.78414300  0.14931000  1
  O  1874  1  0.17330400  0.21957100  0.70583700  1
  O  1877  1  0.08684900  0.22289100  0.77351300  1
  O  1888  1  0.83834600  0.74800700  0.17783800  1
  O  1891  1  0.92504100  0.81551500  0.18070900  1
  O  1902  1  0.83827000  0.25874600  0.74505700  1
  O  1905  1  0.92502400  0.19134400  0.74199400  1
  O  1916  1  0.83833600  0.21945800  0.21647400  1
  O  1919  1  0.92519200  0.22267300  0.14928300  1
  O  1930  1  0.83854200  0.78741100  0.70588200  1
  O  1933  1  0.92488000  0.78396800  0.77364000  1
  O  1944  1  0.67337200  0.75879400  0.67763300  1
  O  1947  1  0.58670200  0.69135700  0.68072300  1
  O  1958  1  0.67367100  0.24825300  0.24499300  1
  O  1961  1  0.58675100  0.31556500  0.24213800  1
  O  1972  1  0.67351600  0.28746900  0.71637800  1
  O  1975  1  0.58669400  0.28406000  0.64925300  1
  O  1986  1  0.67330000  0.71953900  0.20587800  1
  O  1989  1  0.58682300  0.72292100  0.27353200  1
  O  2000  1  0.33834900  0.24803700  0.67784300  1
  O  2003  1  0.42508200  0.31550900  0.68067800  1
  O  2014  1  0.33824500  0.75869000  0.24501800  1
  O  2017  1  0.42507600  0.69135900  0.24208800  1
  O  2028  1  0.33831900  0.71942600  0.71641700  1
  O  2031  1  0.42518000  0.72273600  0.64923200  1
  O  2042  1  0.33854200  0.28741700  0.20594600  1
  O  2045  1  0.42490800  0.28394400  0.27367500  1
  O  2056  1  0.98941100  0.05935700  0.24048900  1
  O  2059  1  0.02195100  0.14859200  0.20067700  1
  O  2070  1  0.98939200  0.94740800  0.68206600  1
  O  2073  1  0.02184800  0.85830200  0.72212600  1
  O  2084  1  0.98941400  0.72396000  0.01778600  1
  O  2087  1  0.02189900  0.76428500  0.10668200  1
  O  2098  1  0.98932200  0.28275000  0.90526300  1
  O  2101  1  0.02192500  0.24290400  0.81606300  1
  O  2112  1  0.02252300  0.94764000  0.24039600  1
  O  2115  1  0.99006300  0.85828700  0.20088200  1
  O  2126  1  0.02243000  0.05945000  0.68196700  1
  O  2129  1  0.98982500  0.14860500  0.72190100  1
  O  2140  1  0.02246900  0.28284600  0.01765800  1
  O  2143  1  0.98988900  0.24267900  0.10655700  1
  O  2154  1  0.02278900  0.72437400  0.90528300  1
  O  2157  1  0.98970400  0.76402700  0.81623100  1
  O  2168  1  0.48934400  0.55935200  0.74059000  1
  O  2171  1  0.52200900  0.64856700  0.70080900  1
  O  2182  1  0.48932700  0.44739300  0.18196700  1
  O  2185  1  0.52186700  0.35831700  0.22204100  1
  O  2196  1  0.48939100  0.22377100  0.51781800  1
  O  2199  1  0.52194400  0.26421400  0.60664300  1
  O  2210  1  0.48928300  0.78292900  0.40522600  1
  O  2213  1  0.52194800  0.74301100  0.31607600  1
  O  2224  1  0.52255500  0.44762500  0.74055100  1
  O  2227  1  0.49000900  0.35833600  0.70094700  1
  O  2238  1  0.52249300  0.55943800  0.18186200  1
  O  2241  1  0.48980300  0.64856300  0.22181100  1
  O  2252  1  0.52246400  0.78308600  0.51768200  1
  O  2255  1  0.48985800  0.74271200  0.60647900  1
  O  2266  1  0.52285200  0.22420400  0.40525700  1
  O  2269  1  0.48966700  0.26391600  0.31626300  1
