# generated using pymatgen
data_H19C26N3
_symmetry_space_group_name_H-M   'P 1'
_cell_length_a   40.11300000
_cell_length_b   40.24740000
_cell_length_c   40.24740000
_cell_angle_alpha   89.95750000
_cell_angle_beta   89.96900000
_cell_angle_gamma   90.07520000
_symmetry_Int_Tables_number   1
_chemical_formula_structural   H19C26N3
_chemical_formula_sum   'H456 C624 N72'
_cell_volume   64977.08829658
_cell_formula_units_Z   24
loop_
 _symmetry_equiv_pos_site_id
 _symmetry_equiv_pos_as_xyz
  1  'x, y, z'
loop_
 _atom_site_type_symbol
 _atom_site_label
 _atom_site_symmetry_multiplicity
 _atom_site_fract_x
 _atom_site_fract_y
 _atom_site_fract_z
 _atom_site_occupancy
  H  7  1  0.76956700  0.70523500  0.78741300  1
  H  8  1  0.78673100  0.76887000  0.70655300  1
  H  9  1  0.70606000  0.78627700  0.77061600  1
  H  11  1  0.71711100  0.82299600  0.72697400  1
  H  13  1  0.82342600  0.72512300  0.71742300  1
  H  15  1  0.72607100  0.71640900  0.82437100  1
  H  22  1  0.76891200  0.42021500  0.34342800  1
  H  23  1  0.78693200  0.35685300  0.42427800  1
  H  24  1  0.70571300  0.33891900  0.36106900  1
  H  26  1  0.71710400  0.30248200  0.40486000  1
  H  28  1  0.82328100  0.40093500  0.41310500  1
  H  30  1  0.72482200  0.40892600  0.30712800  1
  H  37  1  0.35907400  0.70532900  0.34238900  1
  H  38  1  0.34198000  0.76879400  0.42327100  1
  H  39  1  0.42260500  0.78651100  0.35916300  1
  H  41  1  0.41155600  0.82315000  0.40278900  1
  H  43  1  0.30528900  0.72493400  0.41243300  1
  H  45  1  0.40259100  0.71662100  0.30544800  1
  H  52  1  0.35985700  0.42039700  0.78656500  1
  H  53  1  0.34187500  0.35696400  0.70581400  1
  H  54  1  0.42313100  0.33933200  0.76900600  1
  H  56  1  0.41176300  0.30285300  0.72529600  1
  H  58  1  0.30542300  0.40082900  0.71699400  1
  H  60  1  0.40396000  0.40924400  0.82287700  1
  H  67  1  0.35841100  0.78678600  0.70782900  1
  H  68  1  0.34146900  0.70685600  0.77269900  1
  H  69  1  0.42284400  0.77055800  0.78828700  1
  H  71  1  0.41162100  0.72787400  0.82598200  1
  H  73  1  0.30431900  0.71739000  0.72934500  1
  H  75  1  0.40236500  0.82358100  0.71802000  1
  H  82  1  0.36122600  0.34115900  0.42311800  1
  H  83  1  0.33176100  0.40263000  0.34438300  1
  H  84  1  0.42233300  0.35140400  0.33880100  1
  H  86  1  0.36350200  0.37039900  0.29269700  1
  H  88  1  0.30231900  0.40353100  0.39516700  1
  H  90  1  0.40813600  0.30600100  0.41568300  1
  H  97  1  0.76738300  0.34086300  0.70699300  1
  H  98  1  0.79747400  0.40201000  0.78574100  1
  H  99  1  0.70672800  0.35087900  0.79163500  1
  H  101  1  0.76605800  0.37025500  0.83766500  1
  H  103  1  0.82661600  0.40310900  0.73477500  1
  H  105  1  0.71993600  0.30611600  0.71428400  1
  H  112  1  0.77037400  0.78653000  0.42214200  1
  H  113  1  0.78717200  0.70681100  0.35717200  1
  H  114  1  0.70587000  0.77044400  0.34169400  1
  H  116  1  0.71708900  0.72795500  0.30388400  1
  H  118  1  0.82430300  0.71722000  0.40056600  1
  H  120  1  0.72649700  0.82333200  0.41200200  1
  H  169  1  0.10388200  0.56752800  0.83588300  1
  H  170  1  0.10020500  0.60622100  0.79068100  1
  H  171  1  0.05680200  0.63680500  0.89906200  1
  H  172  1  0.05448900  0.67603200  0.85436100  1
  H  173  1  0.01045600  0.63874200  0.80563000  1
  H  174  1  0.96124000  0.66657400  0.77814200  1
  H  175  1  0.04569600  0.71493200  0.74841600  1
  H  176  1  0.08232000  0.74789100  0.71679200  1
  H  177  1  0.14282700  0.66371200  0.81098900  1
  H  178  1  0.18239800  0.69804100  0.77561800  1
  H  179  1  0.19729300  0.71220300  0.68121200  1
  H  180  1  0.25565900  0.72584300  0.68001200  1
  H  181  1  0.18466700  0.77413700  0.76494900  1
  H  182  1  0.24286500  0.78674000  0.76447300  1
  H  183  1  0.16676000  0.77749000  0.66843900  1
  H  184  1  0.11755100  0.80471200  0.64036900  1
  H  185  1  0.94550600  0.77377900  0.69876400  1
  H  186  1  0.98509300  0.80965300  0.66497900  1
  H  187  1  0.07386200  0.85319300  0.67779000  1
  H  188  1  0.07181800  0.89805700  0.63873100  1
  H  189  1  0.02758000  0.79007800  0.60776700  1
  H  190  1  0.02410000  0.83546700  0.56928600  1
  H  191  1  0.93125700  0.67904200  0.71205000  1
  H  192  1  0.87286900  0.67692400  0.72545500  1
  H  193  1  0.88438500  0.76099200  0.78716300  1
  H  194  1  0.94259900  0.76241000  0.77474200  1
  H  196  1  0.04663900  0.92236100  0.58837100  1
  H  197  1  0.02649800  0.89710900  0.55929000  1
  H  199  1  0.83134300  0.73682600  0.78432600  1
  H  200  1  0.83374700  0.69353900  0.78046400  1
  H  202  1  0.08168000  0.58638200  0.92304500  1
  H  203  1  0.10234100  0.55770400  0.89779000  1
  H  205  1  0.29644100  0.78364700  0.74152900  1
  H  206  1  0.29456400  0.78098600  0.69808300  1
  H  255  1  0.10486200  0.55785600  0.29399400  1
  H  256  1  0.10107500  0.51915300  0.33919800  1
  H  257  1  0.05641600  0.48910300  0.23118800  1
  H  258  1  0.05398300  0.44985500  0.27587400  1
  H  259  1  0.01076200  0.48743800  0.32472000  1
  H  260  1  0.96131900  0.45993000  0.35229700  1
  H  261  1  0.04533700  0.41098100  0.38180600  1
  H  262  1  0.08158000  0.37796300  0.41343200  1
  H  263  1  0.14278000  0.46099000  0.31845500  1
  H  264  1  0.18205400  0.42591700  0.35334600  1
  H  265  1  0.19793400  0.41169300  0.44698900  1
  H  266  1  0.25585600  0.39643100  0.44770700  1
  H  267  1  0.18245500  0.34885100  0.36440300  1
  H  268  1  0.24025500  0.33450100  0.36447400  1
  H  269  1  0.16596900  0.34678200  0.46070500  1
  H  270  1  0.11655600  0.32038800  0.48934700  1
  H  271  1  0.94459800  0.35312800  0.43206800  1
  H  272  1  0.98388000  0.31706800  0.46588900  1
  H  273  1  0.07169000  0.27259500  0.45196300  1
  H  274  1  0.06994300  0.22772000  0.49100600  1
  H  275  1  0.02752500  0.33603200  0.52298800  1
  H  276  1  0.02436900  0.29063800  0.56152300  1
  H  277  1  0.93088000  0.44741500  0.41821300  1
  H  278  1  0.87249600  0.44937800  0.40482800  1
  H  279  1  0.88402800  0.36527100  0.34320600  1
  H  280  1  0.94223400  0.36399500  0.35561600  1
  H  282  1  0.04602800  0.20357500  0.54199200  1
  H  283  1  0.02646600  0.22884300  0.57142400  1
  H  285  1  0.83096200  0.38929700  0.34608400  1
  H  286  1  0.83323200  0.43258500  0.35005100  1
  H  288  1  0.08239000  0.53923400  0.20704800  1
  H  289  1  0.10268500  0.56809800  0.23242100  1
  H  291  1  0.29441200  0.33657000  0.38680300  1
  H  292  1  0.29407000  0.34136000  0.43012900  1
  H  341  1  0.02461800  0.56761800  0.29394300  1
  H  342  1  0.02822600  0.60625400  0.33915300  1
  H  343  1  0.07213700  0.63696600  0.23093300  1
  H  344  1  0.07436800  0.67614700  0.27563100  1
  H  345  1  0.11810700  0.63875100  0.32444300  1
  H  346  1  0.16734500  0.66661600  0.35191300  1
  H  347  1  0.08303100  0.71508000  0.38132100  1
  H  348  1  0.04647700  0.74737700  0.41341100  1
  H  349  1  0.98578600  0.66362200  0.31893800  1
  H  350  1  0.94624800  0.69785300  0.35428500  1
  H  351  1  0.93138500  0.71218000  0.44871600  1
  H  352  1  0.87304700  0.72579600  0.44992500  1
  H  353  1  0.94404300  0.77389900  0.36471000  1
  H  354  1  0.88587600  0.78648700  0.36520900  1
  H  355  1  0.96193700  0.77792900  0.46088000  1
  H  356  1  0.01116900  0.80522700  0.48891300  1
  H  357  1  0.18330500  0.77368100  0.43128900  1
  H  358  1  0.14379200  0.80954700  0.46501000  1
  H  359  1  0.05554100  0.85338100  0.45172700  1
  H  360  1  0.05768000  0.89823200  0.49072900  1
  H  361  1  0.10083100  0.79001700  0.52215200  1
  H  362  1  0.10441300  0.83539100  0.56058900  1
  H  363  1  0.19729800  0.67904600  0.41794500  1
  H  364  1  0.25566900  0.67688900  0.40449500  1
  H  365  1  0.24439000  0.76100500  0.34272600  1
  H  366  1  0.18619200  0.76246000  0.35518900  1
  H  368  1  0.08239800  0.92241500  0.54125300  1
  H  369  1  0.10255300  0.89718400  0.57033100  1
  H  371  1  0.29733600  0.73673800  0.34547800  1
  H  372  1  0.29477800  0.69346000  0.34943700  1
  H  374  1  0.04707000  0.58655800  0.20688800  1
  H  375  1  0.02652000  0.55772200  0.23215900  1
  H  377  1  0.83233000  0.78346300  0.38824800  1
  H  378  1  0.83423900  0.78084400  0.43169800  1
  H  427  1  0.02351900  0.55737200  0.83610200  1
  H  428  1  0.02727300  0.51877600  0.79087400  1
  H  429  1  0.07310100  0.48910000  0.89851100  1
  H  430  1  0.07553700  0.44994500  0.85379900  1
  H  431  1  0.11798500  0.48802300  0.80448200  1
  H  432  1  0.16742000  0.46056800  0.77702800  1
  H  433  1  0.08356900  0.41053200  0.74879800  1
  H  434  1  0.04714500  0.37755800  0.71687000  1
  H  435  1  0.98620900  0.46017100  0.81191500  1
  H  436  1  0.94689200  0.42509100  0.77700500  1
  H  437  1  0.93090200  0.41186200  0.68311100  1
  H  438  1  0.87297000  0.39649300  0.68229700  1
  H  439  1  0.94638200  0.34826300  0.76518000  1
  H  440  1  0.88857000  0.33380700  0.76502600  1
  H  441  1  0.96289500  0.34735600  0.66869100  1
  H  442  1  0.01230800  0.32105700  0.64010600  1
  H  443  1  0.18404800  0.35268700  0.69882600  1
  H  444  1  0.14474700  0.31665300  0.66493600  1
  H  445  1  0.05625200  0.27279800  0.67789700  1
  H  446  1  0.05799200  0.22794300  0.63889300  1
  H  447  1  0.10197700  0.33592800  0.60738300  1
  H  448  1  0.10511100  0.29054800  0.56891300  1
  H  449  1  0.19804100  0.44732500  0.71172000  1
  H  450  1  0.25643100  0.44927500  0.72508000  1
  H  451  1  0.24457500  0.36548800  0.78723700  1
  H  452  1  0.18635700  0.36425600  0.77487900  1
  H  454  1  0.08284100  0.20367300  0.58826100  1
  H  455  1  0.10228400  0.22903900  0.55875400  1
  H  457  1  0.29780700  0.38924300  0.78397600  1
  H  458  1  0.29567300  0.43254800  0.78002400  1
  H  460  1  0.04651200  0.53883200  0.92286200  1
  H  461  1  0.02615400  0.56767000  0.89752600  1
  H  463  1  0.83439100  0.33599200  0.74273600  1
  H  464  1  0.83468500  0.34124000  0.69946000  1
  H  513  1  0.56908600  0.83699300  0.10484900  1
  H  514  1  0.60722900  0.79135100  0.10076700  1
  H  515  1  0.63883500  0.89924300  0.05672200  1
  H  516  1  0.67761500  0.85412800  0.05413300  1
  H  517  1  0.64006100  0.80591000  0.01065600  1
  H  518  1  0.66767800  0.77802600  0.96165000  1
  H  519  1  0.71551300  0.74769400  0.04587600  1
  H  520  1  0.74758500  0.71535600  0.08238700  1
  H  521  1  0.66473100  0.81088800  0.14265200  1
  H  522  1  0.69847100  0.77507600  0.18212400  1
  H  523  1  0.71211800  0.68029100  0.19699100  1
  H  524  1  0.72566700  0.67905700  0.25516500  1
  H  525  1  0.77431200  0.76415200  0.18450200  1
  H  526  1  0.78677900  0.76367300  0.24251600  1
  H  527  1  0.77780200  0.66778200  0.16672900  1
  H  528  1  0.80491900  0.63944300  0.11773100  1
  H  529  1  0.77368800  0.69677300  0.94602500  1
  H  530  1  0.80915100  0.66261600  0.98554500  1
  H  531  1  0.85341600  0.67728100  0.07265500  1
  H  532  1  0.89854500  0.63843300  0.07110900  1
  H  533  1  0.78969300  0.60552300  0.02977600  1
  H  534  1  0.83529400  0.56709800  0.02699700  1
  H  535  1  0.67908600  0.71185700  0.93178700  1
  H  536  1  0.67738800  0.72527000  0.87358100  1
  H  537  1  0.76288400  0.78552200  0.88511000  1
  H  538  1  0.76389700  0.77310900  0.94313700  1
  H  540  1  0.92278400  0.58742300  0.04757000  1
  H  541  1  0.89738900  0.55765600  0.02858800  1
  H  543  1  0.73888500  0.78290300  0.83216100  1
  H  544  1  0.69535000  0.78002400  0.83453400  1
  H  546  1  0.58875600  0.92384000  0.08223600  1
  H  547  1  0.55977500  0.89882500  0.10297900  1
  H  549  1  0.78336900  0.74082300  0.29592500  1
  H  550  1  0.78115500  0.69734900  0.29385700  1
  H  599  1  0.55913700  0.29234400  0.10457200  1
  H  600  1  0.52055800  0.33760400  0.10039500  1
  H  601  1  0.48966300  0.22915100  0.05747600  1
  H  602  1  0.45048400  0.27390800  0.05473600  1
  H  603  1  0.48820500  0.32150300  0.01060800  1
  H  604  1  0.46069200  0.34838800  0.96097100  1
  H  605  1  0.41207700  0.37970800  0.04439200  1
  H  606  1  0.37984100  0.41300200  0.08022000  1
  H  607  1  0.46238500  0.31909400  0.14275100  1
  H  608  1  0.42977700  0.35722300  0.18122300  1
  H  609  1  0.43628100  0.44013300  0.19149900  1
  H  610  1  0.42966200  0.44432400  0.25065100  1
  H  611  1  0.34479700  0.38843300  0.18509400  1
  H  612  1  0.33771700  0.39347000  0.24387300  1
  H  613  1  0.35624700  0.46782700  0.16228900  1
  H  614  1  0.32695200  0.49335800  0.11273000  1
  H  615  1  0.35360200  0.42795000  0.94346300  1
  H  616  1  0.31800000  0.46290700  0.98219900  1
  H  617  1  0.27533100  0.45167500  0.07169800  1
  H  618  1  0.23035000  0.49070200  0.07052300  1
  H  619  1  0.33764700  0.52152300  0.02373400  1
  H  620  1  0.29216800  0.56012600  0.02144600  1
  H  621  1  0.44911000  0.41472000  0.93043700  1
  H  622  1  0.45173800  0.40104100  0.87235900  1
  H  623  1  0.36701700  0.33956700  0.88332200  1
  H  624  1  0.36509000  0.35226600  0.94127100  1
  H  626  1  0.20552500  0.54114700  0.04520100  1
  H  627  1  0.23088900  0.57085400  0.02599800  1
  H  629  1  0.39179400  0.34217600  0.83065000  1
  H  630  1  0.43520400  0.34615100  0.83333100  1
  H  632  1  0.54012300  0.20518800  0.08264300  1
  H  633  1  0.56890200  0.23049500  0.10321900  1
  H  635  1  0.35559200  0.43107800  0.29601800  1
  H  636  1  0.39912900  0.43449200  0.30135400  1
  H  685  1  0.56949300  0.29213700  0.02531900  1
  H  686  1  0.60827300  0.33732800  0.02936200  1
  H  687  1  0.63836600  0.22908500  0.07332200  1
  H  688  1  0.67776000  0.27376800  0.07593600  1
  H  689  1  0.64004400  0.32168400  0.11948900  1
  H  690  1  0.66764100  0.34854900  0.16908800  1
  H  691  1  0.71691900  0.37916700  0.08573600  1
  H  692  1  0.74909100  0.41270500  0.04977300  1
  H  693  1  0.66659100  0.31857600  0.98746900  1
  H  694  1  0.69925100  0.35674000  0.94893000  1
  H  695  1  0.69192700  0.43880300  0.93829800  1
  H  696  1  0.69854100  0.44288400  0.87913300  1
  H  697  1  0.78450800  0.38937300  0.94513400  1
  H  698  1  0.79155900  0.39431000  0.88633100  1
  H  699  1  0.77218000  0.46799100  0.96773700  1
  H  700  1  0.80154000  0.49353900  0.01726100  1
  H  701  1  0.77549700  0.42741100  0.18646300  1
  H  702  1  0.81110700  0.46246900  0.14768000  1
  H  703  1  0.85341700  0.45191000  0.05796400  1
  H  704  1  0.89837200  0.49108700  0.05915300  1
  H  705  1  0.79122100  0.52125900  0.10646600  1
  H  706  1  0.83667700  0.56000400  0.10875900  1
  H  707  1  0.67982400  0.41457700  0.19959300  1
  H  708  1  0.67714600  0.40086300  0.25768000  1
  H  709  1  0.76150500  0.33913400  0.24672100  1
  H  710  1  0.76346500  0.35185500  0.18876100  1
  H  712  1  0.92324200  0.54145500  0.08477900  1
  H  713  1  0.89785500  0.57103400  0.10400400  1
  H  715  1  0.73680500  0.34182500  0.29942100  1
  H  716  1  0.69341300  0.34586500  0.29673900  1
  H  718  1  0.58792800  0.20509700  0.04787000  1
  H  719  1  0.55926400  0.23043500  0.02722900  1
  H  721  1  0.77299100  0.43102300  0.83386200  1
  H  722  1  0.72940100  0.43363200  0.82854500  1
  H  771  1  0.55973500  0.83726100  0.02463000  1
  H  772  1  0.52145300  0.79162700  0.02863200  1
  H  773  1  0.49051600  0.89917900  0.07361100  1
  H  774  1  0.45158800  0.85407300  0.07613700  1
  H  775  1  0.48926200  0.80555000  0.11903300  1
  H  776  1  0.46156200  0.77770600  0.16807300  1
  H  777  1  0.41289000  0.74833400  0.08405300  1
  H  778  1  0.38133900  0.71533100  0.04751300  1
  H  779  1  0.46378100  0.81137300  0.98720500  1
  H  780  1  0.43001100  0.77552500  0.94775100  1
  H  781  1  0.41675600  0.68050800  0.93300500  1
  H  782  1  0.40318700  0.67911400  0.87483900  1
  H  783  1  0.35433300  0.76404800  0.94527100  1
  H  784  1  0.34183800  0.76341400  0.88726600  1
  H  785  1  0.35088000  0.66784500  0.96322700  1
  H  786  1  0.32377100  0.63941300  0.01225700  1
  H  787  1  0.35477900  0.69715100  0.18384600  1
  H  788  1  0.31932600  0.66286400  0.14438700  1
  H  789  1  0.27529300  0.67707800  0.05721500  1
  H  790  1  0.23019300  0.63807800  0.05876400  1
  H  791  1  0.33898600  0.60557900  0.10039400  1
  H  792  1  0.29341500  0.56700100  0.10318000  1
  H  793  1  0.44951900  0.71195900  0.19814500  1
  H  794  1  0.45121400  0.72541600  0.25631700  1
  H  795  1  0.36603000  0.78585100  0.24455600  1
  H  796  1  0.36504000  0.77341500  0.18655200  1
  H  798  1  0.20596100  0.58699400  0.08248800  1
  H  799  1  0.23140000  0.55725400  0.10139700  1
  H  801  1  0.38988000  0.78311300  0.29758200  1
  H  802  1  0.43341400  0.78027000  0.29524200  1
  H  804  1  0.54053000  0.92392200  0.04775000  1
  H  805  1  0.56943300  0.89894400  0.02698400  1
  H  807  1  0.34520800  0.74044100  0.83394800  1
  H  808  1  0.34766900  0.69699800  0.83612600  1
  H  857  1  0.83943800  0.10207000  0.56764900  1
  H  858  1  0.79337900  0.09836800  0.60546500  1
  H  859  1  0.90120500  0.05423700  0.63778900  1
  H  860  1  0.85567300  0.05203600  0.67624000  1
  H  861  1  0.80707000  0.00845200  0.63868700  1
  H  862  1  0.77912900  0.95966500  0.66685800  1
  H  863  1  0.74951000  0.04428900  0.71428100  1
  H  864  1  0.71667000  0.08124000  0.74561000  1
  H  865  1  0.81241100  0.14071600  0.66238600  1
  H  866  1  0.77546600  0.18048400  0.69462200  1
  H  867  1  0.68088600  0.19346100  0.70222900  1
  H  868  1  0.67573500  0.25153300  0.71509600  1
  H  869  1  0.75952600  0.18524100  0.77146700  1
  H  870  1  0.75483300  0.24308700  0.78378200  1
  H  871  1  0.66591300  0.16522600  0.77127700  1
  H  872  1  0.63861000  0.11648700  0.80024700  1
  H  873  1  0.69968500  0.94523900  0.77452400  1
  H  874  1  0.66552700  0.98510600  0.80951600  1
  H  875  1  0.67759800  0.07504400  0.85059200  1
  H  876  1  0.63895200  0.07293200  0.89593000  1
  H  877  1  0.60774500  0.02594600  0.78927900  1
  H  878  1  0.56968200  0.02251500  0.83514100  1
  H  879  1  0.71249700  0.93003500  0.67947300  1
  H  880  1  0.72557000  0.87176700  0.67803600  1
  H  881  1  0.78746600  0.88374700  0.76204900  1
  H  882  1  0.77539200  0.94184000  0.76277900  1
  H  884  1  0.58945900  0.04606300  0.92134300  1
  H  885  1  0.55997000  0.02594800  0.89647600  1
  H  887  1  0.78402900  0.83057700  0.73870900  1
  H  888  1  0.78059700  0.83263900  0.69534300  1
  H  890  1  0.92632500  0.07891000  0.58763000  1
  H  891  1  0.90157200  0.09978400  0.55861000  1
  H  893  1  0.72362000  0.29216700  0.78400400  1
  H  894  1  0.68270800  0.28868200  0.77007300  1
  H  943  1  0.28946300  0.10213100  0.56209100  1
  H  944  1  0.33547100  0.09839500  0.52423300  1
  H  945  1  0.22755000  0.05402700  0.49222500  1
  H  946  1  0.27302200  0.05182500  0.45371000  1
  H  947  1  0.32155800  0.00834100  0.49111000  1
  H  948  1  0.34944100  0.95961700  0.46297900  1
  H  949  1  0.37920200  0.04431900  0.41552000  1
  H  950  1  0.41241900  0.08123700  0.38460300  1
  H  951  1  0.31645700  0.14063300  0.46741300  1
  H  952  1  0.35340300  0.18047300  0.43511800  1
  H  953  1  0.44807100  0.19363400  0.42698000  1
  H  954  1  0.45296200  0.25179800  0.41422300  1
  H  955  1  0.36884400  0.18531300  0.35840600  1
  H  956  1  0.37326900  0.24322800  0.34623300  1
  H  957  1  0.46230000  0.16553100  0.35762000  1
  H  958  1  0.48960800  0.11685800  0.32875000  1
  H  959  1  0.42926100  0.94529100  0.35567300  1
  H  960  1  0.46344000  0.98520300  0.32059100  1
  H  961  1  0.45102200  0.07466300  0.27890300  1
  H  962  1  0.48971800  0.07253300  0.23362100  1
  H  963  1  0.52108900  0.02659600  0.34071600  1
  H  964  1  0.55920700  0.02312000  0.29491600  1
  H  965  1  0.41615800  0.93008200  0.45045000  1
  H  966  1  0.40310000  0.87177000  0.45185200  1
  H  967  1  0.34119700  0.88375200  0.36784900  1
  H  968  1  0.35326600  0.94188000  0.36714500  1
  H  970  1  0.53943000  0.04637000  0.20847200  1
  H  971  1  0.56871700  0.02601200  0.23334700  1
  H  973  1  0.34462800  0.83055200  0.39116700  1
  H  974  1  0.34810800  0.83250300  0.43453100  1
  H  976  1  0.20253600  0.07885300  0.54231100  1
  H  977  1  0.22737800  0.09976100  0.57124500  1
  H  979  1  0.40391500  0.29263800  0.34619200  1
  H  980  1  0.44513900  0.28926100  0.35925600  1
  H  1029  1  0.28964800  0.02113500  0.57052200  1
  H  1030  1  0.33585500  0.02537700  0.60806400  1
  H  1031  1  0.22837100  0.07076900  0.63981700  1
  H  1032  1  0.27402900  0.07351000  0.67803400  1
  H  1033  1  0.32257700  0.11605300  0.63946900  1
  H  1034  1  0.35041600  0.16531300  0.66676600  1
  H  1035  1  0.37998300  0.08158700  0.71579900  1
  H  1036  1  0.41309700  0.04530300  0.74743800  1
  H  1037  1  0.31704000  0.98427500  0.66572200  1
  H  1038  1  0.35340500  0.94509800  0.69924200  1
  H  1039  1  0.44875400  0.93104600  0.71138500  1
  H  1040  1  0.45088500  0.87295100  0.72519500  1
  H  1041  1  0.36571000  0.94274900  0.77486200  1
  H  1042  1  0.36712400  0.88482200  0.78768500  1
  H  1043  1  0.46175200  0.96141600  0.77732800  1
  H  1044  1  0.48969800  0.01066500  0.80450700  1
  H  1045  1  0.43041800  0.18176100  0.77353800  1
  H  1046  1  0.46471400  0.14257600  0.80920800  1
  H  1047  1  0.45179200  0.05455400  0.85305800  1
  H  1048  1  0.49096200  0.05681100  0.89787600  1
  H  1049  1  0.52229800  0.10000100  0.78956700  1
  H  1050  1  0.56092900  0.10362600  0.83488900  1
  H  1051  1  0.41662900  0.19563000  0.67898200  1
  H  1052  1  0.40325900  0.25382000  0.67701600  1
  H  1053  1  0.34165300  0.24224800  0.76138400  1
  H  1054  1  0.35402800  0.18422800  0.76264900  1
  H  1056  1  0.54174600  0.08124500  0.92198100  1
  H  1057  1  0.57069700  0.10180600  0.89678400  1
  H  1059  1  0.34469500  0.29521700  0.73743800  1
  H  1060  1  0.34825500  0.29292600  0.69410600  1
  H  1062  1  0.20297200  0.04423300  0.59047800  1
  H  1063  1  0.22789200  0.02382900  0.56127300  1
  H  1065  1  0.39119900  0.83194500  0.78494400  1
  H  1066  1  0.43460900  0.83435400  0.78068400  1
  H  1115  1  0.83921800  0.02071600  0.55952000  1
  H  1116  1  0.79296200  0.02481900  0.52203300  1
  H  1117  1  0.90021400  0.07113900  0.49035700  1
  H  1118  1  0.85449300  0.07379500  0.45220500  1
  H  1119  1  0.80572000  0.11571900  0.49111200  1
  H  1120  1  0.77796300  0.16498300  0.46381200  1
  H  1121  1  0.74909300  0.08138900  0.41419900  1
  H  1122  1  0.71597700  0.04499300  0.38233700  1
  H  1123  1  0.81194500  0.98418700  0.46404600  1
  H  1124  1  0.77561400  0.94497900  0.43044700  1
  H  1125  1  0.68013800  0.93064000  0.41891900  1
  H  1126  1  0.67798400  0.87255700  0.40511100  1
  H  1127  1  0.76278700  0.94275100  0.35495300  1
  H  1128  1  0.76136600  0.88483900  0.34213600  1
  H  1129  1  0.66654600  0.96121000  0.35330400  1
  H  1130  1  0.63860500  0.01046500  0.32617900  1
  H  1131  1  0.69906400  0.18143500  0.35618100  1
  H  1132  1  0.66475100  0.14224200  0.32049200  1
  H  1133  1  0.67680200  0.05371800  0.27727100  1
  H  1134  1  0.63770800  0.05610900  0.23238800  1
  H  1135  1  0.60684000  0.10032200  0.34031900  1
  H  1136  1  0.56831600  0.10409100  0.29492600  1
  H  1137  1  0.71203300  0.19525100  0.45105700  1
  H  1138  1  0.72540500  0.25346600  0.45306600  1
  H  1139  1  0.78749100  0.24212600  0.36905500  1
  H  1140  1  0.77512600  0.18407100  0.36776600  1
  H  1142  1  0.58735700  0.08138900  0.20804000  1
  H  1143  1  0.55843100  0.10190400  0.23321200  1
  H  1145  1  0.78425700  0.29508900  0.39291700  1
  H  1146  1  0.78050400  0.29274300  0.43623300  1
  H  1148  1  0.92577400  0.04420400  0.53953400  1
  H  1149  1  0.90084900  0.02387700  0.56886400  1
  H  1151  1  0.73740400  0.83186000  0.34504600  1
  H  1152  1  0.69400900  0.83412400  0.34947000  1
  C  1  1  0.74472600  0.78149000  0.73534600  1
  C  2  1  0.72560200  0.77175400  0.76323700  1
  C  3  1  0.73458400  0.74411800  0.78294700  1
  C  4  1  0.76229900  0.72486100  0.77299500  1
  C  5  1  0.78204900  0.73381700  0.74531400  1
  C  6  1  0.77224300  0.76161500  0.72618000  1
  C  16  1  0.74474300  0.34392700  0.39588700  1
  C  17  1  0.72532800  0.35352000  0.36819100  1
  C  18  1  0.73408800  0.38114000  0.34832100  1
  C  19  1  0.76186400  0.40054200  0.35792500  1
  C  20  1  0.78186500  0.39176500  0.38544500  1
  C  21  1  0.77233000  0.36392200  0.40469700  1
  C  31  1  0.38395400  0.78157000  0.39444500  1
  C  32  1  0.40307500  0.77191200  0.36655400  1
  C  33  1  0.39407000  0.74429100  0.34684100  1
  C  34  1  0.36635100  0.72495700  0.35679900  1
  C  35  1  0.34661700  0.73382600  0.38448500  1
  C  36  1  0.35642900  0.76162100  0.40361300  1
  C  46  1  0.38410400  0.34422000  0.73418200  1
  C  47  1  0.40351400  0.35388100  0.76186600  1
  C  48  1  0.39473600  0.38147200  0.78169500  1
  C  49  1  0.36693000  0.40076600  0.77208000  1
  C  50  1  0.34691600  0.39190200  0.74459300  1
  C  51  1  0.35649600  0.36412100  0.72535200  1
  C  61  1  0.38381900  0.73553200  0.78445500  1
  C  62  1  0.40309000  0.76309400  0.77406700  1
  C  63  1  0.39389600  0.78251800  0.74629300  1
  C  64  1  0.36584300  0.77253300  0.72751100  1
  C  65  1  0.34601100  0.74509600  0.73705600  1
  C  66  1  0.35601500  0.72627300  0.76499800  1
  C  76  1  0.37889800  0.38045000  0.33796400  1
  C  77  1  0.40238900  0.35907800  0.35267800  1
  C  78  1  0.39537700  0.34284600  0.38308400  1
  C  79  1  0.36666000  0.35258800  0.40106300  1
  C  80  1  0.34379500  0.37580000  0.38786000  1
  C  81  1  0.34979000  0.38878000  0.35576800  1
  C  91  1  0.75032500  0.37979500  0.79237500  1
  C  92  1  0.72669900  0.35849100  0.77772600  1
  C  93  1  0.73345000  0.34241700  0.74721600  1
  C  94  1  0.76212100  0.35217600  0.72912500  1
  C  95  1  0.78515900  0.37528400  0.74229400  1
  C  96  1  0.77935100  0.38818900  0.77442500  1
  C  106  1  0.74484000  0.73545500  0.34546600  1
  C  107  1  0.72563200  0.76298000  0.35588700  1
  C  108  1  0.73485600  0.78233300  0.38368500  1
  C  109  1  0.76288200  0.77230900  0.40246600  1
  C  110  1  0.78266800  0.74492200  0.39287500  1
  C  111  1  0.77262100  0.72615700  0.36492000  1
  C  121  1  0.01236300  0.65808700  0.78926900  1
  C  122  1  0.98550600  0.67323200  0.77419500  1
  C  123  1  0.99748200  0.69897600  0.75413000  1
  C  125  1  0.04134600  0.67463300  0.77929900  1
  C  126  1  0.07395200  0.66764900  0.79136800  1
  C  127  1  0.10347300  0.68275400  0.77905100  1
  C  129  1  0.13827500  0.71352000  0.74828500  1
  C  130  1  0.15718400  0.69686800  0.77218800  1
  C  131  1  0.13569000  0.67815500  0.79135900  1
  C  132  1  0.15071000  0.73541100  0.72352800  1
  C  133  1  0.13048400  0.75334200  0.70069400  1
  C  135  1  0.08663600  0.77822100  0.67611200  1
  C  136  1  0.11561400  0.78815600  0.65954100  1
  C  137  1  0.14247800  0.77334000  0.67491500  1
  C  138  1  0.05404300  0.79033200  0.66914600  1
  C  139  1  0.02450100  0.77779700  0.68402700  1
  C  141  1  0.98967900  0.74658900  0.71432600  1
  C  142  1  0.97073900  0.77047300  0.69768900  1
  C  143  1  0.99225100  0.78995800  0.67932200  1
  C  144  1  0.97724500  0.72163700  0.73599500  1
  C  145  1  0.94222800  0.72104200  0.74199800  1
  C  146  1  0.92803400  0.74462200  0.76376200  1
  C  147  1  0.89378000  0.74379200  0.77097700  1
  C  148  1  0.87293200  0.71899300  0.75720300  1
  C  149  1  0.88725200  0.69537800  0.73547900  1
  C  150  1  0.92144900  0.69659800  0.72761600  1
  C  151  1  0.05089700  0.81743300  0.64643300  1
  C  152  1  0.06307200  0.84924900  0.65508100  1
  C  153  1  0.06176800  0.87561600  0.63219100  1
  C  154  1  0.04743100  0.87113500  0.60042900  1
  C  155  1  0.03424900  0.83957700  0.59224000  1
  C  156  1  0.03637800  0.81291000  0.61476200  1
  C  157  1  0.18567100  0.74178000  0.72328800  1
  C  158  1  0.20681400  0.72768300  0.69901200  1
  C  159  1  0.24099300  0.73571300  0.69830700  1
  C  160  1  0.25495100  0.75721700  0.72235500  1
  C  161  1  0.23372800  0.77074600  0.74694700  1
  C  162  1  0.19948500  0.76341600  0.74722900  1
  C  163  1  0.07713300  0.64478500  0.81833500  1
  C  164  1  0.09154900  0.61311700  0.81358800  1
  C  165  1  0.06519100  0.65332100  0.85025500  1
  C  166  1  0.06667200  0.63033500  0.87653100  1
  C  167  1  0.08089200  0.59856300  0.87182700  1
  C  168  1  0.09380800  0.59047800  0.84014600  1
  C  195  1  0.04834900  0.89849400  0.57549700  1
  C  198  1  0.83709600  0.71678500  0.76682800  1
  C  201  1  0.08024600  0.57355900  0.89913000  1
  C  204  1  0.29084900  0.76675900  0.72091700  1
  C  207  1  0.01252000  0.46814000  0.34114500  1
  C  208  1  0.98553100  0.45315300  0.35624500  1
  C  209  1  0.99727900  0.42726400  0.37619900  1
  C  211  1  0.04135600  0.45135400  0.35099100  1
  C  212  1  0.07399600  0.45800300  0.33871400  1
  C  213  1  0.10338100  0.44251000  0.35076000  1
  C  215  1  0.13791100  0.41115000  0.38112400  1
  C  216  1  0.15690000  0.42753300  0.35705100  1
  C  217  1  0.13557000  0.44664200  0.33815000  1
  C  218  1  0.15016100  0.38902500  0.40572000  1
  C  219  1  0.12983400  0.37147700  0.42881100  1
  C  221  1  0.08576800  0.34729400  0.45388800  1
  C  222  1  0.11473100  0.33686600  0.47010200  1
  C  223  1  0.14170800  0.35130700  0.45447800  1
  C  224  1  0.05304100  0.33564500  0.46118200  1
  C  225  1  0.02358600  0.34843700  0.44645700  1
  C  227  1  0.98904100  0.37982400  0.41616900  1
  C  228  1  0.96988000  0.35616500  0.43297100  1
  C  229  1  0.99121200  0.33661700  0.45140200  1
  C  230  1  0.97684300  0.40478400  0.39442700  1
  C  231  1  0.94185900  0.40542400  0.38828600  1
  C  232  1  0.92767600  0.38179400  0.36654300  1
  C  233  1  0.89343300  0.38255600  0.35931100  1
  C  234  1  0.87257600  0.40729600  0.37309800  1
  C  235  1  0.88689300  0.43098100  0.39477600  1
  C  236  1  0.92108200  0.42984000  0.40264200  1
  C  237  1  0.04970800  0.30849900  0.48381400  1
  C  238  1  0.06130500  0.27657900  0.47485700  1
  C  239  1  0.06019500  0.25021100  0.49775300  1
  C  240  1  0.04662100  0.25479700  0.52984100  1
  C  241  1  0.03393700  0.28645200  0.53832900  1
  C  242  1  0.03585400  0.31311400  0.51577000  1
  C  243  1  0.18494600  0.38185300  0.40549000  1
  C  244  1  0.20675900  0.39563600  0.42935500  1
  C  245  1  0.24065400  0.38657200  0.42984100  1
  C  246  1  0.25364700  0.36419000  0.40606500  1
  C  247  1  0.23176600  0.35093100  0.38190900  1
  C  248  1  0.19779400  0.35938100  0.38179900  1
  C  249  1  0.07731700  0.48083400  0.31172200  1
  C  250  1  0.09217000  0.51235600  0.31635900  1
  C  251  1  0.06500700  0.47245500  0.27990200  1
  C  252  1  0.06653500  0.49545700  0.25363900  1
  C  253  1  0.08119400  0.52707800  0.25823600  1
  C  254  1  0.09446100  0.53501100  0.28980800  1
  C  281  1  0.04799700  0.22747300  0.55478100  1
  C  284  1  0.83670700  0.40932100  0.36361000  1
  C  287  1  0.08067800  0.55208000  0.23093200  1
  C  290  1  0.28949300  0.35440800  0.40676600  1
  C  293  1  0.11621200  0.65803900  0.34084100  1
  C  294  1  0.14308100  0.67314900  0.35596900  1
  C  295  1  0.13114800  0.69896800  0.37588800  1
  C  297  1  0.08726400  0.67459400  0.35073300  1
  C  298  1  0.05466900  0.66767300  0.33855400  1
  C  299  1  0.02516400  0.68275400  0.35082300  1
  C  301  1  0.99039300  0.71345200  0.38156100  1
  C  302  1  0.97146400  0.69673600  0.35770600  1
  C  303  1  0.99294400  0.67809400  0.33853200  1
  C  304  1  0.97797600  0.73533100  0.40627600  1
  C  305  1  0.99820700  0.75344200  0.42898100  1
  C  307  1  0.04210900  0.77845800  0.45349500  1
  C  308  1  0.01309800  0.78865700  0.46978200  1
  C  309  1  0.98622100  0.77370000  0.45451000  1
  C  310  1  0.07476200  0.79040300  0.46061400  1
  C  311  1  0.10429100  0.77780000  0.44584600  1
  C  313  1  0.13905300  0.74660100  0.41560500  1
  C  314  1  0.15804900  0.77045000  0.43226200  1
  C  315  1  0.13658200  0.78989300  0.45063800  1
  C  316  1  0.15143000  0.72166200  0.39396600  1
  C  317  1  0.18644900  0.72107400  0.38797200  1
  C  318  1  0.20070600  0.74466000  0.36618100  1
  C  319  1  0.23495200  0.74380000  0.35893100  1
  C  320  1  0.25572300  0.71897300  0.37270500  1
  C  321  1  0.24134200  0.69535800  0.39446400  1
  C  322  1  0.20715800  0.69661500  0.40237200  1
  C  323  1  0.07798800  0.81749400  0.48329700  1
  C  324  1  0.06613900  0.84937700  0.47451400  1
  C  325  1  0.06752700  0.87574600  0.49736200  1
  C  326  1  0.08158500  0.87118200  0.52923800  1
  C  327  1  0.09446600  0.83955400  0.53755800  1
  C  328  1  0.09227500  0.81289900  0.51506100  1
  C  329  1  0.94301600  0.74163600  0.40649200  1
  C  330  1  0.92187800  0.72762200  0.43087300  1
  C  331  1  0.88771300  0.73561500  0.43156600  1
  C  332  1  0.87377300  0.75705300  0.40744900  1
  C  333  1  0.89499200  0.77051100  0.38276500  1
  C  334  1  0.92922200  0.76320700  0.38248400  1
  C  335  1  0.05149200  0.64485800  0.31157500  1
  C  336  1  0.03698300  0.61318000  0.31627700  1
  C  337  1  0.06357600  0.65343600  0.27969600  1
  C  338  1  0.06217500  0.63046600  0.25343200  1
  C  339  1  0.04785000  0.59869100  0.25808900  1
  C  340  1  0.03479700  0.59056200  0.28972200  1
  C  367  1  0.08069300  0.89853300  0.55414200  1
  C  370  1  0.29153700  0.71671700  0.36303000  1
  C  373  1  0.04856300  0.57371200  0.23080400  1
  C  376  1  0.83789900  0.76659500  0.40889500  1
  C  379  1  0.11621000  0.46880700  0.78798900  1
  C  380  1  0.14320100  0.45382000  0.77298600  1
  C  381  1  0.13147200  0.42761900  0.75343400  1
  C  383  1  0.08743400  0.45163000  0.77855000  1
  C  384  1  0.05487000  0.45792600  0.79114600  1
  C  385  1  0.02549800  0.44223200  0.77926200  1
  C  387  1  0.99094700  0.41087500  0.74889000  1
  C  388  1  0.97201900  0.42690600  0.77318900  1
  C  389  1  0.99336700  0.44602000  0.79209300  1
  C  390  1  0.97867600  0.38890700  0.72417600  1
  C  391  1  0.99901300  0.37160100  0.70097900  1
  C  393  1  0.04304400  0.34750900  0.67596800  1
  C  394  1  0.01412500  0.33741300  0.65943600  1
  C  395  1  0.98715300  0.35183200  0.67500100  1
  C  396  1  0.07571900  0.33570500  0.66888200  1
  C  397  1  0.10515300  0.34838000  0.68378700  1
  C  399  1  0.13969800  0.37973400  0.71414200  1
  C  400  1  0.15880200  0.35586200  0.69768700  1
  C  401  1  0.13746200  0.33633200  0.67921500  1
  C  402  1  0.15191600  0.40481700  0.73572900  1
  C  403  1  0.18688800  0.40551900  0.74194100  1
  C  404  1  0.20098000  0.38198600  0.76384100  1
  C  405  1  0.23523900  0.38269900  0.77101300  1
  C  406  1  0.25619700  0.40733400  0.75705800  1
  C  407  1  0.24196200  0.43095400  0.73526100  1
  C  408  1  0.20776600  0.42981900  0.72740400  1
  C  409  1  0.07900200  0.30855400  0.64629600  1
  C  410  1  0.06691600  0.27673300  0.65511100  1
  C  411  1  0.06803800  0.25037000  0.63225200  1
  C  412  1  0.08210100  0.25486300  0.60035100  1
  C  413  1  0.09526900  0.28640500  0.59200900  1
  C  414  1  0.09330700  0.31307800  0.61451100  1
  C  415  1  0.94389300  0.38164100  0.72435200  1
  C  416  1  0.92207800  0.39560100  0.70060500  1
  C  417  1  0.88817600  0.38648500  0.70007100  1
  C  418  1  0.87517500  0.36386100  0.72367900  1
  C  419  1  0.89706000  0.35042000  0.74772100  1
  C  420  1  0.93104300  0.35892000  0.74786800  1
  C  421  1  0.05161200  0.48069900  0.81815100  1
  C  422  1  0.03644200  0.51205500  0.81363500  1
  C  423  1  0.06429600  0.47243100  0.84985700  1
  C  424  1  0.06276100  0.49537000  0.87613700  1
  C  425  1  0.04774100  0.52681100  0.87167000  1
  C  426  1  0.03413900  0.53463400  0.84021100  1
  C  453  1  0.08078200  0.22755300  0.57543100  1
  C  456  1  0.29209300  0.40930900  0.76647100  1
  C  459  1  0.04819700  0.55175000  0.89899400  1
  C  462  1  0.83931300  0.35404700  0.72293300  1
  C  465  1  0.65923200  0.78931900  0.01258600  1
  C  466  1  0.67426200  0.77402900  0.98584000  1
  C  467  1  0.69973300  0.75360600  0.99780500  1
  C  469  1  0.67559800  0.77914500  0.04149300  1
  C  470  1  0.66865300  0.79129100  0.07398700  1
  C  471  1  0.68353100  0.77876400  0.10342900  1
  C  473  1  0.71384800  0.74761700  0.13816300  1
  C  474  1  0.69734900  0.77166300  0.15699300  1
  C  475  1  0.67895900  0.79108800  0.13554100  1
  C  476  1  0.73551700  0.72268500  0.15060300  1
  C  477  1  0.75338600  0.69972000  0.13049500  1
  C  479  1  0.77815200  0.67486900  0.08682000  1
  C  480  1  0.78826500  0.65853800  0.11576000  1
  C  481  1  0.77349300  0.67405500  0.14250900  1
  C  482  1  0.79015300  0.66767200  0.05431800  1
  C  483  1  0.77766400  0.68245100  0.02482600  1
  C  485  1  0.74680200  0.71303200  0.99006600  1
  C  486  1  0.77041700  0.69589600  0.97119400  1
  C  487  1  0.78968000  0.67733100  0.99266200  1
  C  488  1  0.72217200  0.73507800  0.97765600  1
  C  489  1  0.72176800  0.74108000  0.94274900  1
  C  490  1  0.74587700  0.76243300  0.92861200  1
  C  491  1  0.74528400  0.76964700  0.89446700  1
  C  492  1  0.72020200  0.75629100  0.87366900  1
  C  493  1  0.69604600  0.73499200  0.88793200  1
  C  494  1  0.69702300  0.72711900  0.92202300  1
  C  495  1  0.81736400  0.64504300  0.05127600  1
  C  496  1  0.84940500  0.65423500  0.06265400  1
  C  497  1  0.87592000  0.63145900  0.06165800  1
  C  498  1  0.87132600  0.59921200  0.04852500  1
  C  499  1  0.83948700  0.59041000  0.03623500  1
  C  500  1  0.81270900  0.61290300  0.03792500  1
  C  501  1  0.74181600  0.72244400  0.18545700  1
  C  502  1  0.72761900  0.69812100  0.20650300  1
  C  503  1  0.73559100  0.69739900  0.24057100  1
  C  504  1  0.75710600  0.72149800  0.25451700  1
  C  505  1  0.77074100  0.74613100  0.23339000  1
  C  506  1  0.76350100  0.74641000  0.19925200  1
  C  507  1  0.64603200  0.81849300  0.07716900  1
  C  508  1  0.61435400  0.81414800  0.09195800  1
  C  509  1  0.65487900  0.85029100  0.06507100  1
  C  510  1  0.63216800  0.87681700  0.06672800  1
  C  511  1  0.60041300  0.87251600  0.08136800  1
  C  512  1  0.59205200  0.84097700  0.09449200  1
  C  539  1  0.89889200  0.57448100  0.04987300  1
  C  542  1  0.71832800  0.76588600  0.83792800  1
  C  545  1  0.57562300  0.90004200  0.08087400  1
  C  548  1  0.76664700  0.72002500  0.29028200  1
  C  551  1  0.46895900  0.33804800  0.01214600  1
  C  552  1  0.45401900  0.35283400  0.98506000  1
  C  553  1  0.42828400  0.37321400  0.99652700  1
  C  555  1  0.45239100  0.34864100  0.04078800  1
  C  556  1  0.45921400  0.33710800  0.07354200  1
  C  557  1  0.44468300  0.35074700  0.10265000  1
  C  559  1  0.41576400  0.38406300  0.13645900  1
  C  560  1  0.43129300  0.35995800  0.15601800  1
  C  561  1  0.44889800  0.33921900  0.13511800  1
  C  562  1  0.39525200  0.41028600  0.14805200  1
  C  563  1  0.37705100  0.43229900  0.12725900  1
  C  565  1  0.35085500  0.45482500  0.08326100  1
  C  566  1  0.34254800  0.47333700  0.11144000  1
  C  567  1  0.35861300  0.45953600  0.13840700  1
  C  568  1  0.33788700  0.46040600  0.05084900  1
  C  569  1  0.34992000  0.44449000  0.02179400  1
  C  571  1  0.38090000  0.41323900  0.98779200  1
  C  572  1  0.35693300  0.42950200  0.96858500  1
  C  573  1  0.33754300  0.44843700  0.98962000  1
  C  574  1  0.40583200  0.39123600  0.97593300  1
  C  575  1  0.40673700  0.38491100  0.94111400  1
  C  576  1  0.38313900  0.36310500  0.92687300  1
  C  577  1  0.38429300  0.35570500  0.89278900  1
  C  578  1  0.40940700  0.36936300  0.87218100  1
  C  579  1  0.43306800  0.39108500  0.88656900  1
  C  580  1  0.43153500  0.39912800  0.92058000  1
  C  581  1  0.31060100  0.48287600  0.04756200  1
  C  582  1  0.27901000  0.47427800  0.06058300  1
  C  583  1  0.25259000  0.49716900  0.05984500  1
  C  584  1  0.25683000  0.52892000  0.04540100  1
  C  585  1  0.28818400  0.53710400  0.03150600  1
  C  586  1  0.31489100  0.51451100  0.03290500  1
  C  587  1  0.39127600  0.41368500  0.18300500  1
  C  588  1  0.41544500  0.43025500  0.20241000  1
  C  589  1  0.41144600  0.43284100  0.23706800  1
  C  590  1  0.38320100  0.41905600  0.25301800  1
  C  591  1  0.35862500  0.40341800  0.23320300  1
  C  592  1  0.36270400  0.40046200  0.19866900  1
  C  593  1  0.48181300  0.30995900  0.07736900  1
  C  594  1  0.51353300  0.31466100  0.09192900  1
  C  595  1  0.47320200  0.27799700  0.06558600  1
  C  596  1  0.49617200  0.25169000  0.06728500  1
  C  597  1  0.52802500  0.25639300  0.08156600  1
  C  598  1  0.53615200  0.28808300  0.09440600  1
  C  625  1  0.22953500  0.55390200  0.04722600  1
  C  628  1  0.41185300  0.35972900  0.83650000  1
  C  631  1  0.55306400  0.22908300  0.08113500  1
  C  634  1  0.37947400  0.41956300  0.28984900  1
  C  637  1  0.65939600  0.33815500  0.11793400  1
  C  638  1  0.67433400  0.35298800  0.14499200  1
  C  639  1  0.70028900  0.37316800  0.13350600  1
  C  641  1  0.67615400  0.34856100  0.08930400  1
  C  642  1  0.66944300  0.33687400  0.05659600  1
  C  643  1  0.68411700  0.35042500  0.02748300  1
  C  645  1  0.71307500  0.38377100  0.99362200  1
  C  646  1  0.69769100  0.35951400  0.97412400  1
  C  647  1  0.68003300  0.33877400  0.99505500  1
  C  648  1  0.73349700  0.41011300  0.98198400  1
  C  649  1  0.75164700  0.43219500  0.00276300  1
  C  651  1  0.77790000  0.45473000  0.04671500  1
  C  652  1  0.78603100  0.47340600  0.01855400  1
  C  653  1  0.76993200  0.45959700  0.99161200  1
  C  654  1  0.79093200  0.46029100  0.07910100  1
  C  655  1  0.77892900  0.44429900  0.10816700  1
  C  657  1  0.74796100  0.41294700  0.14219700  1
  C  658  1  0.77207400  0.42908400  0.16135900  1
  C  659  1  0.79144000  0.44810200  0.14030400  1
  C  660  1  0.72294500  0.39097500  0.15408900  1
  C  661  1  0.72201000  0.38463300  0.18891300  1
  C  662  1  0.74548800  0.36274400  0.20316100  1
  C  663  1  0.74432900  0.35534600  0.23725700  1
  C  664  1  0.71930000  0.36906300  0.25786800  1
  C  665  1  0.69575100  0.39086000  0.24347100  1
  C  666  1  0.69731400  0.39892400  0.20945200  1
  C  667  1  0.81820400  0.48285000  0.08235400  1
  C  668  1  0.84974600  0.47445000  0.06915300  1
  C  669  1  0.87616300  0.49741300  0.06993600  1
  C  670  1  0.87195200  0.52905900  0.08454000  1
  C  671  1  0.84064500  0.53704900  0.09859900  1
  C  672  1  0.81394900  0.51437400  0.09718900  1
  C  673  1  0.73749800  0.41351700  0.94702000  1
  C  674  1  0.71299500  0.42939700  0.92747800  1
  C  675  1  0.71699600  0.43193900  0.89281300  1
  C  676  1  0.74556600  0.41878500  0.87698600  1
  C  677  1  0.77044800  0.40383800  0.89692400  1
  C  678  1  0.76637300  0.40092100  0.93146800  1
  C  679  1  0.64675000  0.30974000  0.05282200  1
  C  680  1  0.61513600  0.31442600  0.03804900  1
  C  681  1  0.65513300  0.27783500  0.06490600  1
  C  682  1  0.63202600  0.25158000  0.06330800  1
  C  683  1  0.60029300  0.25626200  0.04878400  1
  C  684  1  0.59240300  0.28788300  0.03563900  1
  C  711  1  0.89922500  0.55414000  0.08276000  1
  C  714  1  0.71681900  0.35941000  0.29355800  1
  C  717  1  0.57510700  0.22902400  0.04930800  1
  C  720  1  0.74929000  0.41913300  0.84015300  1
  C  723  1  0.47020600  0.78878200  0.11711000  1
  C  724  1  0.45509800  0.77354300  0.14388400  1
  C  725  1  0.42930600  0.75344700  0.13197400  1
  C  727  1  0.45352500  0.77892700  0.08827000  1
  C  728  1  0.46021400  0.79139500  0.05582200  1
  C  729  1  0.44518600  0.77899900  0.02640700  1
  C  731  1  0.41485200  0.74781900  0.99169800  1
  C  732  1  0.43122300  0.77202700  0.97287300  1
  C  733  1  0.44960900  0.79148500  0.99431400  1
  C  734  1  0.39321800  0.72281100  0.97928100  1
  C  735  1  0.37534300  0.69980200  0.99942000  1
  C  737  1  0.35053600  0.67490100  0.04313200  1
  C  738  1  0.34037700  0.65859600  0.01420600  1
  C  739  1  0.35527700  0.67405000  0.98744100  1
  C  740  1  0.33855000  0.66767000  0.07564800  1
  C  741  1  0.35099700  0.68254400  0.10510600  1
  C  743  1  0.38185000  0.71323000  0.13980100  1
  C  744  1  0.35808500  0.69622600  0.15868500  1
  C  745  1  0.33886400  0.67754900  0.13725700  1
  C  746  1  0.40658800  0.73522600  0.15217000  1
  C  747  1  0.40700400  0.74128500  0.18706000  1
  C  748  1  0.38298700  0.76270700  0.20112000  1
  C  749  1  0.38356800  0.76993300  0.23525500  1
  C  750  1  0.40855000  0.75652900  0.25611500  1
  C  751  1  0.43262900  0.73517900  0.24192100  1
  C  752  1  0.43163200  0.72725100  0.20785600  1
  C  753  1  0.31133100  0.64498200  0.07873600  1
  C  754  1  0.27930400  0.65405600  0.06727700  1
  C  755  1  0.25280400  0.63119300  0.06828700  1
  C  756  1  0.25739900  0.59897800  0.08151500  1
  C  757  1  0.28920600  0.59030800  0.09393000  1
  C  758  1  0.31598100  0.61287600  0.09219200  1
  C  759  1  0.38695300  0.72252400  0.94442300  1
  C  760  1  0.40120000  0.69823800  0.92344600  1
  C  761  1  0.39322500  0.69743000  0.88938200  1
  C  762  1  0.37163600  0.72139100  0.87537300  1
  C  763  1  0.35796200  0.74599800  0.89642800  1
  C  764  1  0.36520400  0.74635600  0.93056400  1
  C  765  1  0.48289200  0.81861000  0.05264700  1
  C  766  1  0.51446300  0.81435900  0.03763300  1
  C  767  1  0.47424400  0.85030700  0.06504400  1
  C  768  1  0.49703500  0.87682800  0.06341700  1
  C  769  1  0.52867800  0.87262000  0.04854000  1
  C  770  1  0.53685000  0.84118300  0.03515400  1
  C  797  1  0.22986400  0.57414500  0.08014400  1
  C  800  1  0.41041200  0.76611600  0.29184600  1
  C  803  1  0.55357800  0.90010800  0.04908200  1
  C  806  1  0.36205800  0.71979300  0.83962400  1
  C  809  1  0.79055500  0.01052700  0.65791800  1
  C  810  1  0.77521100  0.98391500  0.67322500  1
  C  811  1  0.75499500  0.99609900  0.69873900  1
  C  813  1  0.78054400  0.03956200  0.67409400  1
  C  814  1  0.79279200  0.07198700  0.66685300  1
  C  815  1  0.77993300  0.10157300  0.68108200  1
  C  817  1  0.74780700  0.13654100  0.70996700  1
  C  818  1  0.77220200  0.15531000  0.69377000  1
  C  819  1  0.79226200  0.13369500  0.67627100  1
  C  820  1  0.72213700  0.14908000  0.73068400  1
  C  821  1  0.69936900  0.12900900  0.74898300  1
  C  823  1  0.67539600  0.08564300  0.77526300  1
  C  824  1  0.65807800  0.11446000  0.78398100  1
  C  825  1  0.67297300  0.14104000  0.76817600  1
  C  826  1  0.66893200  0.05342200  0.78841800  1
  C  827  1  0.68423900  0.02388500  0.77670300  1
  C  829  1  0.71490500  0.98882800  0.74629400  1
  C  830  1  0.69838900  0.97029600  0.77062500  1
  C  831  1  0.67986400  0.99197300  0.78966900  1
  C  832  1  0.73669600  0.97615300  0.72158500  1
  C  833  1  0.74257700  0.94123300  0.72138200  1
  C  834  1  0.76431100  0.92721000  0.74513600  1
  C  835  1  0.77131600  0.89302700  0.74471300  1
  C  836  1  0.75737500  0.87207300  0.72014800  1
  C  837  1  0.73571900  0.88623000  0.69632600  1
  C  838  1  0.72804800  0.92036000  0.69715000  1
  C  839  1  0.64628300  0.05068400  0.81568400  1
  C  840  1  0.65498600  0.06374200  0.84710700  1
  C  841  1  0.63235500  0.06238300  0.87375900  1
  C  842  1  0.60081700  0.04714800  0.86997300  1
  C  843  1  0.59252000  0.03326800  0.83877200  1
  C  844  1  0.61477200  0.03540900  0.81181600  1
  C  845  1  0.72081600  0.18411400  0.73550900  1
  C  846  1  0.69712700  0.20397000  0.71878800  1
  C  847  1  0.69422100  0.23803600  0.72623500  1
  C  848  1  0.71510400  0.25302300  0.75024200  1
  C  849  1  0.73965000  0.23322300  0.76589900  1
  C  850  1  0.74237700  0.19916700  0.75878400  1
  C  851  1  0.82024900  0.07497800  0.64443900  1
  C  852  1  0.81617000  0.08957700  0.61275200  1
  C  853  1  0.85203500  0.06285400  0.65350000  1
  C  854  1  0.87881200  0.06430800  0.63099400  1
  C  855  1  0.87477300  0.07875100  0.59922600  1
  C  856  1  0.84324700  0.09190100  0.59064400  1
  C  883  1  0.57618400  0.04779900  0.89767100  1
  C  886  1  0.76673300  0.83627200  0.71842300  1
  C  889  1  0.90245000  0.07777400  0.57455500  1
  C  892  1  0.70863000  0.28762000  0.76176100  1
  C  895  1  0.33807600  0.01045700  0.47187900  1
  C  896  1  0.35342500  0.98387900  0.45662300  1
  C  897  1  0.37360600  0.99610900  0.43105900  1
  C  899  1  0.34814800  0.03952300  0.45570400  1
  C  900  1  0.33593500  0.07192600  0.46291700  1
  C  901  1  0.34882300  0.10154000  0.44865300  1
  C  903  1  0.38095500  0.13658100  0.41969600  1
  C  904  1  0.35665400  0.15530800  0.43598700  1
  C  905  1  0.33657300  0.13364800  0.45350100  1
  C  906  1  0.40655800  0.14918400  0.39886900  1
  C  907  1  0.42920600  0.12919000  0.38043400  1
  C  909  1  0.45315900  0.08585000  0.35418500  1
  C  910  1  0.47018300  0.11477300  0.34506600  1
  C  911  1  0.45536200  0.14131400  0.36091400  1
  C  912  1  0.45976700  0.05358500  0.34129100  1
  C  913  1  0.44451300  0.02401100  0.35313300  1
  C  915  1  0.41383500  0.98890500  0.38362100  1
  C  916  1  0.43043300  0.97037800  0.35940500  1
  C  917  1  0.44901300  0.99207300  0.34034900  1
  C  918  1  0.39199900  0.97620300  0.40832900  1
  C  919  1  0.38607100  0.94127700  0.40855200  1
  C  920  1  0.36433700  0.92724700  0.38479100  1
  C  921  1  0.35731200  0.89304900  0.38521500  1
  C  922  1  0.37127700  0.87208000  0.40975400  1
  C  923  1  0.39292900  0.88624800  0.43358500  1
  C  924  1  0.40060700  0.92039700  0.43277000  1
  C  925  1  0.48244300  0.05083200  0.31405900  1
  C  926  1  0.47368300  0.06355200  0.28250200  1
  C  927  1  0.49634900  0.06218300  0.25588500  1
  C  928  1  0.52798000  0.04725700  0.25984200  1
  C  929  1  0.53632100  0.03367400  0.29117100  1
  C  930  1  0.51402900  0.03583700  0.31808800  1
  C  931  1  0.40786600  0.18422900  0.39402800  1
  C  932  1  0.43167700  0.20412700  0.41057200  1
  C  933  1  0.43442400  0.23824200  0.40320600  1
  C  934  1  0.41326900  0.25323200  0.37945300  1
  C  935  1  0.38864300  0.23336500  0.36394500  1
  C  936  1  0.38607100  0.19926700  0.37097800  1
  C  937  1  0.30852200  0.07487200  0.48538300  1
  C  938  1  0.31266300  0.08954200  0.51701400  1
  C  939  1  0.27670900  0.06268100  0.47641500  1
  C  940  1  0.24997000  0.06412900  0.49895900  1
  C  941  1  0.25407100  0.07864700  0.53066700  1
  C  942  1  0.28562700  0.09184700  0.53916300  1
  C  969  1  0.55266000  0.04793800  0.23218200  1
  C  972  1  0.36194400  0.83624500  0.41144100  1
  C  975  1  0.22641900  0.07772400  0.55537300  1
  C  978  1  0.41939400  0.28797200  0.36807900  1
  C  981  1  0.33915800  0.11429400  0.65866300  1
  C  982  1  0.35449700  0.14116700  0.67345100  1
  C  983  1  0.37460800  0.12942900  0.69925100  1
  C  985  1  0.34913700  0.08554700  0.67539800  1
  C  986  1  0.33676500  0.05302200  0.66888400  1
  C  987  1  0.34941600  0.02370200  0.68388200  1
  C  989  1  0.38103500  0.98924000  0.71401000  1
  C  990  1  0.35678100  0.97023500  0.69791200  1
  C  991  1  0.33703100  0.99153100  0.67967400  1
  C  992  1  0.40632300  0.97701700  0.73541300  1
  C  993  1  0.42921100  0.99733700  0.75321700  1
  C  995  1  0.45366500  0.04122900  0.77809700  1
  C  996  1  0.47035800  0.01244900  0.78808300  1
  C  997  1  0.45515100  0.98557200  0.77317200  1
  C  998  1  0.46060500  0.07378900  0.79007100  1
  C  999  1  0.44551500  0.10312500  0.77758300  1
  C  1001  1  0.41477400  0.13758200  0.74656300  1
  C  1002  1  0.43152200  0.15660600  0.77030900  1
  C  1003  1  0.45019900  0.13531700  0.78965400  1
  C  1004  1  0.39284100  0.14977700  0.72174000  1
  C  1005  1  0.38670100  0.18464300  0.72109600  1
  C  1006  1  0.36496000  0.19875800  0.74479600  1
  C  1007  1  0.35777000  0.23289700  0.74405400  1
  C  1008  1  0.37155400  0.25370900  0.71923700  1
  C  1009  1  0.39320800  0.23945500  0.69546800  1
  C  1010  1  0.40106300  0.20537700  0.69660700  1
  C  1011  1  0.48338300  0.07709400  0.81712600  1
  C  1012  1  0.47462800  0.06521500  0.84902600  1
  C  1013  1  0.49757100  0.06668200  0.87537700  1
  C  1014  1  0.52952800  0.08079900  0.87075900  1
  C  1015  1  0.53783200  0.09365500  0.83909500  1
  C  1016  1  0.51522300  0.09144400  0.81247100  1
  C  1017  1  0.40690700  0.94216500  0.74168200  1
  C  1018  1  0.43126300  0.92137300  0.72720400  1
  C  1019  1  0.43249200  0.88734700  0.73530400  1
  C  1020  1  0.40896100  0.87321500  0.75736700  1
  C  1021  1  0.38424800  0.89407700  0.77124900  1
  C  1022  1  0.38343000  0.92816600  0.76380800  1
  C  1023  1  0.30923700  0.04970600  0.64662200  1
  C  1024  1  0.31313600  0.03444600  0.61524000  1
  C  1025  1  0.27754200  0.06220000  0.65552500  1
  C  1026  1  0.25070300  0.06048000  0.63314100  1
  C  1027  1  0.25454700  0.04531400  0.60171000  1
  C  1028  1  0.28597800  0.03182900  0.59328800  1
  C  1055  1  0.55459200  0.07987800  0.89804100  1
  C  1058  1  0.36207100  0.28946500  0.71723000  1
  C  1061  1  0.22673000  0.04581200  0.57720900  1
  C  1064  1  0.41118500  0.83757300  0.76723100  1
  C  1067  1  0.78900000  0.11395300  0.47204100  1
  C  1068  1  0.77379100  0.14083700  0.45717600  1
  C  1069  1  0.75391700  0.12913500  0.43117400  1
  C  1071  1  0.77928600  0.08527000  0.45503800  1
  C  1072  1  0.79187400  0.05281000  0.46132600  1
  C  1073  1  0.77932800  0.02350500  0.44620600  1
  C  1075  1  0.74773500  0.98903000  0.41603600  1
  C  1076  1  0.77213900  0.97008400  0.43192900  1
  C  1077  1  0.79187000  0.99139300  0.45019900  1
  C  1078  1  0.72240900  0.97679700  0.39466900  1
  C  1079  1  0.69941100  0.99712300  0.37705300  1
  C  1081  1  0.67495500  0.04099900  0.35225000  1
  C  1082  1  0.65801300  0.01224500  0.34252600  1
  C  1083  1  0.67319000  0.98536900  0.35743900  1
  C  1084  1  0.66821400  0.07352400  0.34008500  1
  C  1085  1  0.68346900  0.10284300  0.35246300  1
  C  1087  1  0.71422900  0.13729800  0.38349400  1
  C  1088  1  0.69776800  0.15629300  0.35953900  1
  C  1089  1  0.67908600  0.13500500  0.34018000  1
  C  1090  1  0.73602500  0.14949800  0.40844600  1
  C  1091  1  0.74221000  0.18437100  0.40912300  1
  C  1092  1  0.76409300  0.19855700  0.38554600  1
  C  1093  1  0.77126900  0.23271700  0.38629400  1
  C  1094  1  0.75734400  0.25347600  0.41101900  1
  C  1095  1  0.73555900  0.23914300  0.43467700  1
  C  1096  1  0.72769400  0.20505100  0.43350700  1
  C  1097  1  0.64547300  0.07681400  0.31299500  1
  C  1098  1  0.65409900  0.06463000  0.28119800  1
  C  1099  1  0.63119900  0.06615800  0.25481500  1
  C  1100  1  0.59945300  0.08069900  0.25927200  1
  C  1101  1  0.59129100  0.09386400  0.29081600  1
  C  1102  1  0.61381800  0.09152100  0.31749800  1
  C  1103  1  0.72178300  0.94196300  0.38836400  1
  C  1104  1  0.69754600  0.92105400  0.40299700  1
  C  1105  1  0.69629500  0.88704000  0.39488600  1
  C  1106  1  0.71971900  0.87302900  0.37269400  1
  C  1107  1  0.74432400  0.89400400  0.35866900  1
  C  1108  1  0.74514900  0.92808500  0.36611000  1
  C  1109  1  0.81943300  0.04955100  0.48355100  1
  C  1110  1  0.81563400  0.03408200  0.51486900  1
  C  1111  1  0.85105000  0.06235400  0.47467900  1
  C  1112  1  0.87793600  0.06065200  0.49700800  1
  C  1113  1  0.87419500  0.04526700  0.52837200  1
  C  1114  1  0.84283200  0.03151600  0.53677500  1
  C  1141  1  0.57443900  0.07994800  0.23194000  1
  C  1144  1  0.76679300  0.28926200  0.41304700  1
  C  1147  1  0.90204200  0.04581800  0.55283600  1
  C  1150  1  0.71748000  0.83739400  0.36283500  1
  N  10  1  0.73844100  0.81195100  0.71819500  1
  N  12  1  0.81247300  0.71654100  0.73886100  1
  N  14  1  0.71749500  0.73785200  0.81348700  1
  N  25  1  0.73856300  0.31358200  0.41329700  1
  N  27  1  0.81218900  0.40934400  0.39169500  1
  N  29  1  0.71653000  0.38738400  0.31808600  1
  N  40  1  0.39025100  0.81201600  0.41160200  1
  N  42  1  0.31620300  0.71645900  0.39096200  1
  N  44  1  0.41117700  0.73807500  0.31632000  1
  N  55  1  0.39028600  0.31387400  0.71684900  1
  N  57  1  0.31655400  0.40935100  0.73834000  1
  N  59  1  0.41225200  0.38772100  0.81195400  1
  N  70  1  0.39021900  0.71891100  0.81519100  1
  N  72  1  0.31526800  0.73865000  0.72031400  1
  N  74  1  0.41117200  0.81283700  0.73944300  1
  N  85  1  0.38144100  0.38522600  0.30328300  1
  N  87  1  0.31352000  0.38277200  0.40499000  1
  N  89  1  0.41554500  0.31532800  0.39309900  1
  N  100  1  0.74783900  0.38467200  0.82702600  1
  N  102  1  0.81532900  0.38236200  0.72498400  1
  N  104  1  0.71287800  0.31522800  0.73704600  1
  N  115  1  0.73845600  0.71895700  0.31467700  1
  N  117  1  0.81341800  0.73847700  0.40958500  1
  N  119  1  0.71761000  0.81260200  0.39060900  1
  N  124  1  0.03110300  0.69835300  0.75764300  1
  N  128  1  0.10633500  0.70400700  0.75319400  1
  N  134  1  0.09683700  0.75653900  0.69983300  1
  N  140  1  0.02164900  0.75175700  0.70506000  1
  N  210  1  0.03090600  0.42769200  0.37265500  1
  N  214  1  0.10610800  0.42118100  0.37656200  1
  N  220  1  0.09615600  0.36867800  0.42995400  1
  N  226  1  0.02097400  0.37440600  0.42532000  1
  N  296  1  0.09752300  0.69830000  0.37239100  1
  N  300  1  0.02232200  0.70399600  0.37665600  1
  N  306  1  0.03185300  0.75674100  0.42984300  1
  N  312  1  0.10708600  0.75181000  0.42479200  1
  N  382  1  0.09783900  0.42791800  0.75697500  1
  N  386  1  0.02272900  0.42111200  0.75332200  1
  N  392  1  0.03269100  0.36880800  0.69993400  1
  N  398  1  0.10779900  0.37446700  0.70474400  1
  N  468  1  0.69908400  0.75716400  0.03131000  1
  N  472  1  0.70451200  0.75267800  0.10631200  1
  N  478  1  0.75643800  0.69860900  0.09694900  1
  N  484  1  0.75190300  0.70386500  0.02195900  1
  N  554  1  0.42877000  0.37024300  0.03009500  1
  N  558  1  0.42466400  0.37764200  0.10474100  1
  N  564  1  0.37208700  0.43094300  0.09398800  1
  N  570  1  0.37592700  0.42331300  0.01941100  1
  N  640  1  0.69987000  0.37013100  0.09994400  1
  N  644  1  0.70407000  0.37741600  0.02534000  1
  N  650  1  0.75670300  0.43076600  0.03602100  1
  N  656  1  0.75285200  0.42314000  0.11058500  1
  N  726  1  0.42994200  0.75696800  0.09845600  1
  N  730  1  0.42428000  0.75280300  0.02353000  1
  N  736  1  0.37222000  0.69871500  0.03296600  1
  N  742  1  0.37682400  0.70394800  0.10794100  1
  N  812  1  0.75865200  0.02959700  0.69780200  1
  N  816  1  0.75326700  0.10457100  0.70137100  1
  N  822  1  0.69921200  0.09559600  0.75346200  1
  N  828  1  0.70532700  0.02069500  0.75070700  1
  N  898  1  0.37001600  0.02960100  0.43199400  1
  N  902  1  0.37544100  0.10459400  0.42829500  1
  N  908  1  0.42936800  0.09578700  0.37597100  1
  N  914  1  0.42334000  0.02080300  0.37906900  1
  N  984  1  0.37106300  0.09590700  0.69886600  1
  N  988  1  0.37582900  0.02102400  0.70453400  1
  N  994  1  0.42982700  0.03086100  0.75656700  1
  N  1000  1  0.42422800  0.10578800  0.75171000  1
  N  1070  1  0.75741600  0.09561700  0.43151500  1
  N  1074  1  0.75283800  0.02078700  0.42565400  1
  N  1080  1  0.69885500  0.03065700  0.37370700  1
  N  1086  1  0.70459400  0.10551900  0.37847100  1
