# generated using pymatgen
data_H11C11N
_symmetry_space_group_name_H-M   'P 1'
_cell_length_a   34.35850000
_cell_length_b   34.35850000
_cell_length_c   34.35850000
_cell_angle_alpha   90.00000000
_cell_angle_beta   90.00000000
_cell_angle_gamma   90.00000000
_symmetry_Int_Tables_number   1
_chemical_formula_structural   H11C11N
_chemical_formula_sum   'H1056 C1056 N96'
_cell_volume   40560.43334473
_cell_formula_units_Z   96
loop_
 _symmetry_equiv_pos_site_id
 _symmetry_equiv_pos_as_xyz
  1  'x, y, z'
loop_
 _atom_site_type_symbol
 _atom_site_label
 _atom_site_symmetry_multiplicity
 _atom_site_fract_x
 _atom_site_fract_y
 _atom_site_fract_z
 _atom_site_occupancy
  H  5  1  0.13603700  0.93907200  0.25914000  1
  H  6  1  0.11011500  0.96723700  0.29295500  1
  H  9  1  0.12091700  0.03522400  0.29895400  1
  H  10  1  0.15555300  0.05957200  0.27336700  1
  H  11  1  0.06593300  0.02829700  0.26973700  1
  H  12  1  0.05568900  0.03199700  0.21950400  1
  H  15  1  0.14503300  0.06654900  0.21083500  1
  H  16  1  0.10261700  0.03770500  0.17784100  1
  H  18  1  0.19141900  0.02306000  0.20949200  1
  H  19  1  0.18091800  0.97274700  0.20478900  1
  H  21  1  0.09250300  0.97634100  0.17078100  1
  H  22  1  0.12596900  0.94584200  0.19123600  1
  H  27  1  0.85681300  0.55372100  0.75921000  1
  H  28  1  0.88295500  0.52572200  0.79303300  1
  H  31  1  0.87220100  0.45734000  0.79909500  1
  H  32  1  0.83749600  0.43306900  0.77350900  1
  H  33  1  0.92708400  0.46461600  0.76988600  1
  H  34  1  0.93733500  0.46081800  0.71963900  1
  H  37  1  0.84803800  0.42611900  0.71099500  1
  H  38  1  0.89043500  0.45502300  0.67801300  1
  H  40  1  0.80176100  0.46955200  0.70986300  1
  H  41  1  0.81211400  0.51985400  0.70506900  1
  H  43  1  0.90047900  0.51649300  0.67093500  1
  H  44  1  0.86691300  0.54691000  0.69135200  1
  H  49  1  0.35652300  0.43903000  0.73360900  1
  H  50  1  0.38295100  0.46699700  0.70003700  1
  H  53  1  0.37217300  0.53509900  0.69366600  1
  H  54  1  0.33745400  0.55953600  0.71909200  1
  H  55  1  0.42680600  0.52773000  0.72310000  1
  H  56  1  0.43690500  0.53178400  0.77331400  1
  H  59  1  0.34761700  0.56633500  0.78182700  1
  H  60  1  0.39007000  0.53751800  0.81483500  1
  H  62  1  0.30128800  0.52284000  0.78300600  1
  H  63  1  0.31174500  0.47253500  0.78758400  1
  H  65  1  0.39985200  0.47602500  0.82228300  1
  H  66  1  0.36639000  0.44559600  0.80167700  1
  H  71  1  0.63633500  0.05378900  0.23377500  1
  H  72  1  0.61010300  0.02586800  0.20000500  1
  H  75  1  0.62057200  0.95767900  0.19377300  1
  H  76  1  0.65531700  0.93316700  0.21912500  1
  H  77  1  0.56576400  0.96465900  0.22335700  1
  H  78  1  0.55581600  0.96097400  0.27361200  1
  H  81  1  0.64513600  0.92647600  0.28193400  1
  H  82  1  0.60275700  0.95526600  0.31501700  1
  H  84  1  0.69151200  0.97000800  0.28315300  1
  H  85  1  0.68094100  0.02036800  0.28755400  1
  H  87  1  0.59275900  0.01662600  0.32212700  1
  H  88  1  0.62615100  0.04713000  0.30161700  1
  H  93  1  0.26075800  0.13528900  0.93850800  1
  H  94  1  0.29377300  0.10851800  0.96680900  1
  H  97  1  0.29966400  0.11912100  0.03488000  1
  H  98  1  0.27470300  0.15424400  0.05914300  1
  H  99  1  0.26931700  0.06489700  0.02744500  1
  H  100  1  0.21887100  0.05579900  0.03115700  1
  H  103  1  0.21174100  0.14537000  0.06552100  1
  H  104  1  0.17831000  0.10339100  0.03654400  1
  H  106  1  0.21182300  0.19165700  0.02229700  1
  H  107  1  0.20731500  0.18141600  0.97196700  1
  H  109  1  0.17118600  0.09378000  0.97501400  1
  H  110  1  0.19263700  0.12685600  0.94482600  1
  H  115  1  0.76088900  0.85751200  0.55432900  1
  H  116  1  0.79392300  0.88450900  0.52621900  1
  H  119  1  0.79991300  0.87397900  0.45775600  1
  H  120  1  0.77496400  0.83879100  0.43354900  1
  H  121  1  0.76958000  0.92810900  0.46556200  1
  H  122  1  0.71912100  0.93722400  0.46170600  1
  H  125  1  0.71202200  0.84769200  0.42716400  1
  H  126  1  0.67860400  0.88964400  0.45620500  1
  H  128  1  0.71225800  0.80152000  0.47031500  1
  H  129  1  0.70767100  0.81159000  0.52063700  1
  H  131  1  0.67141800  0.89917000  0.51783400  1
  H  132  1  0.69281900  0.86598100  0.54793800  1
  H  137  1  0.73169100  0.35784800  0.43883800  1
  H  138  1  0.69890200  0.38493800  0.46709000  1
  H  141  1  0.69282800  0.37417800  0.53524500  1
  H  142  1  0.71774700  0.33895300  0.55944300  1
  H  143  1  0.72321600  0.42818000  0.52749700  1
  H  144  1  0.77360200  0.43729800  0.53145000  1
  H  147  1  0.78086700  0.34767300  0.56556600  1
  H  148  1  0.81423900  0.38975200  0.53663600  1
  H  150  1  0.78075300  0.30153800  0.52215100  1
  H  151  1  0.78490100  0.31192000  0.47182800  1
  H  153  1  0.82152900  0.39930200  0.47505000  1
  H  154  1  0.79997100  0.36627900  0.44483100  1
  H  159  1  0.23181500  0.63502200  0.05405300  1
  H  160  1  0.19882400  0.60811500  0.02585500  1
  H  163  1  0.19285700  0.61858100  0.95761800  1
  H  164  1  0.21769800  0.65383600  0.93333600  1
  H  165  1  0.22342200  0.56442300  0.96498700  1
  H  166  1  0.27385500  0.55547000  0.96137300  1
  H  169  1  0.28088600  0.64513900  0.92730800  1
  H  170  1  0.31434500  0.60313500  0.95619500  1
  H  172  1  0.28083200  0.69128800  0.97075300  1
  H  173  1  0.28484300  0.68079000  0.02111300  1
  H  175  1  0.32133600  0.59332400  0.01763700  1
  H  176  1  0.29988500  0.62628200  0.04793800  1
  H  181  1  0.93976200  0.26166900  0.13497200  1
  H  182  1  0.96844200  0.29505100  0.10906000  1
  H  185  1  0.03646200  0.30047900  0.12045400  1
  H  186  1  0.06035300  0.27460200  0.15516800  1
  H  187  1  0.02888400  0.27144900  0.06566200  1
  H  188  1  0.03313300  0.22114000  0.05548600  1
  H  191  1  0.06669300  0.21200800  0.14484000  1
  H  192  1  0.03760100  0.17922800  0.10244900  1
  H  194  1  0.02311100  0.21147700  0.19105500  1
  H  195  1  0.97292700  0.20678500  0.18046600  1
  H  197  1  0.97608800  0.17266900  0.09221700  1
  H  198  1  0.94587100  0.19378700  0.12542200  1
  H  203  1  0.55292600  0.76142500  0.85773300  1
  H  204  1  0.52439700  0.79486900  0.88378800  1
  H  207  1  0.45600400  0.80035800  0.87238400  1
  H  208  1  0.43220500  0.77445500  0.83761000  1
  H  209  1  0.46381300  0.77139300  0.92713700  1
  H  210  1  0.45952000  0.72107700  0.93736100  1
  H  213  1  0.42587400  0.71189700  0.84800300  1
  H  214  1  0.45496800  0.67913100  0.89040900  1
  H  216  1  0.46945600  0.71145500  0.80195600  1
  H  217  1  0.51961300  0.70670500  0.81247200  1
  H  219  1  0.51655700  0.67258800  0.90071800  1
  H  220  1  0.54674400  0.69360200  0.86741300  1
  H  225  1  0.44017100  0.73110600  0.35800800  1
  H  226  1  0.46881900  0.69791200  0.38417900  1
  H  229  1  0.53691000  0.69230700  0.37256300  1
  H  230  1  0.56070900  0.71816600  0.33774200  1
  H  231  1  0.52912700  0.72134500  0.42717500  1
  H  232  1  0.53354800  0.77159400  0.43738800  1
  H  235  1  0.56678900  0.78091300  0.34792900  1
  H  236  1  0.53780900  0.81363600  0.39045700  1
  H  238  1  0.52297100  0.78148400  0.30194000  1
  H  239  1  0.47281800  0.78578600  0.31273200  1
  H  241  1  0.47626700  0.82031600  0.40078000  1
  H  242  1  0.44597100  0.79914200  0.36763600  1
  H  247  1  0.05270600  0.23098600  0.63465600  1
  H  248  1  0.02409400  0.19762000  0.60865000  1
  H  251  1  0.95590700  0.19215800  0.61996300  1
  H  252  1  0.93203500  0.21795700  0.65481100  1
  H  253  1  0.96336900  0.22137500  0.56521100  1
  H  254  1  0.95927400  0.27166800  0.55514400  1
  H  257  1  0.92605700  0.28076200  0.64459500  1
  H  258  1  0.95505400  0.31354400  0.60215100  1
  H  260  1  0.96990300  0.28129700  0.69067400  1
  H  261  1  0.02011300  0.28549200  0.67978900  1
  H  263  1  0.01646500  0.31992100  0.59168500  1
  H  264  1  0.04682200  0.29881100  0.62475700  1
  H  269  1  0.11582900  0.44085200  0.76789200  1
  H  270  1  0.11537400  0.47836200  0.80220700  1
  H  273  1  0.15024400  0.53775400  0.79279100  1
  H  274  1  0.18072800  0.54560900  0.75380800  1
  H  275  1  0.08595700  0.53883900  0.78899900  1
  H  276  1  0.07470400  0.56569400  0.75013800  1
  H  279  1  0.15528000  0.54639200  0.69636100  1
  H  280  1  0.10810800  0.53033500  0.67166000  1
  H  282  1  0.16541100  0.47967200  0.67920400  1
  H  283  1  0.15186200  0.44563700  0.71025300  1
  H  285  1  0.06183600  0.48866500  0.69043500  1
  H  286  1  0.08717700  0.44816600  0.70495000  1
  H  291  1  0.87718700  0.05189600  0.26809200  1
  H  292  1  0.87788200  0.01438800  0.30244100  1
  H  295  1  0.84294500  0.95464100  0.29295500  1
  H  296  1  0.81239300  0.94691000  0.25398100  1
  H  297  1  0.90723700  0.95388100  0.28915700  1
  H  298  1  0.91845700  0.92700300  0.25032000  1
  H  301  1  0.83784300  0.94628200  0.19654400  1
  H  302  1  0.88502800  0.96236200  0.17187800  1
  H  304  1  0.82764100  0.01283400  0.17963000  1
  H  305  1  0.84120400  0.04691600  0.21061400  1
  H  307  1  0.93126900  0.00422700  0.19066500  1
  H  308  1  0.90579700  0.04463000  0.20517700  1
  H  313  1  0.37688800  0.94089400  0.22463600  1
  H  314  1  0.37792400  0.97851500  0.19050200  1
  H  317  1  0.34305700  0.03806200  0.19980200  1
  H  318  1  0.31240000  0.04585900  0.23871000  1
  H  319  1  0.40726200  0.03857700  0.20390200  1
  H  320  1  0.41834800  0.06543900  0.24280900  1
  H  323  1  0.33769000  0.04615800  0.29634600  1
  H  324  1  0.38496500  0.03016800  0.32105000  1
  H  326  1  0.32732200  0.97951100  0.31313700  1
  H  327  1  0.34092300  0.94553100  0.28199700  1
  H  329  1  0.43093000  0.98791900  0.30257700  1
  H  330  1  0.40537900  0.94768500  0.28776900  1
  H  335  1  0.61630200  0.55204700  0.72492400  1
  H  336  1  0.61540000  0.51452500  0.69065300  1
  H  339  1  0.65001400  0.45479600  0.69991700  1
  H  340  1  0.68061500  0.44679800  0.73886000  1
  H  341  1  0.58568400  0.45418200  0.70405600  1
  H  342  1  0.57452200  0.42737600  0.74296900  1
  H  345  1  0.65516300  0.44652200  0.79643800  1
  H  346  1  0.60792300  0.46259600  0.82113100  1
  H  348  1  0.66575100  0.51311100  0.81334800  1
  H  349  1  0.65224700  0.54722400  0.78227000  1
  H  351  1  0.56212300  0.50480400  0.80253000  1
  H  352  1  0.58767200  0.54503300  0.78780300  1
  H  357  1  0.26166700  0.63530800  0.43822700  1
  H  358  1  0.29443100  0.60788200  0.46621700  1
  H  361  1  0.30107000  0.61816500  0.53419400  1
  H  362  1  0.27665700  0.65326500  0.55927400  1
  H  363  1  0.26840500  0.56478600  0.52816700  1
  H  364  1  0.21779300  0.55616000  0.52886500  1
  H  367  1  0.21336800  0.64673400  0.56503700  1
  H  368  1  0.17913500  0.60466300  0.53709600  1
  H  370  1  0.21373700  0.69213800  0.52210700  1
  H  371  1  0.20897500  0.68165400  0.47194500  1
  H  373  1  0.17162900  0.59482000  0.47571100  1
  H  374  1  0.19312800  0.62746700  0.44504000  1
  H  379  1  0.76181200  0.35761500  0.05456700  1
  H  380  1  0.79457500  0.38523500  0.02672500  1
  H  383  1  0.80124300  0.37500500  0.95836300  1
  H  384  1  0.77683600  0.33982000  0.93338000  1
  H  385  1  0.76859900  0.42831300  0.96469600  1
  H  386  1  0.71796500  0.43695200  0.96396300  1
  H  389  1  0.71356200  0.34639500  0.92766000  1
  H  390  1  0.67933700  0.38843400  0.95566800  1
  H  392  1  0.71409400  0.30111900  0.97054600  1
  H  393  1  0.70932100  0.31146600  0.02069900  1
  H  395  1  0.67185200  0.39825100  0.01714300  1
  H  396  1  0.69331900  0.36550500  0.04774200  1
  H  401  1  0.73071000  0.85786400  0.93863600  1
  H  402  1  0.69820000  0.88559500  0.96661100  1
  H  405  1  0.69141900  0.87514100  0.03467100  1
  H  406  1  0.71582000  0.83993500  0.05966100  1
  H  407  1  0.72407200  0.92831800  0.02829500  1
  H  408  1  0.77463600  0.93698900  0.02924700  1
  H  411  1  0.77926300  0.84633500  0.06512600  1
  H  412  1  0.81341500  0.88851700  0.03721400  1
  H  414  1  0.77884100  0.80109200  0.02200900  1
  H  415  1  0.78322700  0.81171500  0.97185900  1
  H  417  1  0.82104900  0.89829400  0.97576800  1
  H  418  1  0.79942700  0.86569900  0.94508300  1
  H  423  1  0.23099200  0.13505700  0.55431100  1
  H  424  1  0.19825800  0.10745200  0.52646700  1
  H  427  1  0.19154400  0.11749600  0.45829400  1
  H  428  1  0.21585600  0.15269400  0.43315700  1
  H  429  1  0.22449000  0.06422900  0.46430500  1
  H  430  1  0.27509100  0.05573300  0.46387100  1
  H  433  1  0.27934500  0.14629100  0.42773400  1
  H  434  1  0.31364600  0.10426200  0.45564000  1
  H  436  1  0.27896700  0.19164000  0.47080700  1
  H  437  1  0.28332400  0.18099000  0.52100100  1
  H  439  1  0.32097500  0.09427900  0.51694700  1
  H  440  1  0.29951800  0.12688800  0.54769600  1
  H  445  1  0.93950300  0.75620900  0.63883500  1
  H  446  1  0.96756000  0.79062600  0.61358700  1
  H  449  1  0.03562900  0.79668000  0.62469900  1
  H  450  1  0.06021000  0.77005700  0.65832100  1
  H  451  1  0.02792500  0.76906500  0.56927400  1
  H  452  1  0.03260500  0.71917300  0.55742600  1
  H  455  1  0.06700600  0.70780800  0.64645800  1
  H  456  1  0.03822400  0.67651400  0.60283200  1
  H  458  1  0.02396700  0.70596800  0.69313300  1
  H  459  1  0.97381500  0.70045900  0.68276000  1
  H  461  1  0.97668800  0.66876900  0.59357400  1
  H  462  1  0.94645300  0.68865100  0.62753700  1
  H  467  1  0.55320000  0.25609000  0.35387200  1
  H  468  1  0.52528500  0.29057400  0.37924300  1
  H  471  1  0.45684500  0.29668100  0.36810700  1
  H  472  1  0.43235600  0.26999000  0.33445600  1
  H  473  1  0.46483400  0.26914800  0.42349400  1
  H  474  1  0.46007900  0.21926100  0.43545600  1
  H  477  1  0.42555100  0.20779900  0.34646500  1
  H  478  1  0.45437700  0.17657900  0.39012500  1
  H  480  1  0.46861500  0.20602600  0.29993500  1
  H  481  1  0.51873900  0.20044700  0.31022600  1
  H  483  1  0.51599800  0.16883300  0.39942400  1
  H  484  1  0.54618800  0.18859300  0.36534500  1
  H  489  1  0.43989400  0.23640100  0.85417600  1
  H  490  1  0.46795100  0.20216000  0.87965200  1
  H  493  1  0.53609200  0.19599300  0.86829800  1
  H  494  1  0.56056300  0.22264900  0.83459500  1
  H  495  1  0.52815800  0.22354400  0.92357400  1
  H  496  1  0.53301800  0.27336400  0.93550700  1
  H  499  1  0.56707700  0.28504500  0.84639700  1
  H  500  1  0.53837700  0.31621900  0.89017900  1
  H  502  1  0.52380100  0.28690800  0.79992500  1
  H  503  1  0.47366500  0.29203600  0.81049600  1
  H  505  1  0.47679900  0.32404500  0.89951000  1
  H  506  1  0.44650100  0.30410300  0.86559700  1
  H  511  1  0.05297400  0.73633900  0.13851100  1
  H  512  1  0.02497700  0.70194000  0.11317400  1
  H  515  1  0.95673900  0.69587500  0.12420300  1
  H  516  1  0.93218300  0.72243300  0.15794900  1
  H  517  1  0.96435600  0.72363500  0.06880500  1
  H  518  1  0.95979800  0.77351200  0.05705300  1
  H  521  1  0.92574200  0.78489200  0.14615300  1
  H  522  1  0.95446000  0.81616500  0.10248300  1
  H  524  1  0.96904200  0.78672300  0.19272100  1
  H  525  1  0.01923700  0.79174900  0.18207500  1
  H  527  1  0.01590700  0.82370900  0.09301500  1
  H  528  1  0.04626700  0.80383400  0.12685600  1
  H  533  1  0.63823000  0.93891800  0.75761800  1
  H  534  1  0.61139500  0.96653300  0.79118200  1
  H  537  1  0.62159600  0.03468700  0.79805600  1
  H  538  1  0.65556700  0.06013700  0.77241800  1
  H  539  1  0.56742900  0.02714200  0.76744100  1
  H  540  1  0.55677100  0.02966100  0.71726700  1
  H  543  1  0.64687700  0.06590900  0.70939100  1
  H  544  1  0.60336500  0.03772700  0.67733800  1
  H  546  1  0.69312700  0.02390300  0.70896900  1
  H  547  1  0.68336800  0.97383800  0.70347100  1
  H  549  1  0.59541600  0.97611400  0.66867300  1
  H  550  1  0.62896000  0.94600500  0.68948900  1
  H  555  1  0.35468400  0.55390700  0.25758100  1
  H  556  1  0.38169600  0.52644600  0.29116500  1
  H  559  1  0.37148300  0.45792800  0.29812100  1
  H  560  1  0.33741600  0.43255700  0.27250100  1
  H  561  1  0.42556900  0.46564100  0.26749300  1
  H  562  1  0.43621300  0.46311700  0.21731400  1
  H  565  1  0.34593800  0.42669800  0.20958800  1
  H  566  1  0.38945000  0.45492100  0.17752900  1
  H  568  1  0.30000200  0.46881300  0.20923500  1
  H  569  1  0.30968200  0.51885900  0.20367600  1
  H  571  1  0.39758500  0.51669100  0.16873500  1
  H  572  1  0.36396800  0.54675900  0.18950900  1
  H  577  1  0.85381000  0.43917000  0.23445500  1
  H  578  1  0.88092100  0.46676100  0.20112000  1
  H  581  1  0.87074600  0.53507900  0.19431800  1
  H  582  1  0.83693500  0.56046100  0.22027800  1
  H  583  1  0.92480500  0.52606800  0.22435200  1
  H  584  1  0.93568500  0.52991600  0.27444400  1
  H  587  1  0.84579700  0.56581100  0.28325100  1
  H  588  1  0.88946600  0.53742800  0.31503100  1
  H  590  1  0.79953500  0.52385600  0.28368900  1
  H  591  1  0.80914500  0.47381600  0.28905100  1
  H  593  1  0.89700400  0.47537000  0.32368400  1
  H  594  1  0.86330100  0.44566600  0.30265900  1
  H  599  1  0.13854800  0.05398000  0.73536100  1
  H  600  1  0.11138200  0.02663200  0.70185300  1
  H  603  1  0.12125400  0.95827600  0.69468700  1
  H  604  1  0.15532300  0.93262600  0.72009600  1
  H  605  1  0.06728400  0.96581700  0.72574500  1
  H  606  1  0.05695100  0.96338700  0.77593100  1
  H  609  1  0.14704700  0.92707800  0.78335000  1
  H  610  1  0.10359200  0.95522600  0.81550500  1
  H  612  1  0.19327500  0.96914400  0.78361400  1
  H  613  1  0.18347100  0.01925000  0.78893800  1
  H  615  1  0.09576800  0.01682400  0.82430900  1
  H  616  1  0.12923100  0.04694900  0.80344100  1
  H  621  1  0.76512700  0.11930800  0.44093000  1
  H  622  1  0.79907200  0.11891800  0.47876400  1
  H  625  1  0.78826500  0.15235200  0.53873200  1
  H  626  1  0.74848500  0.18168500  0.54681100  1
  H  627  1  0.78605100  0.08788200  0.53822200  1
  H  628  1  0.74771400  0.07576900  0.56509500  1
  H  631  1  0.69140400  0.15477800  0.54532100  1
  H  632  1  0.66922600  0.10584300  0.53024800  1
  H  634  1  0.67521000  0.16682200  0.48075800  1
  H  635  1  0.70600600  0.15350900  0.44573900  1
  H  637  1  0.68855500  0.06245600  0.48630800  1
  H  638  1  0.70303800  0.08911700  0.44685600  1
  H  643  1  0.26519900  0.87368200  0.05205400  1
  H  644  1  0.29924800  0.87430200  0.01429100  1
  H  647  1  0.28848800  0.84077600  0.95396800  1
  H  648  1  0.24874200  0.81135400  0.94595900  1
  H  649  1  0.28625300  0.90525500  0.95477500  1
  H  650  1  0.24799800  0.91731900  0.92779100  1
  H  653  1  0.19167400  0.83823900  0.94742300  1
  H  654  1  0.16949700  0.88716700  0.96252800  1
  H  656  1  0.17557100  0.82621500  0.01188800  1
  H  657  1  0.20627800  0.83950500  0.04695400  1
  H  659  1  0.18871800  0.93057100  0.00667400  1
  H  660  1  0.20314000  0.90379700  0.04605300  1
  H  665  1  0.22749200  0.37376200  0.94112100  1
  H  666  1  0.19363300  0.37446400  0.97899000  1
  H  669  1  0.20430500  0.34077500  0.03898600  1
  H  670  1  0.24407300  0.31132900  0.04694100  1
  H  671  1  0.20665600  0.40514900  0.03826600  1
  H  672  1  0.24503300  0.41718400  0.06516600  1
  H  675  1  0.30126200  0.33818700  0.04526300  1
  H  676  1  0.32344600  0.38715900  0.03030100  1
  H  678  1  0.31726700  0.32633900  0.98060200  1
  H  679  1  0.28635100  0.33973900  0.94572000  1
  H  681  1  0.30427100  0.43064500  0.98628900  1
  H  682  1  0.28972200  0.40398800  0.94682300  1
  H  687  1  0.72768400  0.61948900  0.55175900  1
  H  688  1  0.69373600  0.61892700  0.51394900  1
  H  691  1  0.70449600  0.65227000  0.45373700  1
  H  692  1  0.74435800  0.68157600  0.44558700  1
  H  693  1  0.70676600  0.58774100  0.45449600  1
  H  694  1  0.74509100  0.57563100  0.42762700  1
  H  697  1  0.80145900  0.65445900  0.44747600  1
  H  698  1  0.82350900  0.60545800  0.46247700  1
  H  700  1  0.81747500  0.66666667  0.51196700  1
  H  701  1  0.78660900  0.65337300  0.54700000  1
  H  703  1  0.80409300  0.56229800  0.50654500  1
  H  704  1  0.78961900  0.58902500  0.54594100  1
  H  709  1  0.43970200  0.26959200  0.61394200  1
  H  710  1  0.47733500  0.30376800  0.61280400  1
  H  713  1  0.53664800  0.29492300  0.64795900  1
  H  714  1  0.54431100  0.25662000  0.67930800  1
  H  715  1  0.53798900  0.28978600  0.58389700  1
  H  716  1  0.56425100  0.25019200  0.57296500  1
  H  719  1  0.54524000  0.19861700  0.65539900  1
  H  720  1  0.52856500  0.17284300  0.60899400  1
  H  722  1  0.47764000  0.18174900  0.66519000  1
  H  723  1  0.44420500  0.21301100  0.65134400  1
  H  725  1  0.48763200  0.19088500  0.56172500  1
  H  726  1  0.44694100  0.20591500  0.58659500  1
  H  731  1  0.05309000  0.76940300  0.37890800  1
  H  732  1  0.01548400  0.80363600  0.38024400  1
  H  735  1  0.95584800  0.79475900  0.34494800  1
  H  736  1  0.94831600  0.75647700  0.31352700  1
  H  737  1  0.95474500  0.78962200  0.40899900  1
  H  738  1  0.92845500  0.75004200  0.41992300  1
  H  741  1  0.94745200  0.69848300  0.33741900  1
  H  742  1  0.96414300  0.67270400  0.38379500  1
  H  744  1  0.01492700  0.68180300  0.32767200  1
  H  745  1  0.04839200  0.71300300  0.34153400  1
  H  747  1  0.00518400  0.69075200  0.43115100  1
  H  748  1  0.04582100  0.70575900  0.40619700  1
  H  753  1  0.94006200  0.72330300  0.87893300  1
  H  754  1  0.97772700  0.68921600  0.88034200  1
  H  757  1  0.03705900  0.69793000  0.84493600  1
  H  758  1  0.04461400  0.73624600  0.81352300  1
  H  759  1  0.03820500  0.70313900  0.90890200  1
  H  760  1  0.06448300  0.74276300  0.91982000  1
  H  763  1  0.04535200  0.79434000  0.83742100  1
  H  764  1  0.02879000  0.82008600  0.88385200  1
  H  766  1  0.97772400  0.81103700  0.82783600  1
  H  767  1  0.94437000  0.77970300  0.84179500  1
  H  769  1  0.98782600  0.80215100  0.93124900  1
  H  770  1  0.94710500  0.78710400  0.90638200  1
  H  775  1  0.55295500  0.22321400  0.11406600  1
  H  776  1  0.51534300  0.18904100  0.11273100  1
  H  779  1  0.45582100  0.19776900  0.14784700  1
  H  780  1  0.44809600  0.23609600  0.17924600  1
  H  781  1  0.45464200  0.20308500  0.08374600  1
  H  782  1  0.42843000  0.24272200  0.07283800  1
  H  785  1  0.44749400  0.29415700  0.15522300  1
  H  786  1  0.46413600  0.31989800  0.10880000  1
  H  788  1  0.51506600  0.31088400  0.16509600  1
  H  789  1  0.54851700  0.27956900  0.15124200  1
  H  791  1  0.50513600  0.30184400  0.06164900  1
  H  792  1  0.54579800  0.28678900  0.08653800  1
  H  797  1  0.61797600  0.43988000  0.26705700  1
  H  798  1  0.61774600  0.47737900  0.30139300  1
  H  801  1  0.65131500  0.53738400  0.29114200  1
  H  802  1  0.68086800  0.54567900  0.25162200  1
  H  803  1  0.58697900  0.53718000  0.28896600  1
  H  804  1  0.57517400  0.56433200  0.25063600  1
  H  807  1  0.65462400  0.54522200  0.19443600  1
  H  808  1  0.60642100  0.52915900  0.17152500  1
  H  810  1  0.66567800  0.47971000  0.17754500  1
  H  811  1  0.65242400  0.44498200  0.20840000  1
  H  813  1  0.56131700  0.48700900  0.19116200  1
  H  814  1  0.58754300  0.44668700  0.20485500  1
  H  819  1  0.37497600  0.05300600  0.76706800  1
  H  820  1  0.37541000  0.01553800  0.80146700  1
  H  823  1  0.34171200  0.95519900  0.79118200  1
  H  824  1  0.31208300  0.94704400  0.75166300  1
  H  825  1  0.40605400  0.95566800  0.78901300  1
  H  826  1  0.41785000  0.92847500  0.75071400  1
  H  829  1  0.33834700  0.94757400  0.69450100  1
  H  830  1  0.38657700  0.96360500  0.67163000  1
  H  832  1  0.32728700  0.01293200  0.67780400  1
  H  833  1  0.34055100  0.04769400  0.70859100  1
  H  835  1  0.43167500  0.00593400  0.69123500  1
  H  836  1  0.40534400  0.04618200  0.70490300  1
  H  841  1  0.87466600  0.93986100  0.72561700  1
  H  842  1  0.87548700  0.97742400  0.69141000  1
  H  845  1  0.84191200  0.03760000  0.70148900  1
  H  846  1  0.81217200  0.04585400  0.74093500  1
  H  847  1  0.90616600  0.03682600  0.70396900  1
  H  848  1  0.91783700  0.06401200  0.74233200  1
  H  851  1  0.83828800  0.04504000  0.79829500  1
  H  852  1  0.88660200  0.02903000  0.82122100  1
  H  854  1  0.82697200  0.97960700  0.81489600  1
  H  855  1  0.84025500  0.94488800  0.78399600  1
  H  857  1  0.93134800  0.98619600  0.80198300  1
  H  858  1  0.90488300  0.94618600  0.78798900  1
  H  863  1  0.11847200  0.55303700  0.22587300  1
  H  864  1  0.11763000  0.51543600  0.19169000  1
  H  867  1  0.15101500  0.45515700  0.20178400  1
  H  868  1  0.18079800  0.44681300  0.24121600  1
  H  869  1  0.08663600  0.45578300  0.20456600  1
  H  870  1  0.07478400  0.42892800  0.24316900  1
  H  873  1  0.15462700  0.44782000  0.29858400  1
  H  874  1  0.10627800  0.46383600  0.32146900  1
  H  876  1  0.16621900  0.51319500  0.31512200  1
  H  877  1  0.15303400  0.54797000  0.28420100  1
  H  879  1  0.06194700  0.50700400  0.30237400  1
  H  880  1  0.08844300  0.54676800  0.28809600  1
  H  885  1  0.76655600  0.61955300  0.94052200  1
  H  886  1  0.80093200  0.62030400  0.97798000  1
  H  889  1  0.79006400  0.65398100  0.03778400  1
  H  890  1  0.74990200  0.68281000  0.04588200  1
  H  891  1  0.78925800  0.58941800  0.03794600  1
  H  892  1  0.75118300  0.57703100  0.06520600  1
  H  895  1  0.69336600  0.65536100  0.04567900  1
  H  896  1  0.67124000  0.60698600  0.02978900  1
  H  898  1  0.67605100  0.66541400  0.98009600  1
  H  899  1  0.70722000  0.65268600  0.94548400  1
  H  901  1  0.69196600  0.56158200  0.98840200  1
  H  902  1  0.70493800  0.58770900  0.94769600  1
  H  907  1  0.26664200  0.37332000  0.55249000  1
  H  908  1  0.30108100  0.37285400  0.51505500  1
  H  911  1  0.29018900  0.33914800  0.45486900  1
  H  912  1  0.25005200  0.31023500  0.44685600  1
  H  913  1  0.28934800  0.40371400  0.45509000  1
  H  914  1  0.25132900  0.41606600  0.42777800  1
  H  917  1  0.19350900  0.33764300  0.44718500  1
  H  918  1  0.17138700  0.38598600  0.46315200  1
  H  920  1  0.17640100  0.32748200  0.51261000  1
  H  921  1  0.20749300  0.34019300  0.54727400  1
  H  923  1  0.19205900  0.43136100  0.50479500  1
  H  924  1  0.20504500  0.40507000  0.54536200  1
  H  929  1  0.22602100  0.87356900  0.44079100  1
  H  930  1  0.19173200  0.87306800  0.47829800  1
  H  933  1  0.20251000  0.83908000  0.53809400  1
  H  934  1  0.24268400  0.81016100  0.54603100  1
  H  935  1  0.20341400  0.90354700  0.53811200  1
  H  936  1  0.24152600  0.91585000  0.56539500  1
  H  939  1  0.29931800  0.83757800  0.54563200  1
  H  940  1  0.32145800  0.88594700  0.52984600  1
  H  942  1  0.31641400  0.82779600  0.47994300  1
  H  943  1  0.28511700  0.84064500  0.44548800  1
  H  945  1  0.30077300  0.93158100  0.48857500  1
  H  946  1  0.28778200  0.90551200  0.44778200  1
  H  951  1  0.72625200  0.11969500  0.05218100  1
  H  952  1  0.69187600  0.12023400  0.01473300  1
  H  955  1  0.70264500  0.15386100  0.95471000  1
  H  956  1  0.74285000  0.18272200  0.94654900  1
  H  957  1  0.70362000  0.08924300  0.95473700  1
  H  958  1  0.74175600  0.07685500  0.92754700  1
  H  961  1  0.79943600  0.15514600  0.94710800  1
  H  962  1  0.82151800  0.10676400  0.96297900  1
  H  964  1  0.81658400  0.16532000  0.01265600  1
  H  965  1  0.78535500  0.15259900  0.04727900  1
  H  967  1  0.80077500  0.06150700  0.00446700  1
  H  968  1  0.78775900  0.08767500  0.04511800  1
  H  973  1  0.43970800  0.76709700  0.11988000  1
  H  974  1  0.47748900  0.80110400  0.11941700  1
  H  977  1  0.53747400  0.79048300  0.15273000  1
  H  978  1  0.54563200  0.75080700  0.18217500  1
  H  979  1  0.53707600  0.78822500  0.08826300  1
  H  980  1  0.56360200  0.74952400  0.07579700  1
  H  983  1  0.54473000  0.69374100  0.15559500  1
  H  984  1  0.52885900  0.67135400  0.10695400  1
  H  986  1  0.47934300  0.67708500  0.16694800  1
  H  987  1  0.44466200  0.70819500  0.15414800  1
  H  989  1  0.48534200  0.69056300  0.06305800  1
  H  990  1  0.44575900  0.70492900  0.08966100  1
  H  995  1  0.05309500  0.26708100  0.87293400  1
  H  996  1  0.01533900  0.30114800  0.87355700  1
  H  999  1  0.95503900  0.29045600  0.84011300  1
  H  1000  1  0.94702100  0.25076600  0.81062100  1
  H  1001  1  0.95566500  0.28824600  0.90457700  1
  H  1002  1  0.92910700  0.24957400  0.91704600  1
  H  1005  1  0.94797600  0.19374100  0.83724000  1
  H  1006  1  0.96386700  0.17142000  0.88589800  1
  H  1008  1  0.01326400  0.17726400  0.82595300  1
  H  1009  1  0.04795800  0.20833300  0.83874500  1
  H  1011  1  0.00749100  0.19065600  0.92984600  1
  H  1012  1  0.04702100  0.20496900  0.90315100  1
  H  1017  1  0.94005000  0.22562900  0.37300500  1
  H  1018  1  0.97787200  0.19171300  0.37370700  1
  H  1021  1  0.03787500  0.20227300  0.34014300  1
  H  1022  1  0.04589600  0.24199200  0.31065700  1
  H  1023  1  0.03728900  0.20455400  0.40451400  1
  H  1024  1  0.06382700  0.24328000  0.41697100  1
  H  1027  1  0.04480200  0.29912000  0.33727600  1
  H  1028  1  0.02900800  0.32144600  0.38596300  1
  H  1030  1  0.97932400  0.31558100  0.32615800  1
  H  1031  1  0.94476800  0.28434200  0.33902800  1
  H  1033  1  0.98550100  0.30226300  0.42998700  1
  H  1034  1  0.94587700  0.28788700  0.40338500  1
  H  1039  1  0.55296400  0.72569300  0.61997500  1
  H  1040  1  0.51521200  0.69167200  0.61931700  1
  H  1043  1  0.45503200  0.70215600  0.65262200  1
  H  1044  1  0.44682100  0.74185800  0.68213100  1
  H  1045  1  0.45556100  0.70461200  0.58810800  1
  H  1046  1  0.42909100  0.74337100  0.57566600  1
  H  1049  1  0.44799700  0.79897600  0.65544800  1
  H  1050  1  0.46384200  0.82133700  0.60678800  1
  H  1052  1  0.51341900  0.81551300  0.66683700  1
  H  1053  1  0.54807700  0.78432500  0.65404800  1
  H  1055  1  0.50741200  0.80215100  0.56299900  1
  H  1056  1  0.54697700  0.78775900  0.58960400  1
  H  1063  1  0.05591300  0.06353500  0.14743300  1
  H  1064  1  0.02892200  0.11781100  0.12096700  1
  H  1065  1  0.09952600  0.18735400  0.19142800  1
  H  1067  1  0.13444100  0.16253200  0.24029800  1
  H  1068  1  0.13934600  0.11629200  0.24886600  1
  H  1075  1  0.93710500  0.42917800  0.64750800  1
  H  1076  1  0.96390200  0.37492100  0.62085100  1
  H  1077  1  0.89329000  0.30535100  0.69126500  1
  H  1079  1  0.85851300  0.33011600  0.74026000  1
  H  1080  1  0.85367600  0.37632300  0.74898500  1
  H  1087  1  0.43660800  0.56344500  0.84542700  1
  H  1088  1  0.46353600  0.61769900  0.87195400  1
  H  1089  1  0.39298300  0.68724800  0.80146200  1
  H  1091  1  0.35802200  0.66245400  0.75262400  1
  H  1092  1  0.35309800  0.61622100  0.74403200  1
  H  1099  1  0.55612500  0.92935100  0.34546900  1
  H  1100  1  0.52914700  0.87509700  0.37189100  1
  H  1101  1  0.59970600  0.80557100  0.30139900  1
  H  1103  1  0.63482100  0.83035100  0.25269800  1
  H  1104  1  0.64004600  0.87654900  0.24422300  1
  H  1111  1  0.14746700  0.05694500  0.06232100  1
  H  1112  1  0.12095400  0.02963300  0.11632900  1
  H  1113  1  0.19153100  0.09963500  0.18635800  1
  H  1115  1  0.24028500  0.13487100  0.16191000  1
  H  1116  1  0.24879800  0.14042200  0.11574800  1
  H  1123  1  0.64769500  0.93607500  0.43044400  1
  H  1124  1  0.62111900  0.96333700  0.37648600  1
  H  1125  1  0.69175900  0.89350300  0.30636700  1
  H  1127  1  0.74051600  0.85823600  0.33077700  1
  H  1128  1  0.74907000  0.85260800  0.37691100  1
  H  1135  1  0.84547400  0.43588900  0.56248700  1
  H  1136  1  0.87214000  0.46304400  0.61648200  1
  H  1137  1  0.80146400  0.39315200  0.68651500  1
  H  1139  1  0.75263200  0.35801400  0.66210700  1
  H  1140  1  0.74402300  0.35254200  0.61595300  1
  H  1147  1  0.34543400  0.55691600  0.93036100  1
  H  1148  1  0.37185900  0.52958100  0.87639200  1
  H  1149  1  0.30101200  0.59926700  0.80634000  1
  H  1151  1  0.25248000  0.63476900  0.83076100  1
  H  1152  1  0.24415100  0.64073800  0.87688100  1
  H  1159  1  0.06325300  0.14785700  0.05635500  1
  H  1160  1  0.11707000  0.12175600  0.02849400  1
  H  1161  1  0.18741500  0.19225300  0.09827700  1
  H  1163  1  0.16305400  0.24077400  0.13391600  1
  H  1164  1  0.11690900  0.24917100  0.13979500  1
  H  1171  1  0.42932100  0.64786600  0.93660700  1
  H  1172  1  0.37552300  0.62168900  0.96438200  1
  H  1173  1  0.30515000  0.69199800  0.89445500  1
  H  1175  1  0.32947600  0.74053900  0.85880700  1
  H  1176  1  0.37560200  0.74902900  0.85294500  1
  H  1183  1  0.56353200  0.84522400  0.43634900  1
  H  1184  1  0.61734400  0.87135700  0.46415900  1
  H  1185  1  0.68767600  0.80084500  0.39438300  1
  H  1187  1  0.66333300  0.75239100  0.35866000  1
  H  1188  1  0.61719300  0.74400300  0.35273100  1
  H  1195  1  0.92933700  0.34517500  0.55628500  1
  H  1196  1  0.87552200  0.37133200  0.52854800  1
  H  1197  1  0.80521000  0.30074400  0.59824500  1
  H  1199  1  0.82952700  0.25228700  0.63394800  1
  H  1200  1  0.87563000  0.24391300  0.64001400  1
  H  1207  1  0.06568000  0.55913400  0.63739400  1
  H  1208  1  0.03544600  0.61337100  0.61406700  1
  H  1209  1  0.09483400  0.68173600  0.69529900  1
  H  1211  1  0.13319500  0.65676700  0.74096400  1
  H  1212  1  0.14799900  0.61180200  0.74167100  1
  H  1219  1  0.92734000  0.93354800  0.13748000  1
  H  1220  1  0.95743200  0.87930800  0.11396900  1
  H  1221  1  0.89802300  0.81088000  0.19509700  1
  H  1223  1  0.85987800  0.83581400  0.24096900  1
  H  1224  1  0.84519700  0.88080700  0.24187200  1
  H  1231  1  0.42700100  0.05914700  0.35563000  1
  H  1232  1  0.45708100  0.11341200  0.37902400  1
  H  1233  1  0.39782600  0.18166100  0.29761200  1
  H  1235  1  0.35960600  0.15666000  0.25188300  1
  H  1236  1  0.34488700  0.11167600  0.25111900  1
  H  1243  1  0.56576700  0.43367200  0.85562900  1
  H  1244  1  0.53555600  0.37941400  0.87891000  1
  H  1245  1  0.59485500  0.31116300  0.79755300  1
  H  1247  1  0.63308400  0.33617600  0.75180900  1
  H  1248  1  0.64789000  0.38112600  0.75109800  1
  H  1255  1  0.15985100  0.55111900  0.56171300  1
  H  1256  1  0.13503000  0.52124800  0.61490200  1
  H  1257  1  0.18631700  0.60546300  0.68608400  1
  H  1259  1  0.23534100  0.64304400  0.66324500  1
  H  1260  1  0.24809900  0.64507500  0.61752400  1
  H  1267  1  0.65996200  0.44197800  0.93107100  1
  H  1268  1  0.63495500  0.47173200  0.87789700  1
  H  1269  1  0.68623200  0.38752300  0.80670000  1
  H  1271  1  0.73535300  0.35001800  0.82945800  1
  H  1272  1  0.74824300  0.34795800  0.87512600  1
  H  1279  1  0.83287200  0.94192200  0.06196400  1
  H  1280  1  0.85799500  0.97154800  0.11515300  1
  H  1281  1  0.80677600  0.88723100  0.18626000  1
  H  1283  1  0.75768800  0.84971200  0.16346100  1
  H  1284  1  0.74475900  0.84785500  0.11777900  1
  H  1291  1  0.33306500  0.05076700  0.43103200  1
  H  1292  1  0.35797000  0.02098100  0.37783400  1
  H  1293  1  0.30655000  0.10511700  0.30667200  1
  H  1295  1  0.25754500  0.14270800  0.32945600  1
  H  1296  1  0.24478100  0.14493300  0.37514200  1
  H  1303  1  0.06455900  0.64878000  0.55485300  1
  H  1304  1  0.11863700  0.62260600  0.52789900  1
  H  1305  1  0.18824100  0.69292900  0.59843500  1
  H  1307  1  0.16341600  0.73712200  0.63879100  1
  H  1308  1  0.11725600  0.74423800  0.64592500  1
  H  1315  1  0.42807200  0.14887700  0.43818000  1
  H  1316  1  0.37405000  0.12248400  0.46495900  1
  H  1317  1  0.30433500  0.19251800  0.39426700  1
  H  1319  1  0.32910900  0.23686200  0.35400600  1
  H  1320  1  0.37526100  0.24426200  0.34711700  1
  H  1327  1  0.56478100  0.34420900  0.93795500  1
  H  1328  1  0.61884000  0.37048200  0.96481600  1
  H  1329  1  0.68845600  0.30020500  0.89424500  1
  H  1331  1  0.66366400  0.25606500  0.85382100  1
  H  1332  1  0.61751000  0.24889300  0.84670800  1
  H  1339  1  0.92805300  0.84438800  0.05483900  1
  H  1340  1  0.87397900  0.87068500  0.02810000  1
  H  1341  1  0.80441900  0.79999200  0.09828100  1
  H  1343  1  0.82921000  0.75580200  0.13861900  1
  H  1344  1  0.87533600  0.74872300  0.14589300  1
  H  1351  1  0.54973000  0.06299600  0.65964800  1
  H  1352  1  0.51944400  0.11616500  0.63559300  1
  H  1353  1  0.60339700  0.18725000  0.68696000  1
  H  1355  1  0.64522100  0.16402200  0.73172000  1
  H  1356  1  0.64899600  0.11820100  0.74338600  1
  H  1363  1  0.44320900  0.42969600  0.15968900  1
  H  1364  1  0.47331000  0.37654200  0.13545700  1
  H  1365  1  0.38933600  0.30547000  0.18682100  1
  H  1367  1  0.34760600  0.32868700  0.23168700  1
  H  1368  1  0.34384800  0.37449300  0.24346900  1
  H  1375  1  0.94314700  0.56297300  0.33277100  1
  H  1376  1  0.97328500  0.61605500  0.35706800  1
  H  1377  1  0.88927100  0.68714900  0.30588100  1
  H  1379  1  0.84713000  0.66397000  0.26145700  1
  H  1380  1  0.84326800  0.61816500  0.24971700  1
  H  1387  1  0.04999700  0.92993600  0.83333100  1
  H  1388  1  0.01972800  0.87680000  0.85734900  1
  H  1389  1  0.10351300  0.80567300  0.80578700  1
  H  1391  1  0.14546600  0.82890500  0.76116300  1
  H  1392  1  0.14949400  0.87471600  0.74960000  1
  H  1399  1  0.63623900  0.06316500  0.56040300  1
  H  1400  1  0.61332700  0.03420900  0.61508300  1
  H  1401  1  0.69446900  0.09539400  0.68209100  1
  H  1403  1  0.73592900  0.13806000  0.65636800  1
  H  1404  1  0.73555900  0.15188700  0.61105700  1
  H  1411  1  0.13642600  0.92974400  0.93234600  1
  H  1412  1  0.11352900  0.95872100  0.87771900  1
  H  1413  1  0.19469600  0.89765600  0.81063500  1
  H  1415  1  0.23619700  0.85498500  0.83638200  1
  H  1416  1  0.23590800  0.84120400  0.88170700  1
  H  1423  1  0.35655200  0.42967900  0.06050700  1
  H  1424  1  0.37960400  0.45847800  0.11517700  1
  H  1425  1  0.29845900  0.39735800  0.18222300  1
  H  1427  1  0.25690400  0.35477400  0.15649400  1
  H  1428  1  0.25715100  0.34104200  0.11115900  1
  H  1435  1  0.85678400  0.56299900  0.43227200  1
  H  1436  1  0.87982900  0.53419700  0.37753400  1
  H  1437  1  0.79822800  0.59485200  0.31067100  1
  H  1439  1  0.75677400  0.63750200  0.33634500  1
  H  1440  1  0.75717800  0.65146900  0.38158800  1
  H  1447  1  0.55613100  0.14155800  0.56358100  1
  H  1448  1  0.60865600  0.12293200  0.52798000  1
  H  1449  1  0.68037900  0.18951800  0.60048600  1
  H  1451  1  0.65644900  0.23834400  0.63688800  1
  H  1452  1  0.61059700  0.24331300  0.64803200  1
  H  1459  1  0.93657800  0.64144000  0.42921900  1
  H  1460  1  0.88405500  0.62275700  0.46480500  1
  H  1461  1  0.81227700  0.68918400  0.39219700  1
  H  1463  1  0.83617800  0.73811200  0.35587400  1
  H  1464  1  0.88204400  0.74323100  0.34486700  1
  H  1471  1  0.05638500  0.85135900  0.92923500  1
  H  1472  1  0.10891300  0.87005300  0.96478100  1
  H  1473  1  0.18065800  0.80352500  0.89224600  1
  H  1475  1  0.15674900  0.75471600  0.85581200  1
  H  1476  1  0.11089000  0.74965800  0.84474900  1
  H  1483  1  0.43655600  0.35126400  0.06346900  1
  H  1484  1  0.38401900  0.36999600  0.02794900  1
  H  1485  1  0.31229000  0.30338900  0.10041700  1
  H  1487  1  0.33619600  0.25448600  0.13673100  1
  H  1488  1  0.38204500  0.24943400  0.14782000  1
  H  1495  1  0.56100900  0.55784800  0.14114900  1
  H  1496  1  0.52624900  0.61080700  0.12302800  1
  H  1497  1  0.59971800  0.68115400  0.18992700  1
  H  1499  1  0.64052600  0.65640300  0.23461100  1
  H  1500  1  0.65157400  0.61037900  0.23812900  1
  H  1507  1  0.43192000  0.93486400  0.64121600  1
  H  1508  1  0.46654300  0.88187000  0.62295200  1
  H  1509  1  0.39298900  0.81155200  0.68978900  1
  H  1511  1  0.35231500  0.83632000  0.73459600  1
  H  1512  1  0.34142100  0.88236700  0.73826000  1
  H  1519  1  0.93168300  0.05790800  0.85189200  1
  H  1520  1  0.96645100  0.11084900  0.86991300  1
  H  1521  1  0.89303700  0.18109000  0.80285600  1
  H  1523  1  0.85226700  0.15628300  0.75819100  1
  H  1524  1  0.84127700  0.11025300  0.75466400  1
  H  1531  1  0.06116700  0.43492600  0.35206400  1
  H  1532  1  0.02632000  0.38199300  0.36992300  1
  H  1533  1  0.09979100  0.31179200  0.30290900  1
  H  1535  1  0.14055000  0.33663000  0.25824600  1
  H  1536  1  0.15163000  0.38264200  0.25483100  1
  H  1543  1  0.64151300  0.56097900  0.05816300  1
  H  1544  1  0.62288300  0.52645500  0.11112500  1
  H  1545  1  0.68897400  0.60022700  0.18185900  1
  H  1547  1  0.73377500  0.64105600  0.15735900  1
  H  1548  1  0.73754700  0.65214200  0.11136300  1
  H  1555  1  0.14152500  0.43190800  0.43479200  1
  H  1556  1  0.12287900  0.46651100  0.38188200  1
  H  1557  1  0.18904900  0.39287000  0.31106400  1
  H  1559  1  0.23389000  0.35205300  0.33550400  1
  H  1560  1  0.23773200  0.34097000  0.38149000  1
  H  1567  1  0.35126700  0.93186900  0.55822900  1
  H  1568  1  0.37011500  0.96625600  0.61120300  1
  H  1569  1  0.30391900  0.89262700  0.68198300  1
  H  1571  1  0.25912000  0.85179300  0.65752900  1
  H  1572  1  0.25521400  0.84078200  0.61153200  1
  H  1579  1  0.85135600  0.06083400  0.93461600  1
  H  1580  1  0.87004700  0.02631000  0.88166000  1
  H  1581  1  0.80385400  0.09995300  0.81089700  1
  H  1583  1  0.75899500  0.14071400  0.83534500  1
  H  1584  1  0.75518200  0.15183600  0.88132000  1
  H  1591  1  0.55782700  0.64120700  0.06159800  1
  H  1592  1  0.61083000  0.62314700  0.02708200  1
  H  1593  1  0.68106900  0.68946900  0.10114000  1
  H  1595  1  0.65617000  0.73401100  0.14204300  1
  H  1596  1  0.61009100  0.73769900  0.15279600  1
  H  1603  1  0.93490500  0.14123600  0.93122300  1
  H  1604  1  0.88191000  0.12303800  0.96567100  1
  H  1605  1  0.81159900  0.18925300  0.89157600  1
  H  1607  1  0.83646600  0.23383600  0.85067500  1
  H  1608  1  0.88256200  0.23766200  0.84003400  1
  H  1615  1  0.05797100  0.35164500  0.43125600  1
  H  1616  1  0.11095500  0.36980700  0.46574200  1
  H  1617  1  0.18127500  0.30355200  0.39170200  1
  H  1619  1  0.15643600  0.25906100  0.35072300  1
  H  1620  1  0.11035900  0.25527200  0.34001200  1
  H  1627  1  0.43486500  0.85157400  0.56153000  1
  H  1628  1  0.38185900  0.86975000  0.52709800  1
  H  1629  1  0.31159700  0.80339700  0.60109800  1
  H  1631  1  0.33647900  0.75875600  0.64190600  1
  H  1632  1  0.38255500  0.75499800  0.65262200  1
  H  1639  1  0.21838400  0.93041100  0.23239200  1
  H  1640  1  0.28285800  0.92158300  0.25341300  1
  H  1641  1  0.27840500  0.03005600  0.30733300  1
  H  1643  1  0.24283400  0.07846700  0.28037100  1
  H  1644  1  0.21168800  0.07093500  0.24538600  1
  H  1651  1  0.77491500  0.56227500  0.73296900  1
  H  1652  1  0.71047700  0.57113700  0.75391600  1
  H  1653  1  0.71448700  0.46253800  0.80742800  1
  H  1655  1  0.75019300  0.41409000  0.78049100  1
  H  1656  1  0.78149600  0.42152600  0.74566200  1
  H  1663  1  0.27451200  0.43023200  0.75967000  1
  H  1664  1  0.21004700  0.42148300  0.73861000  1
  H  1665  1  0.21450200  0.53011400  0.68502200  1
  H  1667  1  0.25015900  0.57842200  0.71204300  1
  H  1668  1  0.28128000  0.57079900  0.74703500  1
  H  1675  1  0.71871100  0.06247600  0.26009500  1
  H  1676  1  0.78318400  0.07102900  0.23918500  1
  H  1677  1  0.77860800  0.96256900  0.18540200  1
  H  1679  1  0.74259400  0.91427200  0.21223700  1
  H  1680  1  0.71132700  0.92186000  0.24708100  1
  H  1687  1  0.23682400  0.21768800  0.92978200  1
  H  1688  1  0.25881700  0.28181400  0.92110000  1
  H  1689  1  0.31020300  0.27777400  0.03078100  1
  H  1691  1  0.28310000  0.24141300  0.07850100  1
  H  1692  1  0.24776400  0.21082200  0.07047400  1
  H  1699  1  0.73746900  0.77556700  0.56288300  1
  H  1700  1  0.75935000  0.71146300  0.57157900  1
  H  1701  1  0.81025100  0.71499100  0.46174900  1
  H  1703  1  0.78323300  0.75156700  0.41402900  1
  H  1704  1  0.74809200  0.78236900  0.42198300  1
  H  1711  1  0.75523400  0.27571300  0.42974800  1
  H  1712  1  0.73331000  0.21156900  0.42107800  1
  H  1713  1  0.68260300  0.21528100  0.53107400  1
  H  1715  1  0.70980400  0.25168500  0.57868100  1
  H  1716  1  0.74495700  0.28244900  0.57050300  1
  H  1723  1  0.25555500  0.71744200  0.06306400  1
  H  1724  1  0.23378400  0.78159200  0.07157000  1
  H  1725  1  0.18284200  0.77780200  0.96176000  1
  H  1727  1  0.20990700  0.74110400  0.91412700  1
  H  1728  1  0.24493500  0.71020600  0.92224400  1
  H  1735  1  0.93013700  0.23587600  0.21636700  1
  H  1736  1  0.92073300  0.25722300  0.28063800  1
  H  1737  1  0.02987200  0.30983900  0.27760000  1
  H  1739  1  0.07842500  0.28247300  0.24228700  1
  H  1740  1  0.07093200  0.24702000  0.21168400  1
  H  1747  1  0.56250500  0.73598400  0.77679200  1
  H  1748  1  0.57199600  0.75730100  0.71257800  1
  H  1749  1  0.46282000  0.80964000  0.71516800  1
  H  1751  1  0.41414200  0.78220300  0.75048700  1
  H  1752  1  0.42150900  0.74687800  0.78123700  1
  H  1759  1  0.43008900  0.75656100  0.27691000  1
  H  1760  1  0.42063300  0.73519600  0.21265400  1
  H  1761  1  0.53006400  0.68320500  0.21536800  1
  H  1763  1  0.57856500  0.71082000  0.25055800  1
  H  1764  1  0.57094800  0.74612200  0.28130600  1
  H  1771  1  0.06269400  0.25669800  0.71610000  1
  H  1772  1  0.07195600  0.23552200  0.78037500  1
  H  1773  1  0.96277500  0.18318500  0.77753200  1
  H  1775  1  0.91423700  0.21059700  0.74199400  1
  H  1776  1  0.92177500  0.24580000  0.71113700  1
  H  1783  1  0.68634300  0.46226700  0.48903800  1
  H  1784  1  0.67976800  0.52740700  0.46961900  1
  H  1785  1  0.79849600  0.53259300  0.44854700  1
  H  1787  1  0.84091000  0.49027500  0.47388900  1
  H  1788  1  0.82725100  0.45523300  0.50267900  1
  H  1795  1  0.30634700  0.03088500  0.98898400  1
  H  1796  1  0.31306100  0.96575600  0.96973700  1
  H  1797  1  0.19448000  0.96007500  0.94869200  1
  H  1799  1  0.15183500  0.00257800  0.97358500  1
  H  1800  1  0.16523300  0.03780800  0.00224300  1
  H  1807  1  0.18646400  0.53062300  0.00369900  1
  H  1808  1  0.17975900  0.46551800  0.02318900  1
  H  1809  1  0.29843900  0.46018300  0.04442900  1
  H  1811  1  0.34096700  0.50236500  0.01906000  1
  H  1812  1  0.32741300  0.53736700  0.99017200  1
  H  1819  1  0.80648800  0.96236200  0.50386700  1
  H  1820  1  0.81301900  0.02750100  0.52313100  1
  H  1821  1  0.69442500  0.03282900  0.54425600  1
  H  1823  1  0.65190600  0.99027100  0.51924000  1
  H  1824  1  0.66540200  0.95510900  0.49054800  1
  H  1831  1  0.96071200  0.50257200  0.80754200  1
  H  1832  1  0.02551200  0.52267400  0.81521900  1
  H  1833  1  0.03145500  0.54690400  0.69702700  1
  H  1835  1  0.99121100  0.51953700  0.65370500  1
  H  1836  1  0.95705900  0.48931200  0.66666667  1
  H  1843  1  0.53271900  0.00336700  0.18578000  1
  H  1844  1  0.46790800  0.02316100  0.17798800  1
  H  1845  1  0.46100100  0.04611600  0.29629100  1
  H  1847  1  0.50168100  0.01920500  0.33966300  1
  H  1848  1  0.53633300  0.98954300  0.32684200  1
  H  1855  1  0.03252300  0.99017200  0.30745800  1
  H  1856  1  0.96775200  0.97001700  0.31526700  1
  H  1857  1  0.96154400  0.94587700  0.19706700  1
  H  1859  1  0.00171100  0.97324200  0.15367500  1
  H  1860  1  0.03589000  0.00346100  0.16652600  1
  H  1867  1  0.46024200  0.48935200  0.68562100  1
  H  1868  1  0.52510200  0.46964500  0.67800400  1
  H  1869  1  0.53177600  0.44687700  0.79635400  1
  H  1871  1  0.49092400  0.47373500  0.83959500  1
  H  1872  1  0.45622800  0.50329100  0.82665500  1
  H  1879  1  0.99985500  0.18388600  0.52971500  1
  H  1880  1  0.01985500  0.17712600  0.46463600  1
  H  1881  1  0.04293800  0.29508000  0.46037800  1
  H  1883  1  0.01759500  0.33814700  0.50172500  1
  H  1884  1  0.98787300  0.32490700  0.53611200  1
  H  1891  1  0.49995200  0.80888600  0.96295000  1
  H  1892  1  0.51971700  0.81559800  0.02805800  1
  H  1893  1  0.54252700  0.69771100  0.03260600  1
  H  1895  1  0.51766800  0.65458700  0.99087000  1
  H  1896  1  0.48817900  0.66770100  0.95625600  1
  H  1903  1  0.49281600  0.68392700  0.46285500  1
  H  1904  1  0.47293100  0.67720400  0.52796900  1
  H  1905  1  0.45026400  0.79524200  0.53234900  1
  H  1907  1  0.47546300  0.83823600  0.49083700  1
  H  1908  1  0.50498700  0.82492300  0.45630700  1
  H  1915  1  0.99259600  0.30891400  0.02993500  1
  H  1916  1  0.97287500  0.31561600  0.96481600  1
  H  1917  1  0.95024000  0.19769500  0.96019700  1
  H  1919  1  0.97501400  0.15459800  0.00201800  1
  H  1920  1  0.00443200  0.16774200  0.03667900  1
  H  1927  1  0.23839500  0.71742700  0.42944300  1
  H  1928  1  0.25900900  0.78196400  0.42079900  1
  H  1929  1  0.31176000  0.77829700  0.52982000  1
  H  1931  1  0.28602500  0.74100800  0.57779600  1
  H  1932  1  0.25067000  0.71034300  0.57006600  1
  H  1939  1  0.73904300  0.27593000  0.06323500  1
  H  1940  1  0.75952700  0.21142100  0.07189200  1
  H  1941  1  0.81168900  0.21454500  0.96266200  1
  H  1943  1  0.78598400  0.25200100  0.91468500  1
  H  1944  1  0.75086900  0.28292100  0.92236900  1
  H  1951  1  0.75359600  0.77605300  0.92945000  1
  H  1952  1  0.73305900  0.71150100  0.92078600  1
  H  1953  1  0.68109200  0.71475800  0.03018200  1
  H  1955  1  0.70695800  0.75205300  0.07805600  1
  H  1956  1  0.74209300  0.78292800  0.07016600  1
  H  1963  1  0.25398800  0.21699700  0.56332200  1
  H  1964  1  0.23356500  0.28152600  0.57185900  1
  H  1965  1  0.18138300  0.27823900  0.46263700  1
  H  1967  1  0.20705900  0.24063400  0.41473300  1
  H  1968  1  0.24205200  0.20959700  0.42253600  1
  H  1975  1  0.93074800  0.72765400  0.71980200  1
  H  1976  1  0.92108300  0.74960800  0.78391700  1
  H  1977  1  0.02831500  0.80592300  0.77877400  1
  H  1979  1  0.07786900  0.77793000  0.74516700  1
  H  1980  1  0.07114900  0.74214900  0.71475500  1
  H  1987  1  0.56191400  0.22779700  0.27338300  1
  H  1988  1  0.57167800  0.24964400  0.20929900  1
  H  1989  1  0.46438600  0.30568900  0.21393700  1
  H  1991  1  0.41471300  0.27768600  0.24758900  1
  H  1992  1  0.42130500  0.24207800  0.27819600  1
  H  1999  1  0.43065100  0.26476100  0.77351200  1
  H  2000  1  0.42093500  0.24290600  0.70937400  1
  H  2001  1  0.52845800  0.18714200  0.71412900  1
  H  2003  1  0.57795900  0.21530200  0.74765500  1
  H  2004  1  0.57112800  0.25090300  0.77825300  1
  H  2011  1  0.06207700  0.76488000  0.21952800  1
  H  2012  1  0.07161300  0.74313200  0.28366200  1
  H  2013  1  0.96433300  0.68706200  0.27873400  1
  H  2015  1  0.91479300  0.71503700  0.24486600  1
  H  2016  1  0.92155100  0.75055100  0.21417400  1
  H  2023  1  0.68321700  0.96384100  0.99511700  1
  H  2024  1  0.67600200  0.02919700  0.97547400  1
  H  2025  1  0.79190900  0.03179900  0.94445100  1
  H  2027  1  0.83615200  0.98995700  0.96611700  1
  H  2028  1  0.82519400  0.95648900  0.99758300  1
  H  2035  1  0.30942900  0.52933700  0.49500400  1
  H  2036  1  0.31678100  0.46397000  0.47559100  1
  H  2037  1  0.20095300  0.46075700  0.44480400  1
  H  2039  1  0.15656000  0.50287200  0.46587600  1
  H  2040  1  0.16725900  0.53659200  0.49712000  1
  H  2047  1  0.18333600  0.02892900  0.49741100  1
  H  2048  1  0.17591700  0.96360800  0.51713000  1
  H  2049  1  0.29155200  0.96104700  0.54915100  1
  H  2051  1  0.33603900  0.00263000  0.52742100  1
  H  2052  1  0.32535800  0.03587100  0.49561900  1
  H  2059  1  0.80957300  0.46395800  0.99763900  1
  H  2060  1  0.81680300  0.52930700  0.01714800  1
  H  2061  1  0.70110200  0.53207000  0.04850800  1
  H  2063  1  0.65672600  0.49005100  0.02716300  1
  H  2064  1  0.66743600  0.45650700  0.99572500  1
  H  2071  1  0.00064000  0.68540600  0.03419600  1
  H  2072  1  0.02064100  0.67714300  0.96935900  1
  H  2073  1  0.04519400  0.79484600  0.96286000  1
  H  2075  1  0.01864400  0.83889000  0.00253600  1
  H  2076  1  0.98835600  0.82646300  0.03675500  1
  H  2083  1  0.50059000  0.30750500  0.45849800  1
  H  2084  1  0.52039800  0.31573900  0.52335800  1
  H  2085  1  0.54485500  0.19814900  0.53012000  1
  H  2087  1  0.51881800  0.15400000  0.49007400  1
  H  2088  1  0.48870900  0.16623700  0.45566600  1
  H  2095  1  0.49212300  0.18534500  0.95839800  1
  H  2096  1  0.47222700  0.17710100  0.02326600  1
  H  2097  1  0.44795100  0.29484700  0.02987500  1
  H  2099  1  0.47432300  0.33885700  0.99005300  1
  H  2100  1  0.50445200  0.32639400  0.95571200  1
  H  2107  1  0.99186300  0.80732300  0.53445300  1
  H  2108  1  0.97212100  0.81555100  0.46958100  1
  H  2109  1  0.94796400  0.69790100  0.46269800  1
  H  2111  1  0.97392800  0.65379200  0.50284500  1
  H  2112  1  0.00392800  0.66607700  0.53733500  1
  H  2119  1  0.71825400  0.93062300  0.73345500  1
  H  2120  1  0.78207500  0.92097500  0.75603500  1
  H  2121  1  0.77849200  0.03019800  0.80847600  1
  H  2123  1  0.74312100  0.07878900  0.78106500  1
  H  2124  1  0.71260400  0.07139000  0.74549900  1
  H  2131  1  0.27504200  0.56213200  0.23388100  1
  H  2132  1  0.21127000  0.57179800  0.25640200  1
  H  2133  1  0.21447800  0.46253500  0.30861100  1
  H  2135  1  0.24990800  0.41386600  0.28115200  1
  H  2136  1  0.28052300  0.42116200  0.24566500  1
  H  2143  1  0.77457700  0.43056000  0.25877900  1
  H  2144  1  0.71077100  0.42089500  0.23613800  1
  H  2145  1  0.71431300  0.53023600  0.18393800  1
  H  2147  1  0.74933500  0.57886700  0.21182600  1
  H  2148  1  0.77983700  0.57139900  0.24739500  1
  H  2155  1  0.21856200  0.06231600  0.75905900  1
  H  2156  1  0.28237800  0.07173400  0.73658100  1
  H  2157  1  0.27863800  0.96266200  0.68402600  1
  H  2159  1  0.24287200  0.91409500  0.71130600  1
  H  2160  1  0.21233500  0.92147900  0.74684300  1
  H  2167  1  0.46113800  0.49882600  0.30802000  1
  H  2168  1  0.52653400  0.51785800  0.31580600  1
  H  2169  1  0.53148700  0.54591500  0.19921100  1
  H  2171  1  0.48942500  0.52504900  0.15490700  1
  H  2172  1  0.45536100  0.49431500  0.16603600  1
  H  2179  1  0.03232500  0.99988500  0.68522500  1
  H  2180  1  0.96687600  0.01854000  0.67735500  1
  H  2181  1  0.96082500  0.04471900  0.79424100  1
  H  2183  1  0.00341400  0.02461900  0.83850300  1
  H  2184  1  0.03810200  0.99461000  0.82741100  1
  H  2191  1  0.53198200  0.99377800  0.80797500  1
  H  2192  1  0.46658100  0.97477500  0.81580700  1
  H  2193  1  0.46141200  0.94702100  0.69914900  1
  H  2195  1  0.50349400  0.96784000  0.65484900  1
  H  2196  1  0.53765800  0.99845800  0.66598400  1
  H  2203  1  0.96059000  0.49171900  0.18489700  1
  H  2204  1  0.02604900  0.47299200  0.17763000  1
  H  2205  1  0.03191300  0.44950200  0.29517000  1
  H  2207  1  0.98901400  0.47028000  0.33878100  1
  H  2208  1  0.95376200  0.49927700  0.32689500  1
  C  1  1  0.09380900  0.97790100  0.23383400  1
  C  2  1  0.07085800  0.01526600  0.24136400  1
  C  3  1  0.12318100  0.96781400  0.26392100  1
  C  4  1  0.15291800  0.99891600  0.25996200  1
  C  7  1  0.13465500  0.03651200  0.27022300  1
  C  8  1  0.10596500  0.04284200  0.23641400  1
  C  13  1  0.12382500  0.05097200  0.19520100  1
  C  14  1  0.14134100  0.00860300  0.19591400  1
  C  17  1  0.17626600  0.99866200  0.22220900  1
  C  20  1  0.11244800  0.97444400  0.19505800  1
  C  23  1  0.89919600  0.51493500  0.73395900  1
  C  24  1  0.92217100  0.47757400  0.74148800  1
  C  25  1  0.86982900  0.52505800  0.76403600  1
  C  26  1  0.84038100  0.49375600  0.76029800  1
  C  29  1  0.85843100  0.45609400  0.77038300  1
  C  30  1  0.88712600  0.44987700  0.73656100  1
  C  35  1  0.86922900  0.44171300  0.69536300  1
  C  36  1  0.85183000  0.48409000  0.69604700  1
  C  39  1  0.81692200  0.49397700  0.72251200  1
  C  42  1  0.88052200  0.51835200  0.69520200  1
  C  45  1  0.39876900  0.47758800  0.75937000  1
  C  46  1  0.42175300  0.51491500  0.75153800  1
  C  47  1  0.36961500  0.46768400  0.72894700  1
  C  48  1  0.34003300  0.49904100  0.73257300  1
  C  51  1  0.35831900  0.53646100  0.72233700  1
  C  52  1  0.38670200  0.54275100  0.75632900  1
  C  57  1  0.36883200  0.55082200  0.79753200  1
  C  58  1  0.35136000  0.50845100  0.79686000  1
  C  61  1  0.31653300  0.49849700  0.77028100  1
  C  64  1  0.38000200  0.47416500  0.79792500  1
  C  67  1  0.59392300  0.01506000  0.25909400  1
  C  68  1  0.57089800  0.97770000  0.25169400  1
  C  69  1  0.62329300  0.02513300  0.22897600  1
  C  70  1  0.65283200  0.99372000  0.23261000  1
  C  73  1  0.63450700  0.95627600  0.22240000  1
  C  74  1  0.60610100  0.95013500  0.25635500  1
  C  79  1  0.62393600  0.94201200  0.29761800  1
  C  80  1  0.64151600  0.98436300  0.29682600  1
  C  83  1  0.67630200  0.99432800  0.27033100  1
  C  86  1  0.61264400  0.01851800  0.29780400  1
  C  89  1  0.23423000  0.09353800  0.97702800  1
  C  90  1  0.24106200  0.07043200  0.01440600  1
  C  91  1  0.26504800  0.12225000  0.96724300  1
  C  92  1  0.26160600  0.15200900  0.99841200  1
  C  95  1  0.27122500  0.13346400  0.03603500  1
  C  96  1  0.23679500  0.10550600  0.04211900  1
  C  101  1  0.19594200  0.12426700  0.04996600  1
  C  102  1  0.19724700  0.14190400  0.00765600  1
  C  105  1  0.22442900  0.17624400  0.99799600  1
  C  108  1  0.19594400  0.11313800  0.97340200  1
  C  111  1  0.73443300  0.89943400  0.51585200  1
  C  112  1  0.74128100  0.92258400  0.47849300  1
  C  113  1  0.76523200  0.87072000  0.52567800  1
  C  114  1  0.76201900  0.84126300  0.49429400  1
  C  117  1  0.77149200  0.85960400  0.45662100  1
  C  118  1  0.73706400  0.88758000  0.45064300  1
  C  123  1  0.69623300  0.86879000  0.44272600  1
  C  124  1  0.69746700  0.85125100  0.48504200  1
  C  127  1  0.72480500  0.81692200  0.49464900  1
  C  130  1  0.69616600  0.87980000  0.51941500  1
  C  133  1  0.75862800  0.39954300  0.47718400  1
  C  134  1  0.75151800  0.42261200  0.51459500  1
  C  135  1  0.72753500  0.37100900  0.46753800  1
  C  136  1  0.73079800  0.34132800  0.49885800  1
  C  139  1  0.72123700  0.35977400  0.53637100  1
  C  140  1  0.75579600  0.38748800  0.54241100  1
  C  145  1  0.79670600  0.36880600  0.55008300  1
  C  146  1  0.79539900  0.35133700  0.50771700  1
  C  149  1  0.76800000  0.31706300  0.49799400  1
  C  152  1  0.79674900  0.37996700  0.47342900  1
  C  155  1  0.25831200  0.59315500  0.01553500  1
  C  156  1  0.25162700  0.57006300  0.97809600  1
  C  157  1  0.22751900  0.62190200  0.02535200  1
  C  158  1  0.23077900  0.65154200  0.99397300  1
  C  161  1  0.22122200  0.63306400  0.95643600  1
  C  162  1  0.25573800  0.60532400  0.95052500  1
  C  167  1  0.29669200  0.62399400  0.94278600  1
  C  168  1  0.29529800  0.64155300  0.98513700  1
  C  171  1  0.26799500  0.67578400  0.99488700  1
  C  174  1  0.29658800  0.61269300  0.01930000  1
  C  177  1  0.97848600  0.23577400  0.09300800  1
  C  178  1  0.01608700  0.24296000  0.07036300  1
  C  179  1  0.96861700  0.26605900  0.12223100  1
  C  180  1  0.99954500  0.26183700  0.15214100  1
  C  183  1  0.03737000  0.27171700  0.13415400  1
  C  184  1  0.04353300  0.23783800  0.10553600  1
  C  189  1  0.05108200  0.19653800  0.12355500  1
  C  190  1  0.00864900  0.19773900  0.14086000  1
  C  193  1  0.99885300  0.22418400  0.17567200  1
  C  196  1  0.97453400  0.19715600  0.11190300  1
  C  199  1  0.51418700  0.73566400  0.89984500  1
  C  200  1  0.47656900  0.74288500  0.92247700  1
  C  201  1  0.52413800  0.76589000  0.87059700  1
  C  202  1  0.49303400  0.76185000  0.84095100  1
  C  205  1  0.45513700  0.77160300  0.85867900  1
  C  206  1  0.44904200  0.73775100  0.88733800  1
  C  211  1  0.44145100  0.69645100  0.86932300  1
  C  212  1  0.48391800  0.69756900  0.85218800  1
  C  215  1  0.49371800  0.72412400  0.81736400  1
  C  218  1  0.51810800  0.69703300  0.88098200  1
  C  221  1  0.47876400  0.75735900  0.39991000  1
  C  222  1  0.51642300  0.74986700  0.42246300  1
  C  223  1  0.46899900  0.72682800  0.37084000  1
  C  224  1  0.50005100  0.73090000  0.34098100  1
  C  227  1  0.53778300  0.72105100  0.35882300  1
  C  228  1  0.54393600  0.75503900  0.38721700  1
  C  233  1  0.55130500  0.79639700  0.36930000  1
  C  234  1  0.50879100  0.79523300  0.35222200  1
  C  237  1  0.49888700  0.76860200  0.31746200  1
  C  240  1  0.47467500  0.79583300  0.38108500  1
  C  243  1  0.01395900  0.25683800  0.59259300  1
  C  244  1  0.97627700  0.24980300  0.56999300  1
  C  245  1  0.02387500  0.22659200  0.62185800  1
  C  246  1  0.99275900  0.23066400  0.65167000  1
  C  249  1  0.95500200  0.22085800  0.63378800  1
  C  250  1  0.94900600  0.25481800  0.60537300  1
  C  255  1  0.94160500  0.29623800  0.62327300  1
  C  256  1  0.98408600  0.29492000  0.64047700  1
  C  259  1  0.99398800  0.26836100  0.67519000  1
  C  262  1  0.01808100  0.29545800  0.61139800  1
  C  265  1  0.08443000  0.49202100  0.74946600  1
  C  266  1  0.08088400  0.53561700  0.75771400  1
  C  267  1  0.11678800  0.47253500  0.77092800  1
  C  268  1  0.15246000  0.48938100  0.75271700  1
  C  271  1  0.15326100  0.53188300  0.76163200  1
  C  272  1  0.11919400  0.54653200  0.73725300  1
  C  277  1  0.12529700  0.54592900  0.69190500  1
  C  278  1  0.12381500  0.49999000  0.69470200  1
  C  281  1  0.15887500  0.47672100  0.71021500  1
  C  284  1  0.08643500  0.47985500  0.70807600  1
  C  287  1  0.90869300  0.00071800  0.24967100  1
  C  288  1  0.91227600  0.95709100  0.25786800  1
  C  289  1  0.87636900  0.02021000  0.27116900  1
  C  290  1  0.84080600  0.00309000  0.25318200  1
  C  293  1  0.83987100  0.96060100  0.26182100  1
  C  294  1  0.87397100  0.94610100  0.23741700  1
  C  299  1  0.86781500  0.94673000  0.19208600  1
  C  300  1  0.86941300  0.99263700  0.19489600  1
  C  303  1  0.83427700  0.01581000  0.21061700  1
  C  306  1  0.90663500  0.01294200  0.20830200  1
  C  309  1  0.40858600  0.99173200  0.24361400  1
  C  310  1  0.41213700  0.03536600  0.23522000  1
  C  311  1  0.37620700  0.97260100  0.22175000  1
  C  312  1  0.34047500  0.98970900  0.23972000  1
  C  315  1  0.33986100  0.03209700  0.23092600  1
  C  316  1  0.37376500  0.04643500  0.25558800  1
  C  321  1  0.36765600  0.04574200  0.30088600  1
  C  322  1  0.36912900  0.99980000  0.29804900  1
  C  325  1  0.33404300  0.97664700  0.28215500  1
  C  328  1  0.40633600  0.97938300  0.28480000  1
  C  331  1  0.58454600  0.50105200  0.74344100  1
  C  332  1  0.58075600  0.45743300  0.73535900  1
  C  333  1  0.61700100  0.52035200  0.72192100  1
  C  334  1  0.65268000  0.50309000  0.73990800  1
  C  337  1  0.65322400  0.46068100  0.73105400  1
  C  338  1  0.61919200  0.44646000  0.75557200  1
  C  343  1  0.62519900  0.44702800  0.80093800  1
  C  344  1  0.62400300  0.49299600  0.79807700  1
  C  347  1  0.65910100  0.51610300  0.78236600  1
  C  350  1  0.58673100  0.51334100  0.78477300  1
  C  353  1  0.23472300  0.59372000  0.47653400  1
  C  354  1  0.24098400  0.57043000  0.51367800  1
  C  355  1  0.26592600  0.62206500  0.46686900  1
  C  356  1  0.26312500  0.65177200  0.49820300  1
  C  359  1  0.27286700  0.63293500  0.53574800  1
  C  360  1  0.23831100  0.60533200  0.54195100  1
  C  365  1  0.19782700  0.62498400  0.55005100  1
  C  366  1  0.19883800  0.64248200  0.50778100  1
  C  369  1  0.22621200  0.67645600  0.49787400  1
  C  372  1  0.19667500  0.61376100  0.47358900  1
  C  375  1  0.73491900  0.39934800  0.01628900  1
  C  376  1  0.74116500  0.42267600  0.97914100  1
  C  377  1  0.76610500  0.37100300  0.02599500  1
  C  378  1  0.76349700  0.34158400  0.99447400  1
  C  381  1  0.77306400  0.36019600  0.95685800  1
  C  382  1  0.73849300  0.38781100  0.95078100  1
  C  387  1  0.69802600  0.36813000  0.94266100  1
  C  388  1  0.69900400  0.35075800  0.98493900  1
  C  391  1  0.72654600  0.31680100  0.99478500  1
  C  394  1  0.69688200  0.37928900  0.01923000  1
  C  397  1  0.75809500  0.89937300  0.97676600  1
  C  398  1  0.75155000  0.92264000  0.01394900  1
  C  399  1  0.72661000  0.87121700  0.96725500  1
  C  400  1  0.72925500  0.84158300  0.99872700  1
  C  403  1  0.71959200  0.86031500  0.03617300  1
  C  404  1  0.75428000  0.88767300  0.04230700  1
  C  409  1  0.79482600  0.86812300  0.05021000  1
  C  410  1  0.79380100  0.85079100  0.00789000  1
  C  413  1  0.76621000  0.81688100  0.99792800  1
  C  416  1  0.79598400  0.87937500  0.97365800  1
  C  419  1  0.25790800  0.09328700  0.51609400  1
  C  420  1  0.25181100  0.06997500  0.47893600  1
  C  421  1  0.22673100  0.12168500  0.52572500  1
  C  422  1  0.22935300  0.15121200  0.49413100  1
  C  425  1  0.21967600  0.13238900  0.45669700  1
  C  426  1  0.25430300  0.10497100  0.45068600  1
  C  431  1  0.29489700  0.12453600  0.44269100  1
  C  432  1  0.29379400  0.14201900  0.48496600  1
  C  435  1  0.26630700  0.17590400  0.49491400  1
  C  438  1  0.29595300  0.11325900  0.51910900  1
  C  441  1  0.97818900  0.73192100  0.59590800  1
  C  442  1  0.01547200  0.74031800  0.57315400  1
  C  443  1  0.96818900  0.76129700  0.62597400  1
  C  444  1  0.99942900  0.75665700  0.65547700  1
  C  447  1  0.03701500  0.76753400  0.63752200  1
  C  448  1  0.04334000  0.73460500  0.60791400  1
  C  453  1  0.05148600  0.69295800  0.62473400  1
  C  454  1  0.00928600  0.69302000  0.64253700  1
  C  457  1  0.99937500  0.71844000  0.67812700  1
  C  460  1  0.97494700  0.69274900  0.61386300  1
  C  463  1  0.51451900  0.23194800  0.39696800  1
  C  464  1  0.47722700  0.24037400  0.41969800  1
  C  465  1  0.52458100  0.26125100  0.36685300  1
  C  466  1  0.49316800  0.25677300  0.33761400  1
  C  469  1  0.45550300  0.26752800  0.35530700  1
  C  470  1  0.44925200  0.23466000  0.38499400  1
  C  475  1  0.44107900  0.19299000  0.36821200  1
  C  476  1  0.48330700  0.19296800  0.35057400  1
  C  479  1  0.49321700  0.21846400  0.31494400  1
  C  482  1  0.51772700  0.19276000  0.37907100  1
  C  485  1  0.47845500  0.26103500  0.89706500  1
  C  486  1  0.51580300  0.25232800  0.91971200  1
  C  487  1  0.46856600  0.23142900  0.86712200  1
  C  488  1  0.49991400  0.23596400  0.83766200  1
  C  491  1  0.53741900  0.22513200  0.85545700  1
  C  492  1  0.54371100  0.25816100  0.88487000  1
  C  497  1  0.55165700  0.29988800  0.86819600  1
  C  498  1  0.50937900  0.29983300  0.85062300  1
  C  501  1  0.49936700  0.27425500  0.81505400  1
  C  504  1  0.47504100  0.30007700  0.87920100  1
  C  507  1  0.01427300  0.76058100  0.09547800  1
  C  508  1  0.97690600  0.75233200  0.07276300  1
  C  509  1  0.02431100  0.73125200  0.12559500  1
  C  510  1  0.99288700  0.73575100  0.15500100  1
  C  513  1  0.95536500  0.72496200  0.13714600  1
  C  514  1  0.94921800  0.75797900  0.10773300  1
  C  519  1  0.94122900  0.79975000  0.12441900  1
  C  520  1  0.98347200  0.79955800  0.14213000  1
  C  523  1  0.99347800  0.77402400  0.17762900  1
  C  526  1  0.01769600  0.79975600  0.11333700  1
  C  529  1  0.59555600  0.97688800  0.73190100  1
  C  530  1  0.57207100  0.01374100  0.73932000  1
  C  531  1  0.62478900  0.96740300  0.76230700  1
  C  532  1  0.65403700  0.99910100  0.75879100  1
  C  535  1  0.63531600  0.03644300  0.76934400  1
  C  536  1  0.60655500  0.04241500  0.73577800  1
  C  541  1  0.62477200  0.05089600  0.69474600  1
  C  542  1  0.64301400  0.00893500  0.69489100  1
  C  545  1  0.67788500  0.99934700  0.72129500  1
  C  548  1  0.61482600  0.97430700  0.69336300  1
  C  551  1  0.39745100  0.51591000  0.23193800  1
  C  552  1  0.42093500  0.47902900  0.23936200  1
  C  553  1  0.36824100  0.52548600  0.26232600  1
  C  554  1  0.33924400  0.49363400  0.25903900  1
  C  557  1  0.35771700  0.45620500  0.26943500  1
  C  558  1  0.38646400  0.45030800  0.23584800  1
  C  563  1  0.36823500  0.44183000  0.19481700  1
  C  564  1  0.35012900  0.48379000  0.19493800  1
  C  567  1  0.31529000  0.49336900  0.22150900  1
  C  570  1  0.37815400  0.51848900  0.19341900  1
  C  573  1  0.89675400  0.47663600  0.26059400  1
  C  574  1  0.92026800  0.51344800  0.25285000  1
  C  575  1  0.86750100  0.46757000  0.22998800  1
  C  576  1  0.83848600  0.49952700  0.23362100  1
  C  579  1  0.85718300  0.53672900  0.22310900  1
  C  580  1  0.88592400  0.54242200  0.25665500  1
  C  585  1  0.86810300  0.55067300  0.29791200  1
  C  586  1  0.84978400  0.50877100  0.29768500  1
  C  589  1  0.81476000  0.49933500  0.27127500  1
  C  592  1  0.87759700  0.47391500  0.29899800  1
  C  595  1  0.09571500  0.01610900  0.76110500  1
  C  596  1  0.07215600  0.97927200  0.75381100  1
  C  597  1  0.12491900  0.02558500  0.73065200  1
  C  598  1  0.15396400  0.99358000  0.73380700  1
  C  601  1  0.13517700  0.95639000  0.72329200  1
  C  602  1  0.10670400  0.95056900  0.75699200  1
  C  607  1  0.12492600  0.94208500  0.79806200  1
  C  608  1  0.14325200  0.98401300  0.79785800  1
  C  611  1  0.17797100  0.99365000  0.77125100  1
  C  614  1  0.11509700  0.01864500  0.79956400  1
  C  617  1  0.74698000  0.08642300  0.49130500  1
  C  618  1  0.75485000  0.08232600  0.53496000  1
  C  619  1  0.76782500  0.11967700  0.47266100  1
  C  620  1  0.74861000  0.15454800  0.48999300  1
  C  623  1  0.75709700  0.15473400  0.53260800  1
  C  624  1  0.73345500  0.11987700  0.54645600  1
  C  629  1  0.68805400  0.12479400  0.54545800  1
  C  630  1  0.69107000  0.12432700  0.49940200  1
  C  633  1  0.70611700  0.16020400  0.47689000  1
  C  636  1  0.70570100  0.08774700  0.47856900  1
  C  639  1  0.24713900  0.90665000  0.00163000  1
  C  640  1  0.25503700  0.91076500  0.95795600  1
  C  641  1  0.26799600  0.87344100  0.02033100  1
  C  642  1  0.24904300  0.83866600  0.00270600  1
  C  645  1  0.25733600  0.83832900  0.96012400  1
  C  646  1  0.23369200  0.87320200  0.94635400  1
  C  651  1  0.18830900  0.86821400  0.94729500  1
  C  652  1  0.19124600  0.86883400  0.99332700  1
  C  655  1  0.20646100  0.83289800  0.01578400  1
  C  658  1  0.20585800  0.90525800  0.01435000  1
  C  661  1  0.24600200  0.40673500  0.99134500  1
  C  662  1  0.23787400  0.41063200  0.03503200  1
  C  663  1  0.22487100  0.37350600  0.97286000  1
  C  664  1  0.24390500  0.33854800  0.99033200  1
  C  667  1  0.23545700  0.33832100  0.03281400  1
  C  668  1  0.25927400  0.37301100  0.04655700  1
  C  673  1  0.30465300  0.36817700  0.04550700  1
  C  674  1  0.30165800  0.36887300  0.99946300  1
  C  677  1  0.28636000  0.33304200  0.97687100  1
  C  680  1  0.28711000  0.40536100  0.97853600  1
  C  683  1  0.74574300  0.58637600  0.50143700  1
  C  684  1  0.73796300  0.58218800  0.45776200  1
  C  685  1  0.72498600  0.61972500  0.52002900  1
  C  686  1  0.74410500  0.65457800  0.50238000  1
  C  689  1  0.73565500  0.65469400  0.45986600  1
  C  690  1  0.75927700  0.61982400  0.44631800  1
  C  695  1  0.80472100  0.62446600  0.44728100  1
  C  696  1  0.80166800  0.62413700  0.49335100  1
  C  699  1  0.78657100  0.66002600  0.51584100  1
  C  702  1  0.78698800  0.58763100  0.51422800  1
  C  705  1  0.49083100  0.25032600  0.58306100  1
  C  706  1  0.53439200  0.25847400  0.57931000  1
  C  707  1  0.47139500  0.27254800  0.61489600  1
  C  708  1  0.48814200  0.25505000  0.65096300  1
  C  711  1  0.53068100  0.26385200  0.65163500  1
  C  712  1  0.54531800  0.23868800  0.61814400  1
  C  717  1  0.54437500  0.19342300  0.62552800  1
  C  718  1  0.49854400  0.19641400  0.62370000  1
  C  721  1  0.47530000  0.21274300  0.65830600  1
  C  724  1  0.47863300  0.20901400  0.58591400  1
  C  727  1  0.00190900  0.75017900  0.40984400  1
  C  728  1  0.95832200  0.75830500  0.41357800  1
  C  729  1  0.02140000  0.77242100  0.37806100  1
  C  730  1  0.00440500  0.75515600  0.34208700  1
  C  733  1  0.96188800  0.76371300  0.34122300  1
  C  734  1  0.94734700  0.73853700  0.37472800  1
  C  739  1  0.94829300  0.69328400  0.36728600  1
  C  740  1  0.99408600  0.69626200  0.36928600  1
  C  743  1  0.01727800  0.71277900  0.33463600  1
  C  746  1  0.01413100  0.70887900  0.40694500  1
  C  749  1  0.99105100  0.74288800  0.90990300  1
  C  750  1  0.03463400  0.73446200  0.91346000  1
  C  751  1  0.97176300  0.72041900  0.87808300  1
  C  752  1  0.98865000  0.73776500  0.84194900  1
  C  755  1  0.03105300  0.72898700  0.84122500  1
  C  756  1  0.04558600  0.75428000  0.87456400  1
  C  761  1  0.04461200  0.79953200  0.86730600  1
  C  762  1  0.99879900  0.79658400  0.86936600  1
  C  765  1  0.97546200  0.78005500  0.83480700  1
  C  768  1  0.97880100  0.78403600  0.90705700  1
  C  771  1  0.50185000  0.24244100  0.08301600  1
  C  772  1  0.45826800  0.23439600  0.07918900  1
  C  773  1  0.52126000  0.22025700  0.11490500  1
  C  774  1  0.50421900  0.23760800  0.15099400  1
  C  777  1  0.46178400  0.22882500  0.15161600  1
  C  778  1  0.44742100  0.25402800  0.11815600  1
  C  783  1  0.44832300  0.29933800  0.12535100  1
  C  784  1  0.49416600  0.29630800  0.12359900  1
  C  787  1  0.51741200  0.27989900  0.15817700  1
  C  790  1  0.51410300  0.28371500  0.08584600  1
  C  793  1  0.58542800  0.49058100  0.24938400  1
  C  794  1  0.58142000  0.53410400  0.25775100  1
  C  795  1  0.61852300  0.47157500  0.27008800  1
  C  796  1  0.65346900  0.48895600  0.25108500  1
  C  799  1  0.65381000  0.53151100  0.25993600  1
  C  800  1  0.61913700  0.54566400  0.23621500  1
  C  805  1  0.62464100  0.54473300  0.19066300  1
  C  806  1  0.62352600  0.49882900  0.19359300  1
  C  809  1  0.65918500  0.47612100  0.20851000  1
  C  812  1  0.58658300  0.47836800  0.20799800  1
  C  815  1  0.40758800  0.00226300  0.74943900  1
  C  816  1  0.41159900  0.95871200  0.75779300  1
  C  817  1  0.37453900  0.02131400  0.77016500  1
  C  818  1  0.33968300  0.00368000  0.75139800  1
  C  821  1  0.33917100  0.96114600  0.75999900  1
  C  822  1  0.37387300  0.94709100  0.73627500  1
  C  827  1  0.36832200  0.94801300  0.69074400  1
  C  828  1  0.36958600  0.99389100  0.69364500  1
  C  831  1  0.33385600  0.01653800  0.70875100  1
  C  834  1  0.40638300  0.01450600  0.70806700  1
  C  837  1  0.90752900  0.99023600  0.74378400  1
  C  838  1  0.91153300  0.03379000  0.73522200  1
  C  839  1  0.87440400  0.97157400  0.72269800  1
  C  840  1  0.83939100  0.98923500  0.74144100  1
  C  843  1  0.83924000  0.03166100  0.73266600  1
  C  844  1  0.87375200  0.04553100  0.75665500  1
  C  849  1  0.86825700  0.04457200  0.80216000  1
  C  850  1  0.86934000  0.99865700  0.79924100  1
  C  853  1  0.83364000  0.97606200  0.78396400  1
  C  856  1  0.90609400  0.97786900  0.78498800  1
  C  859  1  0.08557200  0.50260100  0.24389400  1
  C  860  1  0.08127300  0.45903100  0.23579400  1
  C  861  1  0.11871200  0.52132400  0.22296800  1
  C  862  1  0.15373200  0.50356100  0.24167800  1
  C  865  1  0.15378300  0.46110000  0.23295100  1
  C  866  1  0.11919400  0.44741500  0.25690100  1
  C  871  1  0.12466500  0.44832900  0.30241700  1
  C  872  1  0.12393400  0.49428800  0.29943100  1
  C  875  1  0.15959700  0.51678400  0.28418100  1
  C  878  1  0.08713800  0.51507500  0.28519500  1
  C  881  1  0.74963400  0.58697300  0.99143500  1
  C  882  1  0.75814500  0.58327100  0.03493900  1
  C  883  1  0.76961500  0.62038300  0.97220800  1
  C  884  1  0.74989100  0.65503200  0.98938000  1
  C  887  1  0.75880800  0.65580000  0.03192800  1
  C  888  1  0.73588200  0.62067600  0.04634500  1
  C  893  1  0.69023400  0.62529800  0.04545400  1
  C  894  1  0.69309800  0.62389500  0.99956600  1
  C  897  1  0.70717600  0.65970600  0.97656500  1
  C  900  1  0.70821200  0.58710700  0.97937100  1
  C  903  1  0.24974000  0.40604200  0.50158500  1
  C  904  1  0.25822300  0.40980900  0.45805900  1
  C  905  1  0.26976300  0.37265600  0.52080300  1
  C  906  1  0.25029100  0.33810900  0.50332600  1
  C  909  1  0.25895500  0.33725000  0.46079700  1
  C  910  1  0.23599700  0.37240000  0.44654500  1
  C  915  1  0.19036700  0.36769400  0.44742700  1
  C  916  1  0.19321800  0.36919000  0.49328400  1
  C  919  1  0.20750600  0.33328900  0.51616400  1
  C  922  1  0.20832800  0.40581000  0.51369000  1
  C  925  1  0.24329500  0.90619300  0.49159600  1
  C  926  1  0.23453900  0.90964700  0.53512600  1
  C  927  1  0.22304400  0.87281500  0.47248900  1
  C  928  1  0.24261300  0.83806700  0.48975700  1
  C  931  1  0.23375100  0.83721400  0.53217400  1
  C  932  1  0.25684500  0.87216900  0.54650000  1
  C  937  1  0.30247800  0.86764600  0.54554200  1
  C  938  1  0.29960000  0.86933700  0.49967900  1
  C  941  1  0.28528500  0.83358200  0.47656400  1
  C  944  1  0.28454800  0.90606500  0.47946000  1
  C  947  1  0.74313800  0.08692400  0.00131000  1
  C  948  1  0.73473000  0.08312300  0.95778700  1
  C  949  1  0.72319600  0.12039600  0.02048900  1
  C  950  1  0.74278000  0.15506700  0.00301700  1
  C  953  1  0.73389200  0.15576500  0.96056900  1
  C  954  1  0.75685200  0.12066200  0.94645300  1
  C  959  1  0.80253600  0.12508300  0.94730000  1
  C  960  1  0.79963100  0.12378500  0.99320200  1
  C  963  1  0.78546600  0.15958400  0.01618600  1
  C  966  1  0.78452000  0.08704500  0.01344100  1
  C  969  1  0.49004500  0.74901500  0.08696800  1
  C  970  1  0.53362700  0.75705300  0.08267400  1
  C  971  1  0.47143200  0.76984800  0.12021800  1
  C  972  1  0.48884900  0.75066500  0.15506400  1
  C  975  1  0.53144100  0.75930300  0.15517400  1
  C  976  1  0.54535000  0.73565200  0.12033100  1
  C  981  1  0.54430800  0.69019600  0.12560100  1
  C  982  1  0.49832200  0.69317100  0.12493700  1
  C  985  1  0.47583900  0.70811900  0.16072700  1
  C  988  1  0.47746000  0.70770900  0.08830800  1
  C  991  1  0.00270300  0.24906000  0.90590400  1
  C  992  1  0.95909400  0.25707600  0.91017400  1
  C  993  1  0.02137300  0.26989300  0.87269300  1
  C  994  1  0.00372000  0.25091000  0.83795000  1
  C  997  1  0.96114800  0.25929600  0.83764500  1
  C  998  1  0.94732400  0.23566200  0.87252100  1
  C  1003  1  0.94837700  0.19021700  0.86723300  1
  C  1004  1  0.99433100  0.19317900  0.86808000  1
  C  1007  1  0.01676600  0.20828900  0.83222500  1
  C  1010  1  0.01532200  0.20776900  0.90456000  1
  C  1013  1  0.99024200  0.24402100  0.40601900  1
  C  1014  1  0.03385600  0.23573000  0.41009400  1
  C  1015  1  0.97178300  0.22295900  0.37276700  1
  C  1016  1  0.98932500  0.24202900  0.33786100  1
  C  1019  1  0.03178600  0.23344000  0.33768400  1
  C  1020  1  0.04558800  0.25721200  0.37239400  1
  C  1025  1  0.04448100  0.30265600  0.36728300  1
  C  1026  1  0.99851300  0.29968100  0.36819400  1
  C  1029  1  0.97594500  0.28454400  0.33242700  1
  C  1032  1  0.97758400  0.28515600  0.40471800  1
  C  1035  1  0.50264200  0.74373200  0.58692100  1
  C  1036  1  0.45904500  0.73578300  0.58255500  1
  C  1037  1  0.52123700  0.72293100  0.62020800  1
  C  1038  1  0.50354100  0.74195700  0.65508700  1
  C  1041  1  0.46105600  0.73332700  0.65516300  1
  C  1042  1  0.44739800  0.75702100  0.62036500  1
  C  1047  1  0.44839300  0.80251500  0.62545600  1
  C  1048  1  0.49439000  0.79951400  0.62485300  1
  C  1051  1  0.51689100  0.78447900  0.66060500  1
  C  1054  1  0.51527300  0.78500000  0.58824800  1
  C  1057  1  0.06531700  0.08895500  0.15948200  1
  C  1058  1  0.04892900  0.12224100  0.14257300  1
  C  1059  1  0.06269800  0.16053900  0.15024600  1
  C  1060  1  0.08944700  0.16086600  0.18248000  1
  C  1061  1  0.10558200  0.12757800  0.20123600  1
  C  1062  1  0.09736600  0.08871100  0.18694800  1
  C  1069  1  0.92772200  0.40376900  0.65959300  1
  C  1070  1  0.94393900  0.37047900  0.64249600  1
  C  1071  1  0.93012000  0.33218300  0.65010200  1
  C  1072  1  0.90342200  0.33183700  0.68237900  1
  C  1073  1  0.88740500  0.36510300  0.70125900  1
  C  1074  1  0.89567400  0.40398200  0.68706200  1
  C  1081  1  0.42721000  0.58885600  0.83336900  1
  C  1082  1  0.44355900  0.62213800  0.85032600  1
  C  1083  1  0.42983000  0.66044500  0.84263000  1
  C  1084  1  0.40308000  0.66076300  0.81039400  1
  C  1085  1  0.38695800  0.62747500  0.79161200  1
  C  1086  1  0.39523000  0.58859400  0.80582100  1
  C  1093  1  0.56547600  0.90396900  0.33333333  1
  C  1094  1  0.54913400  0.87067300  0.35026000  1
  C  1095  1  0.56286000  0.83237100  0.34255000  1
  C  1096  1  0.58962400  0.83206000  0.31033400  1
  C  1097  1  0.60581000  0.86534700  0.29161700  1
  C  1098  1  0.59756700  0.90421100  0.30589500  1
  C  1105  1  0.15960500  0.06610200  0.08776100  1
  C  1106  1  0.14263600  0.04952800  0.12090000  1
  C  1107  1  0.15043000  0.06293300  0.15928500  1
  C  1108  1  0.18265400  0.08968500  0.15980600  1
  C  1109  1  0.20145300  0.10604000  0.12665100  1
  C  1110  1  0.18728000  0.09796500  0.08771100  1
  C  1117  1  0.65991600  0.92700000  0.40501800  1
  C  1118  1  0.64283700  0.94348800  0.37189100  1
  C  1119  1  0.65062000  0.93011400  0.33349000  1
  C  1120  1  0.68288200  0.90341600  0.33293100  1
  C  1121  1  0.70171900  0.88706800  0.36606400  1
  C  1122  1  0.68758000  0.89512700  0.40501200  1
  C  1129  1  0.83331700  0.42675300  0.58792500  1
  C  1130  1  0.85039600  0.44322100  0.62106100  1
  C  1131  1  0.84258400  0.42983000  0.65944700  1
  C  1132  1  0.81031200  0.40313500  0.65996800  1
  C  1133  1  0.79141700  0.38687700  0.62681800  1
  C  1134  1  0.80549000  0.39502000  0.58785800  1
  C  1141  1  0.33311700  0.56594500  0.90496400  1
  C  1142  1  0.35010600  0.54940200  0.87182600  1
  C  1143  1  0.34219500  0.56270200  0.83343000  1
  C  1144  1  0.30993800  0.58939700  0.83290600  1
  C  1145  1  0.29121200  0.60583900  0.86606300  1
  C  1146  1  0.30541800  0.59778800  0.90499300  1
  C  1153  1  0.08868100  0.16017800  0.06527900  1
  C  1154  1  0.12174200  0.14342600  0.04838000  1
  C  1155  1  0.16016300  0.15111100  0.06176000  1
  C  1156  1  0.16081200  0.18335000  0.08847900  1
  C  1157  1  0.12770300  0.20202600  0.10508700  1
  C  1158  1  0.08874200  0.18782600  0.09716400  1
  C  1165  1  0.40390600  0.66021800  0.92769200  1
  C  1166  1  0.37084000  0.64334900  0.94448900  1
  C  1167  1  0.33241900  0.65094600  0.93105400  1
  C  1168  1  0.33174900  0.68316500  0.90431000  1
  C  1169  1  0.36484200  0.70190000  0.88774600  1
  C  1170  1  0.40381000  0.68778100  0.89573500  1
  C  1177  1  0.58895500  0.83288300  0.42743700  1
  C  1178  1  0.62201500  0.84966500  0.44429800  1
  C  1179  1  0.66044300  0.84195200  0.43094200  1
  C  1180  1  0.66107700  0.80972400  0.40420900  1
  C  1181  1  0.62796700  0.79103300  0.38761900  1
  C  1182  1  0.58899600  0.80515500  0.39562000  1
  C  1189  1  0.90394000  0.33274200  0.56514400  1
  C  1190  1  0.87086500  0.34960200  0.54837100  1
  C  1191  1  0.83245200  0.34187500  0.56173600  1
  C  1192  1  0.83181200  0.30961500  0.58842500  1
  C  1193  1  0.86491900  0.29090900  0.60499500  1
  C  1194  1  0.90388200  0.30506900  0.59701400  1
  C  1201  1  0.07209600  0.58431300  0.65197900  1
  C  1202  1  0.05331000  0.61740500  0.63753400  1
  C  1203  1  0.06313500  0.65578000  0.64967700  1
  C  1204  1  0.08720200  0.65539300  0.68394200  1
  C  1205  1  0.10552500  0.62213800  0.70059300  1
  C  1206  1  0.09994200  0.58390800  0.68347300  1
  C  1213  1  0.92093700  0.90835800  0.15204800  1
  C  1214  1  0.93961100  0.87525700  0.13746500  1
  C  1215  1  0.92973000  0.83687100  0.14952600  1
  C  1216  1  0.90570700  0.83723400  0.18382200  1
  C  1217  1  0.88752500  0.87048700  0.20062500  1
  C  1218  1  0.89315700  0.90875100  0.18361300  1
  C  1225  1  0.42061800  0.08429400  0.34098100  1
  C  1226  1  0.43929200  0.11741600  0.35549300  1
  C  1227  1  0.42949500  0.15577800  0.34328400  1
  C  1228  1  0.40548700  0.15533400  0.30898000  1
  C  1229  1  0.38727000  0.12204500  0.29227700  1
  C  1230  1  0.39291300  0.08379900  0.30935000  1
  C  1237  1  0.57210900  0.40853400  0.84094200  1
  C  1238  1  0.55336900  0.37541800  0.85539900  1
  C  1239  1  0.56317100  0.33705800  0.84319200  1
  C  1240  1  0.58722000  0.33750000  0.80891800  1
  C  1241  1  0.60547800  0.37077900  0.79224400  1
  C  1242  1  0.59990100  0.40899400  0.80939000  1
  C  1249  1  0.16836700  0.56306000  0.58745600  1
  C  1250  1  0.15215300  0.54504200  0.62012300  1
  C  1251  1  0.15311000  0.56206500  0.65796300  1
  C  1252  1  0.18025500  0.59446200  0.65922900  1
  C  1253  1  0.20120800  0.60994800  0.62712300  1
  C  1254  1  0.19078700  0.59869400  0.58788700  1
  C  1261  1  0.66851900  0.43006600  0.90532500  1
  C  1262  1  0.65212400  0.44797100  0.87267500  1
  C  1263  1  0.65306200  0.43092700  0.83485100  1
  C  1264  1  0.68022200  0.39853900  0.83356400  1
  C  1265  1  0.70129700  0.38315400  0.86562000  1
  C  1266  1  0.69094700  0.39443500  0.90485700  1
  C  1273  1  0.82445700  0.92989900  0.08769700  1
  C  1274  1  0.84085200  0.94776600  0.12035800  1
  C  1275  1  0.83995000  0.93066400  0.15815700  1
  C  1276  1  0.81278300  0.89828200  0.15941100  1
  C  1277  1  0.79170600  0.88292000  0.12733000  1
  C  1278  1  0.80196500  0.89430900  0.08809300  1
  C  1285  1  0.32445000  0.06266000  0.40529400  1
  C  1286  1  0.34077500  0.04472500  0.37262700  1
  C  1287  1  0.33977100  0.06175400  0.33480200  1
  C  1288  1  0.31259000  0.09411300  0.33353300  1
  C  1289  1  0.29159600  0.10955600  0.36561900  1
  C  1290  1  0.30202200  0.09829400  0.40484600  1
  C  1297  1  0.08989200  0.66034600  0.56497600  1
  C  1298  1  0.12315600  0.64366900  0.54846700  1
  C  1299  1  0.16154300  0.65124800  0.56213500  1
  C  1300  1  0.16171900  0.68327500  0.58914400  1
  C  1301  1  0.12838600  0.70024100  0.60718100  1
  C  1302  1  0.08956200  0.68613600  0.59835600  1
  C  1309  1  0.40274500  0.16044300  0.42805200  1
  C  1310  1  0.36949500  0.14353500  0.44438500  1
  C  1311  1  0.33110000  0.15095200  0.43064200  1
  C  1312  1  0.33087000  0.18296900  0.40361500  1
  C  1313  1  0.36417200  0.20009600  0.38569200  1
  C  1314  1  0.40302400  0.18615600  0.39461000  1
  C  1321  1  0.59011100  0.33264900  0.92782300  1
  C  1322  1  0.62336900  0.34939800  0.94427100  1
  C  1323  1  0.66175500  0.34182800  0.93060300  1
  C  1324  1  0.66193600  0.30980700  0.90357900  1
  C  1325  1  0.62860500  0.29280100  0.88557500  1
  C  1326  1  0.58976400  0.30678300  0.89449800  1
  C  1333  1  0.90275800  0.83264700  0.06486100  1
  C  1334  1  0.86948000  0.84949000  0.04853700  1
  C  1335  1  0.83109900  0.84178600  0.06213400  1
  C  1336  1  0.83094200  0.80966300  0.08902100  1
  C  1337  1  0.86427600  0.79264600  0.10699700  1
  C  1338  1  0.90309600  0.80674400  0.09816000  1
  C  1345  1  0.56192200  0.08864100  0.66801600  1
  C  1346  1  0.54351100  0.12136500  0.65234600  1
  C  1347  1  0.56033900  0.15927400  0.65331500  1
  C  1348  1  0.59273600  0.16039000  0.68044300  1
  C  1349  1  0.60997800  0.12803400  0.69956200  1
  C  1350  1  0.59836800  0.08889900  0.68912800  1
  C  1357  1  0.43101400  0.40406000  0.16811300  1
  C  1358  1  0.44927500  0.37134900  0.15224900  1
  C  1359  1  0.43240300  0.33345800  0.15318900  1
  C  1360  1  0.40002900  0.33233100  0.18034600  1
  C  1361  1  0.38289200  0.36466700  0.19957600  1
  C  1362  1  0.39456300  0.40379300  0.18921600  1
  C  1369  1  0.93084400  0.58855900  0.32455200  1
  C  1370  1  0.94919500  0.62125900  0.34035600  1
  C  1371  1  0.93234600  0.65915300  0.33946800  1
  C  1372  1  0.89993500  0.66028000  0.31236200  1
  C  1373  1  0.88265000  0.62792900  0.29326400  1
  C  1374  1  0.89437600  0.58877200  0.30349700  1
  C  1381  1  0.06212500  0.90431200  0.82481000  1
  C  1382  1  0.04375500  0.87159300  0.84053800  1
  C  1383  1  0.06052800  0.83366600  0.83949000  1
  C  1384  1  0.09288100  0.83254000  0.81232100  1
  C  1385  1  0.11016900  0.86490400  0.79325100  1
  C  1386  1  0.09857900  0.90403900  0.80370600  1
  C  1393  1  0.65069800  0.07066800  0.58534600  1
  C  1394  1  0.63647500  0.05257200  0.61882500  1
  C  1395  1  0.64888200  0.06284000  0.65703100  1
  C  1396  1  0.68256800  0.08772900  0.65596900  1
  C  1397  1  0.69754000  0.10704200  0.62239400  1
  C  1398  1  0.68083000  0.09998100  0.58422800  1
  C  1405  1  0.15094400  0.92230200  0.90742100  1
  C  1406  1  0.13669800  0.94038800  0.87395300  1
  C  1407  1  0.14910400  0.93015200  0.83573500  1
  C  1408  1  0.18279800  0.90527300  0.83677700  1
  C  1409  1  0.19780200  0.88598500  0.87035000  1
  C  1410  1  0.18112900  0.89304000  0.90852700  1
  C  1417  1  0.34210800  0.42215800  0.08544900  1
  C  1418  1  0.35642700  0.44015600  0.11893600  1
  C  1419  1  0.34403400  0.42990000  0.15714600  1
  C  1420  1  0.31032500  0.40504100  0.15609200  1
  C  1421  1  0.29526900  0.38580600  0.12250500  1
  C  1422  1  0.31188500  0.39293400  0.08431100  1
  C  1429  1  0.84224600  0.57041800  0.40735500  1
  C  1430  1  0.85657500  0.55242800  0.37383500  1
  C  1431  1  0.84398400  0.56253400  0.33565200  1
  C  1432  1  0.81021300  0.58730200  0.33678700  1
  C  1433  1  0.79524200  0.60662200  0.37035100  1
  C  1434  1  0.81200300  0.59964200  0.40850200  1
  C  1441  1  0.58167600  0.15509500  0.57083100  1
  C  1442  1  0.61386900  0.14338700  0.54896800  1
  C  1443  1  0.65272400  0.15105200  0.56140700  1
  C  1444  1  0.65348100  0.18082600  0.59145800  1
  C  1445  1  0.62077500  0.20009200  0.60773600  1
  C  1446  1  0.58211200  0.18493200  0.60028900  1
  C  1453  1  0.91102100  0.65494200  0.42194800  1
  C  1454  1  0.87883400  0.64319800  0.44380600  1
  C  1455  1  0.83998200  0.65079400  0.43132600  1
  C  1456  1  0.83919000  0.68053900  0.40124000  1
  C  1457  1  0.87187800  0.69988800  0.38503500  1
  C  1458  1  0.91056100  0.68481800  0.39252900  1
  C  1465  1  0.08193300  0.83784300  0.92196200  1
  C  1466  1  0.11413100  0.84959800  0.94379300  1
  C  1467  1  0.15298700  0.84194900  0.93135400  1
  C  1468  1  0.15375200  0.81219500  0.90128300  1
  C  1469  1  0.12105100  0.79290800  0.88501600  1
  C  1470  1  0.08236800  0.80798100  0.89252500  1
  C  1477  1  0.41101100  0.33773600  0.07072700  1
  C  1478  1  0.37880900  0.34951200  0.04890900  1
  C  1479  1  0.33995400  0.34183100  0.06133800  1
  C  1480  1  0.33919400  0.31205400  0.09137800  1
  C  1481  1  0.37189400  0.29274000  0.10761100  1
  C  1482  1  0.41056200  0.30786000  0.10014600  1
  C  1489  1  0.56905300  0.58319200  0.15461000  1
  C  1490  1  0.54755000  0.61569400  0.14324800  1
  C  1491  1  0.56017900  0.65436500  0.15133200  1
  C  1492  1  0.59057600  0.65446100  0.18079700  1
  C  1493  1  0.60827200  0.62144200  0.19825400  1
  C  1494  1  0.59961300  0.58295900  0.18340700  1
  C  1501  1  0.42385200  0.90951900  0.65466200  1
  C  1502  1  0.44525800  0.87699200  0.64319200  1
  C  1503  1  0.43257700  0.83832900  0.65124000  1
  C  1504  1  0.40218300  0.83824400  0.68070500  1
  C  1505  1  0.38459500  0.87127000  0.69825600  1
  C  1506  1  0.39332900  0.90976700  0.68351100  1
  C  1513  1  0.92371400  0.08319500  0.83827900  1
  C  1514  1  0.94519900  0.11570700  0.84963600  1
  C  1515  1  0.93256700  0.15436300  0.84149800  1
  C  1516  1  0.90218800  0.15440800  0.81201500  1
  C  1517  1  0.88453000  0.12135400  0.79457200  1
  C  1518  1  0.89322600  0.08286900  0.80939300  1
  C  1525  1  0.06905800  0.40968600  0.33832700  1
  C  1526  1  0.04758900  0.37715300  0.34966000  1
  C  1527  1  0.06023200  0.33849900  0.34151700  1
  C  1528  1  0.09063900  0.33846700  0.31207400  1
  C  1529  1  0.10835500  0.37153300  0.29471300  1
  C  1530  1  0.09970500  0.40999800  0.30962400  1
  C  1537  1  0.65453400  0.56929500  0.08364900  1
  C  1538  1  0.64293300  0.54788200  0.11615400  1
  C  1539  1  0.65062300  0.56058700  0.15491400  1
  C  1540  1  0.68003900  0.59102200  0.15512500  1
  C  1541  1  0.69769400  0.60873200  0.12218400  1
  C  1542  1  0.68310400  0.60007300  0.08359800  1
  C  1549  1  0.15458000  0.42366000  0.40930200  1
  C  1550  1  0.14296900  0.44512400  0.37684100  1
  C  1551  1  0.15069400  0.43247300  0.33808800  1
  C  1552  1  0.18012100  0.40204000  0.33781500  1
  C  1553  1  0.19780500  0.38432400  0.37072400  1
  C  1554  1  0.18325200  0.39296000  0.40932000  1
  C  1561  1  0.33831000  0.92352500  0.58373400  1
  C  1562  1  0.35002700  0.94487000  0.61624100  1
  C  1563  1  0.34231400  0.93220100  0.65500600  1
  C  1564  1  0.31286300  0.90180100  0.65523600  1
  C  1565  1  0.29515000  0.88412800  0.62230900  1
  C  1566  1  0.30963500  0.89283300  0.58369600  1
  C  1573  1  0.83831400  0.06911200  0.90912900  1
  C  1574  1  0.84995600  0.04769800  0.87663400  1
  C  1575  1  0.84220300  0.06033400  0.83786900  1
  C  1576  1  0.81278600  0.09076700  0.83764200  1
  C  1577  1  0.79510800  0.10847700  0.87056800  1
  C  1578  1  0.80969000  0.09985000  0.90915500  1
  C  1585  1  0.58307000  0.65482800  0.06968100  1
  C  1586  1  0.61570200  0.64324200  0.04850400  1
  C  1587  1  0.65436800  0.65100700  0.06142800  1
  C  1588  1  0.65438300  0.68034700  0.09194500  1
  C  1589  1  0.62127000  0.69784200  0.10951500  1
  C  1590  1  0.58273500  0.68317600  0.10064100  1
  C  1597  1  0.90964700  0.15482100  0.92312900  1
  C  1598  1  0.87701500  0.14313600  0.94425600  1
  C  1599  1  0.83834900  0.15085400  0.93132200  1
  C  1600  1  0.83829700  0.18017800  0.90078500  1
  C  1601  1  0.87139200  0.19774400  0.88325800  1
  C  1602  1  0.90995300  0.18320100  0.89219300  1
  C  1609  1  0.08323200  0.33807700  0.42315000  1
  C  1610  1  0.11585200  0.34971300  0.44432400  1
  C  1611  1  0.15452700  0.34196500  0.43143400  1
  C  1612  1  0.15457400  0.31265100  0.40089100  1
  C  1613  1  0.12148100  0.29512700  0.38330900  1
  C  1614  1  0.08291500  0.30967600  0.39223200  1
  C  1621  1  0.40962200  0.83794700  0.56960000  1
  C  1622  1  0.37697800  0.84962100  0.54848800  1
  C  1623  1  0.33831200  0.84184500  0.56139900  1
  C  1624  1  0.33828900  0.81248900  0.59189200  1
  C  1625  1  0.37140200  0.79493600  0.60941600  1
  C  1626  1  0.40994200  0.80956700  0.60053000  1
  C  1633  1  0.23127000  0.95332500  0.24638000  1
  C  1634  1  0.26923900  0.94720100  0.26005400  1
  C  1635  1  0.28991400  0.97775000  0.27831800  1
  C  1636  1  0.26688800  0.00990800  0.28971900  1
  C  1637  1  0.23440900  0.02084300  0.26730500  1
  C  1638  1  0.21397500  0.99142000  0.24548500  1
  C  1645  1  0.76205900  0.53934300  0.74695700  1
  C  1646  1  0.72401900  0.54545500  0.76047300  1
  C  1647  1  0.70323300  0.51491500  0.77862000  1
  C  1648  1  0.72612400  0.48258000  0.78975800  1
  C  1649  1  0.75872700  0.47172300  0.76753100  1
  C  1650  1  0.77923100  0.50118900  0.74584500  1
  C  1657  1  0.26164500  0.45318900  0.74573700  1
  C  1658  1  0.22368200  0.44710900  0.73202900  1
  C  1659  1  0.20301000  0.47773100  0.71389700  1
  C  1660  1  0.22603900  0.50990300  0.70256000  1
  C  1661  1  0.25851800  0.52076800  0.72502000  1
  C  1662  1  0.27891200  0.49129900  0.74682300  1
  C  1669  1  0.73142600  0.03950500  0.24605100  1
  C  1670  1  0.76950100  0.04543700  0.23255900  1
  C  1671  1  0.79013700  0.01482400  0.21436000  1
  C  1672  1  0.76707400  0.98264500  0.20310600  1
  C  1673  1  0.73439500  0.97192900  0.22529500  1
  C  1674  1  0.71403600  0.00145100  0.24704400  1
  C  1681  1  0.25066500  0.23043800  0.95286200  1
  C  1682  1  0.26499300  0.26818100  0.94682600  1
  C  1683  1  0.28275900  0.28883700  0.97769500  1
  C  1684  1  0.29338000  0.26584900  0.01015700  1
  C  1685  1  0.27055100  0.23347000  0.02069300  1
  C  1686  1  0.24877400  0.21334800  0.99100400  1
  C  1693  1  0.75129900  0.76284800  0.53978200  1
  C  1694  1  0.76544100  0.72502000  0.54579200  1
  C  1695  1  0.78308200  0.70424000  0.51493300  1
  C  1696  1  0.79343400  0.72709600  0.48229400  1
  C  1697  1  0.77081400  0.75962300  0.47185200  1
  C  1698  1  0.74919500  0.77982800  0.50159400  1
  C  1705  1  0.74154900  0.26290500  0.45289000  1
  C  1706  1  0.72727300  0.22514000  0.44687100  1
  C  1707  1  0.70969400  0.20440000  0.47778600  1
  C  1708  1  0.69925700  0.22729400  0.51036600  1
  C  1709  1  0.72204600  0.25973200  0.52081500  1
  C  1710  1  0.74364200  0.27994200  0.49104900  1
  C  1717  1  0.24175900  0.73010800  0.03991500  1
  C  1718  1  0.22769400  0.76798200  0.04580900  1
  C  1719  1  0.21006500  0.78869600  0.01490100  1
  C  1720  1  0.19967300  0.76577000  0.98232800  1
  C  1721  1  0.22222500  0.73317300  0.97198700  1
  C  1722  1  0.24377700  0.71299100  0.00178900  1
  C  1729  1  0.95300800  0.24972500  0.22948400  1
  C  1730  1  0.94652300  0.26369400  0.26726200  1
  C  1731  1  0.97713300  0.28147200  0.28826600  1
  C  1732  1  0.00961000  0.29267900  0.26559700  1
  C  1733  1  0.02077400  0.26980100  0.23350500  1
  C  1734  1  0.99138300  0.24809600  0.21289600  1
  C  1741  1  0.53963700  0.74986400  0.76370700  1
  C  1742  1  0.54614200  0.76369500  0.72586700  1
  C  1743  1  0.51558700  0.78143400  0.70475800  1
  C  1744  1  0.48292900  0.79237800  0.72729100  1
  C  1745  1  0.47179000  0.76963800  0.75945200  1
  C  1746  1  0.50120100  0.74805400  0.78014800  1
  C  1753  1  0.45300300  0.74285000  0.26372900  1
  C  1754  1  0.44650100  0.72887700  0.22595500  1
  C  1755  1  0.47712800  0.71123300  0.20487300  1
  C  1756  1  0.50974000  0.70023500  0.22743900  1
  C  1757  1  0.52086100  0.72315500  0.25951600  1
  C  1758  1  0.49141300  0.74468700  0.28022500  1
  C  1765  1  0.03977100  0.24285500  0.72912400  1
  C  1766  1  0.04613700  0.22912000  0.76702200  1
  C  1767  1  0.01552300  0.21140500  0.78806700  1
  C  1768  1  0.98293900  0.20041900  0.76545300  1
  C  1769  1  0.97192600  0.22306900  0.73318400  1
  C  1770  1  0.00140500  0.24458600  0.71251700  1
  C  1777  1  0.71129500  0.47659000  0.48133700  1
  C  1778  1  0.70687600  0.51515400  0.46876100  1
  C  1779  1  0.73991300  0.53803000  0.46001500  1
  C  1780  1  0.77514200  0.51728400  0.45622800  1
  C  1781  1  0.78168200  0.48213100  0.47617400  1
  C  1782  1  0.74879000  0.46027100  0.49027800  1
  C  1789  1  0.28141800  0.01657800  0.98117800  1
  C  1790  1  0.28592200  0.97793600  0.96882900  1
  C  1791  1  0.25296800  0.95493200  0.96010100  1
  C  1792  1  0.21768100  0.97559000  0.95638100  1
  C  1793  1  0.21103300  0.01084800  0.97604100  1
  C  1794  1  0.24387100  0.03279600  0.99009600  1
  C  1801  1  0.21137900  0.51626800  0.01147200  1
  C  1802  1  0.20688000  0.47773700  0.02410300  1
  C  1803  1  0.23987300  0.45481100  0.03289800  1
  C  1804  1  0.27512500  0.47552500  0.03672500  1
  C  1805  1  0.28175700  0.51062800  0.01671300  1
  C  1806  1  0.24891200  0.53250900  0.00254900  1
  C  1813  1  0.78151600  0.97659700  0.51166700  1
  C  1814  1  0.78591700  0.01524400  0.52403700  1
  C  1815  1  0.75289700  0.03815500  0.53278300  1
  C  1816  1  0.71767100  0.01739300  0.53651100  1
  C  1817  1  0.71112300  0.98213600  0.51681300  1
  C  1818  1  0.74401700  0.96027200  0.50274300  1
  C  1825  1  0.97523200  0.51086400  0.78289300  1
  C  1826  1  0.01352200  0.52401300  0.78801500  1
  C  1827  1  0.03666000  0.53369900  0.75539400  1
  C  1828  1  0.01614000  0.53810900  0.72005800  1
  C  1829  1  0.98180400  0.51698400  0.71269700  1
  C  1830  1  0.95961200  0.50215600  0.74504800  1
  C  1837  1  0.51814000  0.01150100  0.21044500  1
  C  1838  1  0.47973000  0.02429800  0.20527600  1
  C  1839  1  0.45633900  0.03351100  0.23785100  1
  C  1840  1  0.47664200  0.03759900  0.27335700  1
  C  1841  1  0.51121300  0.01691400  0.28068200  1
  C  1842  1  0.53358000  0.00246500  0.24828800  1
  C  1849  1  0.01795600  0.98186500  0.28284100  1
  C  1850  1  0.97968800  0.96869000  0.28803900  1
  C  1851  1  0.95648900  0.95901500  0.25546100  1
  C  1852  1  0.97692300  0.95463800  0.22007300  1
  C  1853  1  0.01123300  0.97577700  0.21265000  1
  C  1854  1  0.03348500  0.99060000  0.24496400  1
  C  1861  1  0.47478200  0.48130800  0.71033400  1
  C  1862  1  0.51323000  0.46857700  0.70527300  1
  C  1863  1  0.53656000  0.45940600  0.73790500  1
  C  1864  1  0.51619600  0.45538100  0.77337200  1
  C  1865  1  0.48155200  0.47597900  0.78058500  1
  C  1866  1  0.45922900  0.49036800  0.74813000  1
  C  1873  1  0.00813800  0.20872200  0.51552000  1
  C  1874  1  0.02113000  0.20414500  0.47703800  1
  C  1875  1  0.03101600  0.23703100  0.45437700  1
  C  1876  1  0.03497900  0.27199100  0.47546300  1
  C  1877  1  0.01466100  0.27897700  0.51023800  1
  C  1878  1  0.00006100  0.24635200  0.53206400  1
  C  1885  1  0.50823300  0.78402200  0.97709200  1
  C  1886  1  0.52096300  0.78856500  0.01568000  1
  C  1887  1  0.53075100  0.75569400  0.03840500  1
  C  1888  1  0.53459000  0.72070700  0.01735100  1
  C  1889  1  0.51463300  0.71375400  0.98239800  1
  C  1890  1  0.50015000  0.74639500  0.96052900  1
  C  1897  1  0.48465800  0.70878900  0.47707600  1
  C  1898  1  0.47175800  0.70424000  0.51559300  1
  C  1899  1  0.46200500  0.73714000  0.53829200  1
  C  1900  1  0.45814300  0.77212700  0.51724400  1
  C  1901  1  0.47830700  0.77905100  0.48237300  1
  C  1902  1  0.49279000  0.74639800  0.46050400  1
  C  1909  1  0.98433600  0.28404500  0.01578700  1
  C  1910  1  0.97164400  0.28858100  0.97718800  1
  C  1911  1  0.96191400  0.25570400  0.95444300  1
  C  1912  1  0.95811300  0.22070000  0.97547700  1
  C  1913  1  0.97800600  0.21376900  0.01047100  1
  C  1914  1  0.99244200  0.24642700  0.03234900  1
  C  1921  1  0.25223300  0.73034400  0.45243900  1
  C  1922  1  0.26571800  0.76836600  0.44641100  1
  C  1923  1  0.28301900  0.78931900  0.47731400  1
  C  1924  1  0.29465800  0.76635800  0.50947000  1
  C  1925  1  0.27261500  0.73349300  0.52015100  1
  C  1926  1  0.25068200  0.71333800  0.49063300  1
  C  1933  1  0.75284800  0.26304400  0.04020800  1
  C  1934  1  0.76611900  0.22492800  0.04620000  1
  C  1935  1  0.78326800  0.20384300  0.01530300  1
  C  1936  1  0.79459600  0.22664900  0.98293300  1
  C  1937  1  0.77277300  0.25966700  0.97236000  1
  C  1938  1  0.75104300  0.27991900  0.00196000  1
  C  1945  1  0.73994300  0.76306100  0.95251000  1
  C  1946  1  0.72651600  0.72501500  0.94648500  1
  C  1947  1  0.70943200  0.70395700  0.97743300  1
  C  1948  1  0.69800800  0.72679900  0.00974200  1
  C  1949  1  0.72000900  0.75971900  0.02034300  1
  C  1950  1  0.74173000  0.77998200  0.99073700  1
  C  1957  1  0.24020400  0.22984800  0.54026500  1
  C  1958  1  0.22698200  0.26798900  0.54618000  1
  C  1959  1  0.20983000  0.28903300  0.51525900  1
  C  1960  1  0.19848400  0.26618200  0.48292600  1
  C  1961  1  0.22023600  0.23309800  0.47243100  1
  C  1962  1  0.24193000  0.21286600  0.50206200  1
  C  1969  1  0.95332500  0.74219800  0.73266900  1
  C  1970  1  0.94664300  0.75649700  0.77030800  1
  C  1971  1  0.97673100  0.77572400  0.79077400  1
  C  1972  1  0.00872300  0.78743300  0.76769400  1
  C  1973  1  0.02052700  0.76409100  0.73621400  1
  C  1974  1  0.99159200  0.74167100  0.71573900  1
  C  1981  1  0.53934000  0.24235000  0.26051900  1
  C  1982  1  0.54604600  0.25646700  0.22280500  1
  C  1983  1  0.51601200  0.27563200  0.20220600  1
  C  1984  1  0.48381700  0.28708900  0.22512100  1
  C  1985  1  0.47205200  0.26394600  0.25672600  1
  C  1986  1  0.50100900  0.24167400  0.27731300  1
  C  1993  1  0.45327400  0.25036500  0.76056000  1
  C  1994  1  0.44657400  0.23613800  0.72289600  1
  C  1995  1  0.47668300  0.21706500  0.70232400  1
  C  1996  1  0.50880300  0.20550700  0.72529100  1
  C  1997  1  0.52056700  0.22882900  0.75679700  1
  C  1998  1  0.49158200  0.25105800  0.77740300  1
  C  2005  1  0.03945200  0.75035000  0.23232300  1
  C  2006  1  0.04601700  0.73630700  0.27008800  1
  C  2007  1  0.01593100  0.71714500  0.29060900  1
  C  2008  1  0.98381000  0.70565100  0.26760700  1
  C  2009  1  0.97217300  0.72872300  0.23590300  1
  C  2010  1  0.00119300  0.75095600  0.21536400  1
  C  2017  1  0.70756600  0.97775900  0.98510800  1
  C  2018  1  0.70268000  0.01638600  0.97240300  1
  C  2019  1  0.73514900  0.03872600  0.96045600  1
  C  2020  1  0.76937600  0.01711000  0.95420400  1
  C  2021  1  0.77729300  0.98216800  0.97386200  1
  C  2022  1  0.74545800  0.96074400  0.99078300  1
  C  2029  1  0.28511200  0.51541000  0.48493700  1
  C  2030  1  0.29006600  0.47669500  0.47248900  1
  C  2031  1  0.25767300  0.45420500  0.46061100  1
  C  2032  1  0.22335600  0.47570200  0.45444700  1
  C  2033  1  0.21537400  0.51078800  0.47375800  1
  C  2034  1  0.24717100  0.53232300  0.49058900  1
  C  2041  1  0.20759500  0.01499800  0.50761600  1
  C  2042  1  0.20257400  0.97641400  0.52039800  1
  C  2043  1  0.23494700  0.95406700  0.53260500  1
  C  2044  1  0.26912900  0.97569500  0.53910400  1
  C  2045  1  0.27725300  0.01050100  0.51928100  1
  C  2046  1  0.24555300  0.03190800  0.50208900  1
  C  2053  1  0.78524700  0.47779800  0.00780700  1
  C  2054  1  0.79014000  0.51649300  0.02033600  1
  C  2055  1  0.75772000  0.53886600  0.03236700  1
  C  2056  1  0.72350100  0.51724100  0.03865600  1
  C  2057  1  0.71553500  0.48223000  0.01919500  1
  C  2058  1  0.74733200  0.46079500  0.00223200  1
  C  2065  1  0.00903900  0.70990000  0.01948500  1
  C  2066  1  0.02210500  0.70442300  0.98116100  1
  C  2067  1  0.03215500  0.73677000  0.95777200  1
  C  2068  1  0.03649300  0.77211800  0.97820700  1
  C  2069  1  0.01571400  0.77998500  0.01254400  1
  C  2070  1  0.00086800  0.74792600  0.03504300  1
  C  2077  1  0.50903900  0.28299300  0.47315000  1
  C  2078  1  0.52186500  0.28845300  0.51157100  1
  C  2079  1  0.53188600  0.25613200  0.53501200  1
  C  2080  1  0.53613000  0.22076200  0.51461000  1
  C  2081  1  0.51570400  0.21290200  0.48010600  1
  C  2082  1  0.50091000  0.24496200  0.45757300  1
  C  2089  1  0.48380800  0.20985600  0.97312800  1
  C  2090  1  0.47082400  0.20439100  0.01148300  1
  C  2091  1  0.46085900  0.23674000  0.03489800  1
  C  2092  1  0.45658300  0.27211000  0.01450400  1
  C  2093  1  0.47721800  0.27994100  0.98007800  1
  C  2094  1  0.49197800  0.24787000  0.95753100  1
  C  2101  1  0.98346900  0.78280200  0.51978700  1
  C  2102  1  0.97069500  0.78825700  0.48134800  1
  C  2103  1  0.96077600  0.75593000  0.45787200  1
  C  2104  1  0.95660200  0.72053000  0.47824000  1
  C  2105  1  0.97695800  0.71270000  0.51279600  1
  C  2106  1  0.99166200  0.74478300  0.53535000  1
  C  2113  1  0.73119700  0.95342400  0.74757700  1
  C  2114  1  0.76866000  0.94679700  0.76229800  1
  C  2115  1  0.78948200  0.97735700  0.78037200  1
  C  2116  1  0.76673900  0.00997100  0.79110600  1
  C  2117  1  0.73490400  0.02117600  0.76786900  1
  C  2118  1  0.71470600  0.99182200  0.74575200  1
  C  2125  1  0.26215400  0.53932000  0.24804300  1
  C  2126  1  0.22462300  0.54592900  0.26260700  1
  C  2127  1  0.20373200  0.51539500  0.28064000  1
  C  2128  1  0.22634900  0.48263200  0.29115100  1
  C  2129  1  0.25826300  0.47147900  0.26805000  1
  C  2130  1  0.27851600  0.50086900  0.24603900  1
  C  2137  1  0.76160500  0.45338400  0.24471400  1
  C  2138  1  0.72417400  0.44673700  0.22993200  1
  C  2139  1  0.70334300  0.47733200  0.21193500  1
  C  2140  1  0.72606500  0.50997900  0.20127600  1
  C  2141  1  0.75772000  0.52122200  0.22473500  1
  C  2142  1  0.77798600  0.49182900  0.24673800  1
  C  2149  1  0.23133000  0.03948200  0.74483500  1
  C  2150  1  0.26890000  0.04595100  0.73028800  1
  C  2151  1  0.28968100  0.01536000  0.71222300  1
  C  2152  1  0.26688100  0.98276500  0.70156200  1
  C  2153  1  0.23488100  0.97170800  0.72460400  1
  C  2154  1  0.21477000  0.00111000  0.74673000  1
  C  2161  1  0.47546900  0.50827900  0.28369000  1
  C  2162  1  0.51417000  0.52053200  0.28887300  1
  C  2163  1  0.53710200  0.53156600  0.25651600  1
  C  2164  1  0.51618400  0.53725600  0.22177500  1
  C  2165  1  0.48085100  0.51840200  0.21381200  1
  C  2166  1  0.45885900  0.50229800  0.24568000  1
  C  2173  1  0.01789000  0.00907600  0.70959500  1
  C  2174  1  0.97905700  0.02093500  0.70439400  1
  C  2175  1  0.95584000  0.03132900  0.73675800  1
  C  2176  1  0.97651300  0.03662200  0.77171100  1
  C  2177  1  0.01211900  0.01831300  0.77958000  1
  C  2178  1  0.03430200  0.00267000  0.74762000  1
  C  2185  1  0.51761000  0.98437700  0.78364600  1
  C  2186  1  0.47890400  0.97215300  0.78885300  1
  C  2187  1  0.45591400  0.96121500  0.75650300  1
  C  2188  1  0.47677000  0.95558700  0.72171700  1
  C  2189  1  0.51213000  0.97439100  0.71375700  1
  C  2190  1  0.53416800  0.99043100  0.74563000  1
  C  2197  1  0.97497300  0.48316200  0.20952500  1
  C  2198  1  0.01383200  0.47126100  0.20470600  1
  C  2199  1  0.03699500  0.46163900  0.23733800  1
  C  2200  1  0.01627700  0.45710100  0.27237300  1
  C  2201  1  0.98047400  0.47526600  0.27967800  1
  C  2202  1  0.95832500  0.49017900  0.24732800  1
  N  1066  1  0.13000300  0.13594300  0.23149600  1
  N  1078  1  0.86303900  0.35673300  0.73156000  1
  N  1090  1  0.36250400  0.63585800  0.76138100  1
  N  1102  1  0.63031900  0.85695900  0.26143400  1
  N  1114  1  0.23160000  0.13052100  0.13526700  1
  N  1126  1  0.73188300  0.86261700  0.35743700  1
  N  1138  1  0.76125300  0.36242000  0.63545300  1
  N  1150  1  0.26113000  0.63039200  0.85741900  1
  N  1162  1  0.13640000  0.23207800  0.12965400  1
  N  1174  1  0.35615100  0.73192700  0.86315200  1
  N  1186  1  0.63667300  0.76103800  0.36298800  1
  N  1198  1  0.85619900  0.26090100  0.62960900  1
  N  1210  1  0.13015500  0.63045900  0.73084100  1
  N  1222  1  0.86295400  0.86214800  0.23091400  1
  N  1234  1  0.36268500  0.13034700  0.26198700  1
  N  1246  1  0.63005400  0.36248100  0.76194900  1
  N  1258  1  0.22917900  0.63663200  0.63632900  1
  N  1270  1  0.72933100  0.35655000  0.85638800  1
  N  1282  1  0.76375000  0.85622500  0.13654500  1
  N  1294  1  0.26359900  0.13619900  0.35638700  1
  N  1306  1  0.13683200  0.72862100  0.63377400  1
  N  1318  1  0.35571700  0.22847500  0.35910800  1
  N  1330  1  0.63706800  0.26448700  0.85891800  1
  N  1342  1  0.85580900  0.76425700  0.13357200  1
  N  1354  1  0.63853500  0.13713200  0.72569600  1
  N  1366  1  0.35439000  0.35557500  0.22576900  1
  N  1378  1  0.85392600  0.63708300  0.26733300  1
  N  1390  1  0.13873600  0.85580300  0.76713200  1
  N  1402  1  0.72604800  0.13377200  0.63014100  1
  N  1414  1  0.22633100  0.85927600  0.86261400  1
  N  1426  1  0.26673200  0.35910200  0.13025700  1
  N  1438  1  0.76668100  0.63328800  0.36257400  1
  N  1450  1  0.62972200  0.22995200  0.63253700  1
  N  1462  1  0.86291700  0.72977900  0.36027800  1
  N  1474  1  0.13001500  0.76306300  0.86020400  1
  N  1486  1  0.36293200  0.26284900  0.13236700  1
  N  1498  1  0.63529000  0.62981500  0.22627000  1
  N  1510  1  0.35760900  0.86291100  0.72630400  1
  N  1522  1  0.85752900  0.12970400  0.76653600  1
  N  1534  1  0.13535000  0.36319700  0.26666500  1
  N  1546  1  0.72559700  0.63582300  0.13072300  1
  N  1558  1  0.22573400  0.35727400  0.36214900  1
  N  1570  1  0.26723500  0.85706100  0.63088100  1
  N  1582  1  0.76717000  0.13551500  0.86199100  1
  N  1594  1  0.62958800  0.72576600  0.13664100  1
  N  1606  1  0.86305900  0.22565800  0.85612900  1
  N  1618  1  0.12984000  0.26723900  0.35616000  1
  N  1630  1  0.36306900  0.76698100  0.63650100  1
  N  1642  1  0.22703400  0.05985300  0.26605200  1
  N  1654  1  0.76600000  0.43270300  0.76615100  1
  N  1666  1  0.26592400  0.55976900  0.72635100  1
  N  1678  1  0.72688000  0.93295700  0.22659400  1
  N  1690  1  0.26871600  0.22596800  0.05965900  1
  N  1702  1  0.76885500  0.76703600  0.43288000  1
  N  1714  1  0.72404000  0.26720200  0.55977700  1
  N  1726  1  0.22419700  0.72562900  0.93304500  1
  N  1738  1  0.05985300  0.26800100  0.22661900  1
  N  1750  1  0.43269700  0.76770300  0.76618100  1
  N  1762  1  0.55994900  0.72515100  0.26630600  1
  N  1774  1  0.93286400  0.22500300  0.72629800  1
  N  1786  1  0.81985900  0.47367900  0.48315300  1
  N  1798  1  0.17282500  0.01922400  0.98293100  1
  N  1810  1  0.31995900  0.51898100  0.00973600  1
  N  1822  1  0.67293700  0.97367800  0.50989700  1
  N  1834  1  0.97440600  0.50975500  0.67434900  1
  N  1846  1  0.51858200  0.00957900  0.31900700  1
  N  1858  1  0.01855300  0.98302400  0.17429000  1
  N  1870  1  0.47405200  0.48330100  0.81888700  1
  N  1882  1  0.00788600  0.31728400  0.51830000  1
  N  1894  1  0.50793600  0.67545200  0.97428600  1
  N  1906  1  0.48507100  0.81734400  0.47423500  1
  N  1918  1  0.98471200  0.17547400  0.01860800  1
  N  1930  1  0.27148500  0.72558200  0.55907000  1
  N  1942  1  0.77148100  0.26747400  0.93343500  1
  N  1954  1  0.72131800  0.76757500  0.05926500  1
  N  1966  1  0.22149100  0.22515400  0.43353200  1
  N  1978  1  0.05964700  0.76300500  0.72950800  1
  N  1990  1  0.43291500  0.26274800  0.26328400  1
  N  2002  1  0.55969900  0.23007400  0.76341600  1
  N  2014  1  0.93307100  0.72990100  0.22917700  1
  N  2026  1  0.81600200  0.97366900  0.97764200  1
  N  2038  1  0.17664900  0.51922800  0.47744000  1
  N  2050  1  0.31600400  0.01889800  0.51567800  1
  N  2062  1  0.67682000  0.47375800  0.01551400  1
  N  2074  1  0.00879900  0.81847000  0.01957500  1
  N  2086  1  0.50890500  0.17440900  0.47303900  1
  N  2098  1  0.48409300  0.31841900  0.97298800  1
  N  2110  1  0.98378000  0.67422100  0.51989500  1
  N  2122  1  0.72768900  0.06021900  0.76632600  1
  N  2134  1  0.26534100  0.43242300  0.26638000  1
  N  2146  1  0.76478400  0.56028100  0.22651100  1
  N  2158  1  0.22754200  0.93269800  0.72613800  1
  N  2170  1  0.47273600  0.51412900  0.17507200  1
  N  2182  1  0.02022900  0.01392500  0.81830200  1
  N  2194  1  0.52021500  0.97870200  0.67501500  1
  N  2206  1  0.97217600  0.48033000  0.31826500  1
