# generated using pymatgen
data_H6C13N5O
_symmetry_space_group_name_H-M   'P 1'
_cell_length_a   62.37192900
_cell_length_b   62.37192900
_cell_length_c   62.37192900
_cell_angle_alpha   109.47122063
_cell_angle_beta   109.47122063
_cell_angle_gamma   109.47122063
_symmetry_Int_Tables_number   1
_chemical_formula_structural   H6C13N5O
_chemical_formula_sum   'H288 C624 N240 O48'
_cell_volume   186786.56558004
_cell_formula_units_Z   48
loop_
 _symmetry_equiv_pos_site_id
 _symmetry_equiv_pos_as_xyz
  1  'x, y, z'
loop_
 _atom_site_type_symbol
 _atom_site_label
 _atom_site_symmetry_multiplicity
 _atom_site_fract_x
 _atom_site_fract_y
 _atom_site_fract_z
 _atom_site_occupancy
  C  1  1  0.14949300  0.07122800  0.16888900  1
  C  2  1  0.13783900  0.04369850  0.15206950  1
  C  3  1  0.12311000  0.03152300  0.12434300  1
  C  4  1  0.12380950  0.04786250  0.11299900  1
  C  5  1  0.13649700  0.07550800  0.12880700  1
  C  6  1  0.14736650  0.08643350  0.15636300  1
  C  9  1  0.16261700  0.08320700  0.19741800  1
  C  10  1  0.15220350  0.07091300  0.21000850  1
  C  11  1  0.16416950  0.08277150  0.23771500  1
  C  12  1  0.18816800  0.10695450  0.25337050  1
  C  13  1  0.19986600  0.11967050  0.24191950  1
  C  14  1  0.18649550  0.10784900  0.21414850  1
  C  25  1  0.40397800  0.04612850  0.44848550  1
  C  26  1  0.41563500  0.04096250  0.43261250  1
  C  27  1  0.43036750  0.02796900  0.43517250  1
  C  28  1  0.42966700  0.01592850  0.45081550  1
  C  29  1  0.41697500  0.01904600  0.46576800  1
  C  30  1  0.40610150  0.03572950  0.46581700  1
  C  33  1  0.39086150  0.06154050  0.44733900  1
  C  34  1  0.40128500  0.08454100  0.44545700  1
  C  35  1  0.38933200  0.10029200  0.44534500  1
  C  36  1  0.36533300  0.09196350  0.44552950  1
  C  37  1  0.35362500  0.06882150  0.44655350  1
  C  38  1  0.36698550  0.05441200  0.44810950  1
  C  49  1  0.62439050  0.42878900  0.05150750  1
  C  50  1  0.63510000  0.45631800  0.06738600  1
  C  51  1  0.61954750  0.46849250  0.06482700  1
  C  52  1  0.59186550  0.45215300  0.04918050  1
  C  53  1  0.58002800  0.42450750  0.03422250  1
  C  54  1  0.59665950  0.41358250  0.03417200  1
  C  57  1  0.64094400  0.41681350  0.05265950  1
  C  58  1  0.66583500  0.42911500  0.05455700  1
  C  59  1  0.68169050  0.41726500  0.05467450  1
  C  60  1  0.67316300  0.39307950  0.05448450  1
  C  61  1  0.64898300  0.38034850  0.05343750  1
  C  62  1  0.63302750  0.39216350  0.05187800  1
  C  73  1  0.92908500  0.45384350  0.33111350  1
  C  74  1  0.91837100  0.45901300  0.34792900  1
  C  75  1  0.93391950  0.47201150  0.37565700  1
  C  76  1  0.96160300  0.48405000  0.38700200  1
  C  77  1  0.97344300  0.48092400  0.37119800  1
  C  78  1  0.95681400  0.46423600  0.34364100  1
  C  81  1  0.91253850  0.43844450  0.30258300  1
  C  82  1  0.88764500  0.41544600  0.28998300  1
  C  83  1  0.87180200  0.39971600  0.26227600  1
  C  84  1  0.88034250  0.40806100  0.24662850  1
  C  85  1  0.90452000  0.43119600  0.25808700  1
  C  86  1  0.92046500  0.44558950  0.28585850  1
  C  97  1  0.98062350  0.83111500  0.90235250  1
  C  98  1  0.98579000  0.84793650  0.89164450  1
  C  99  1  0.99878500  0.87566400  0.90719900  1
  C  100  1  0.01082400  0.88700350  0.93488250  1
  C  101  1  0.00770400  0.87119200  0.94671700  1
  C  102  1  0.99102150  0.84363600  0.93008350  1
  C  105  1  0.96521800  0.80258700  0.88579700  1
  C  106  1  0.94220950  0.79000450  0.86092000  1
  C  107  1  0.92646400  0.76229850  0.84506050  1
  C  108  1  0.93481400  0.74663650  0.85357150  1
  C  109  1  0.95796300  0.75807900  0.87773300  1
  C  110  1  0.97236400  0.78584850  0.89369450  1
  C  121  1  0.95550500  0.55152400  0.59765300  1
  C  122  1  0.98303600  0.56739800  0.60836000  1
  C  123  1  0.99520900  0.56483850  0.59280650  1
  C  124  1  0.97886750  0.54919600  0.56512550  1
  C  125  1  0.95122050  0.53424100  0.55328850  1
  C  126  1  0.94029750  0.53419150  0.56992200  1
  C  129  1  0.94353250  0.55267250  0.61420900  1
  C  130  1  0.95583850  0.55455950  0.63909600  1
  C  131  1  0.94399450  0.55467500  0.65495650  1
  C  132  1  0.91981350  0.55449250  0.64644100  1
  C  133  1  0.90708050  0.55346200  0.62227050  1
  C  134  1  0.91888800  0.55190300  0.60630700  1
  C  145  1  0.57288700  0.94848800  0.37728400  1
  C  146  1  0.56771400  0.93260800  0.38893100  1
  C  147  1  0.55471700  0.93516450  0.40366150  1
  C  148  1  0.54268050  0.95081050  0.40296500  1
  C  149  1  0.54580700  0.96577200  0.39028200  1
  C  150  1  0.56249350  0.96582550  0.37941300  1
  C  153  1  0.58829100  0.94733650  0.36415850  1
  C  154  1  0.61128650  0.94544150  0.37456500  1
  C  155  1  0.62702450  0.94532650  0.36259600  1
  C  156  1  0.61869000  0.94552300  0.33860400  1
  C  157  1  0.59555500  0.94656300  0.32691700  1
  C  158  1  0.58115500  0.94811700  0.34028900  1
  C  169  1  0.59796000  0.66888950  0.12272850  1
  C  170  1  0.57043150  0.65207400  0.11108150  1
  C  171  1  0.55825200  0.62434600  0.09634900  1
  C  172  1  0.57458900  0.61300000  0.09704300  1
  C  173  1  0.60223400  0.62880400  0.10972400  1
  C  174  1  0.61316200  0.65636050  0.12059550  1
  C  177  1  0.60994300  0.69742000  0.13585900  1
  C  178  1  0.59764800  0.71001750  0.12546150  1
  C  179  1  0.60950750  0.73772500  0.13743650  1
  C  180  1  0.63369400  0.75337400  0.16143000  1
  C  181  1  0.64641500  0.74191650  0.17310750  1
  C  182  1  0.63459300  0.71414500  0.15972800  1
  C  193  1  0.07825500  0.09765250  0.92877250  1
  C  194  1  0.09413700  0.10836300  0.95630100  1
  C  195  1  0.09158400  0.09281200  0.96847800  1
  C  196  1  0.07593900  0.06512900  0.95213800  1
  C  197  1  0.06097600  0.05329200  0.92449400  1
  C  198  1  0.06091950  0.06992250  0.91356800  1
  C  201  1  0.07940050  0.11420300  0.91679350  1
  C  202  1  0.08129200  0.13909200  0.92909400  1
  C  203  1  0.08139900  0.15494200  0.91723800  1
  C  204  1  0.08120150  0.14640950  0.89304800  1
  C  205  1  0.08016850  0.12223750  0.88032400  1
  C  206  1  0.07861850  0.10628500  0.89214250  1
  C  217  1  0.35785600  0.40235000  0.95386400  1
  C  218  1  0.37467800  0.39164150  0.95902750  1
  C  219  1  0.40240550  0.40719450  0.97202100  1
  C  220  1  0.41374550  0.43487650  0.98406200  1
  C  221  1  0.39793600  0.44671300  0.98094800  1
  C  222  1  0.37037950  0.43008050  0.96426600  1
  C  225  1  0.32932750  0.38579250  0.93845700  1
  C  226  1  0.31674500  0.36090700  0.91545600  1
  C  227  1  0.28904100  0.34504550  0.89971350  1
  C  228  1  0.27337650  0.35356100  0.90805050  1
  C  229  1  0.28481750  0.37773150  0.93119000  1
  C  230  1  0.31258700  0.39369550  0.94559250  1
  C  241  1  0.19561250  0.62273500  0.57122750  1
  C  242  1  0.17879350  0.61108400  0.54369850  1
  C  243  1  0.15106500  0.59635050  0.53152250  1
  C  244  1  0.13972350  0.59704900  0.54786350  1
  C  245  1  0.15553100  0.60973700  0.57550900  1
  C  246  1  0.18308750  0.62060750  0.58643300  1
  C  249  1  0.22414100  0.63585850  0.58320250  1
  C  250  1  0.23672750  0.62544900  0.57089850  1
  C  251  1  0.26443300  0.63741200  0.58274700  1
  C  252  1  0.28009450  0.66140850  0.60693300  1
  C  253  1  0.26864950  0.67309700  0.61966350  1
  C  254  1  0.24087850  0.65972800  0.60785250  1
  C  265  1  0.47520100  0.87724150  0.54613750  1
  C  266  1  0.45932650  0.88889650  0.54097100  1
  C  267  1  0.46188500  0.90362900  0.52797700  1
  C  268  1  0.47753050  0.90293200  0.51593850  1
  C  269  1  0.49248650  0.89024300  0.51905950  1
  C  270  1  0.49253600  0.87936950  0.53574250  1
  C  273  1  0.47405500  0.86412050  0.56154550  1
  C  274  1  0.47217450  0.87454000  0.58454750  1
  C  275  1  0.47206750  0.86258150  0.60029400  1
  C  276  1  0.47225300  0.83858300  0.59195900  1
  C  277  1  0.47327200  0.82687900  0.56881300  1
  C  278  1  0.47482350  0.84024300  0.55440650  1
  C  289  1  0.64949750  0.16888000  0.07123350  1
  C  290  1  0.63784550  0.15205850  0.04370400  1
  C  291  1  0.62311350  0.12433200  0.03153150  1
  C  292  1  0.62381150  0.11299150  0.04787400  1
  C  293  1  0.63649850  0.12880150  0.07551800  1
  C  294  1  0.64737000  0.15635700  0.08644100  1
  C  297  1  0.66261750  0.19740750  0.08320600  1
  C  298  1  0.65219300  0.20998700  0.07090400  1
  C  299  1  0.66415100  0.23769100  0.08274800  1
  C  300  1  0.68815700  0.25335700  0.10692600  1
  C  301  1  0.69985800  0.24191750  0.11965550  1
  C  302  1  0.68649400  0.21414750  0.10784950  1
  C  313  1  0.90399050  0.44847050  0.04613400  1
  C  314  1  0.91564650  0.43259650  0.04097000  1
  C  315  1  0.93038050  0.43515600  0.02797650  1
  C  316  1  0.92968200  0.45079900  0.01593700  1
  C  317  1  0.91699100  0.46575400  0.01905400  1
  C  318  1  0.90611550  0.46580300  0.03573550  1
  C  321  1  0.89086200  0.44731700  0.06153600  1
  C  322  1  0.90127250  0.44542850  0.08453500  1
  C  323  1  0.88930250  0.44530650  0.10027100  1
  C  324  1  0.86530150  0.44548650  0.09192700  1
  C  325  1  0.85361100  0.44652250  0.06878950  1
  C  326  1  0.86698600  0.44808550  0.05439250  1
  C  337  1  0.12439850  0.05151600  0.42878350  1
  C  338  1  0.13510500  0.06739300  0.45631100  1
  C  339  1  0.11955300  0.06483850  0.46848650  1
  C  340  1  0.09187000  0.04919450  0.45214350  1
  C  341  1  0.08003450  0.03423450  0.42449800  1
  C  342  1  0.09666800  0.03418100  0.41357600  1
  C  345  1  0.14095350  0.05266350  0.41680800  1
  C  346  1  0.16584250  0.05455350  0.42911300  1
  C  347  1  0.18169550  0.05466450  0.41726100  1
  C  348  1  0.17317050  0.05447050  0.39307400  1
  C  349  1  0.14899650  0.05343450  0.38034400  1
  C  350  1  0.13304050  0.05188350  0.39215900  1
  C  361  1  0.42906500  0.33110300  0.45385600  1
  C  362  1  0.41835750  0.34792500  0.45902450  1
  C  363  1  0.43391000  0.37565200  0.47201800  1
  C  364  1  0.46159100  0.38699300  0.48405500  1
  C  365  1  0.47342900  0.37118500  0.48093400  1
  C  366  1  0.45679600  0.34362900  0.46425100  1
  C  369  1  0.41251150  0.30257500  0.43844850  1
  C  370  1  0.38762550  0.28999200  0.41544850  1
  C  371  1  0.37176900  0.26228650  0.39970250  1
  C  372  1  0.38029150  0.24662400  0.40803650  1
  C  373  1  0.40445850  0.25806500  0.43117950  1
  C  374  1  0.42041850  0.28583500  0.44558350  1
  C  385  1  0.48059950  0.90234450  0.83111800  1
  C  386  1  0.48576750  0.89163300  0.84793450  1
  C  387  1  0.49876650  0.90718400  0.87566250  1
  C  388  1  0.51080750  0.93486600  0.88700550  1
  C  389  1  0.50768500  0.94670500  0.87120000  1
  C  390  1  0.49099700  0.93007500  0.84364400  1
  C  393  1  0.46519200  0.88579400  0.80258800  1
  C  394  1  0.44219250  0.86090400  0.78999850  1
  C  395  1  0.42645050  0.84505500  0.76229350  1
  C  396  1  0.43478500  0.85358750  0.74663550  1
  C  397  1  0.45792400  0.87776000  0.75808400  1
  C  398  1  0.47232800  0.89371100  0.78585500  1
  C  409  1  0.45550550  0.59764950  0.55151600  1
  C  410  1  0.48303500  0.60835650  0.56738950  1
  C  411  1  0.49520650  0.59280200  0.56482750  1
  C  412  1  0.47886450  0.56511950  0.54918500  1
  C  413  1  0.45121850  0.55328400  0.53423150  1
  C  414  1  0.44029600  0.56991800  0.53418200  1
  C  417  1  0.44353300  0.61420500  0.55266600  1
  C  418  1  0.45583650  0.63909150  0.55455000  1
  C  419  1  0.44399400  0.65495350  0.55466950  1
  C  420  1  0.41981250  0.64643700  0.55449050  1
  C  421  1  0.40708300  0.62226700  0.55345900  1
  C  422  1  0.41888950  0.60630350  0.55189800  1
  C  433  1  0.07287800  0.37726200  0.94848800  1
  C  434  1  0.06771000  0.38891450  0.93261250  1
  C  435  1  0.05471750  0.40365000  0.93517150  1
  C  436  1  0.04267850  0.40295200  0.95081550  1
  C  437  1  0.04579750  0.39026200  0.96577150  1
  C  438  1  0.06248100  0.37938900  0.96582200  1
  C  441  1  0.08828350  0.36413800  0.94734050  1
  C  442  1  0.11128050  0.37454800  0.94544650  1
  C  443  1  0.12702100  0.36258500  0.94533100  1
  C  444  1  0.11868750  0.33858900  0.94552250  1
  C  445  1  0.09555200  0.32689850  0.94656350  1
  C  446  1  0.08115200  0.34026850  0.94812150  1
  C  457  1  0.09796750  0.12275500  0.66889350  1
  C  458  1  0.07043900  0.11110400  0.65207200  1
  C  459  1  0.05826400  0.09637150  0.62434350  1
  C  460  1  0.07460700  0.09706700  0.61300400  1
  C  461  1  0.10225200  0.10975150  0.62881350  1
  C  462  1  0.11317500  0.12062350  0.65637050  1
  C  465  1  0.10994150  0.13587650  0.69742200  1
  C  466  1  0.09763900  0.12545550  0.71000450  1
  C  467  1  0.10949000  0.13741450  0.73770950  1
  C  468  1  0.13367300  0.16141200  0.75337200  1
  C  469  1  0.14639800  0.17311800  0.74193300  1
  C  470  1  0.13458650  0.15975400  0.71416150  1
  C  481  1  0.57827100  0.92876650  0.09765050  1
  C  482  1  0.59414350  0.95629600  0.10835950  1
  C  483  1  0.59158500  0.96846850  0.09280450  1
  C  484  1  0.57594550  0.95212650  0.06512300  1
  C  485  1  0.56099250  0.92448050  0.05328700  1
  C  486  1  0.56094150  0.91355700  0.06992050  1
  C  489  1  0.57941800  0.91679400  0.11420600  1
  C  490  1  0.58128600  0.92908800  0.13908300  1
  C  491  1  0.58139850  0.91724050  0.15494000  1
  C  492  1  0.58123800  0.89306800  0.14643200  1
  C  493  1  0.58022750  0.88035050  0.12227000  1
  C  494  1  0.57866750  0.89215800  0.10630750  1
  C  505  1  0.85784900  0.95387400  0.40234800  1
  C  506  1  0.87467150  0.95904350  0.39164200  1
  C  507  1  0.90240000  0.97203800  0.40719700  1
  C  508  1  0.91373800  0.98407500  0.43488000  1
  C  509  1  0.89792700  0.98095200  0.44671400  1
  C  510  1  0.87037050  0.96426850  0.43007900  1
  C  513  1  0.82932000  0.93846700  0.38579200  1
  C  514  1  0.81674050  0.91546750  0.36090400  1
  C  515  1  0.78903550  0.89972250  0.34504400  1
  C  516  1  0.77336850  0.90805500  0.35356050  1
  C  517  1  0.78480600  0.93119450  0.37773050  1
  C  518  1  0.81257650  0.94559800  0.39369350  1
  C  529  1  0.69560900  0.57120200  0.62271800  1
  C  530  1  0.67878600  0.54367350  0.61106750  1
  C  531  1  0.65106050  0.53150000  0.59633750  1
  C  532  1  0.63971950  0.54784200  0.59703250  1
  C  533  1  0.65552950  0.57548750  0.60971600  1
  C  534  1  0.68308650  0.58641050  0.62058800  1
  C  537  1  0.72413650  0.58317700  0.63584350  1
  C  538  1  0.73672600  0.57087550  0.62543650  1
  C  539  1  0.76443150  0.58272850  0.63740400  1
  C  540  1  0.78009200  0.60691850  0.66139750  1
  C  541  1  0.76864200  0.61964400  0.67308400  1
  C  542  1  0.74087050  0.60782700  0.65971350  1
  C  553  1  0.97524000  0.54615750  0.87727350  1
  C  554  1  0.95935700  0.54098650  0.88891850  1
  C  555  1  0.96190800  0.52798950  0.90365050  1
  C  556  1  0.97755400  0.51595150  0.90295850  1
  C  557  1  0.99251950  0.51907650  0.89027900  1
  C  558  1  0.99257650  0.53576250  0.87940800  1
  C  561  1  0.97409150  0.56155700  0.86414350  1
  C  562  1  0.97219400  0.58455250  0.87454150  1
  C  563  1  0.97207750  0.60028500  0.86256650  1
  C  564  1  0.97227100  0.59194050  0.83857250  1
  C  565  1  0.97331600  0.56880700  0.82689600  1
  C  566  1  0.97487400  0.55441500  0.84027500  1
  C  1153  1  0.10831000  0.10059050  0.03478850  1
  C  1155  1  0.14398250  0.09852650  0.06275800  1
  C  1156  1  0.13310050  0.09643450  0.07907500  1
  C  1158  1  0.09751850  0.09885700  0.05141750  1
  C  1160  1  0.07538900  0.09819400  0.04736900  1
  C  1162  1  0.09444900  0.09738150  0.00974850  1
  C  1164  1  0.14227750  0.08909300  0.09783050  1
  C  1166  1  0.44517150  0.95325400  0.51909750  1
  C  1168  1  0.40951850  0.94552450  0.48131900  1
  C  1169  1  0.42038150  0.97272100  0.49010650  1
  C  1171  1  0.45595500  0.98066700  0.52813300  1
  C  1173  1  0.47807000  0.99874800  0.54961500  1
  C  1175  1  0.45903400  0.94204550  0.52968550  1
  C  1177  1  0.41120850  0.98229350  0.47358000  1
  C  1179  1  0.46090300  0.39935500  0.98089000  1
  C  1181  1  0.49095100  0.40147850  0.01866750  1
  C  1182  1  0.50936300  0.40356350  0.00988350  1
  C  1184  1  0.47927550  0.40109300  0.97184950  1
  C  1186  1  0.47588300  0.40174350  0.95037650  1
  C  1188  1  0.43910750  0.40263100  0.97030450  1
  C  1190  1  0.53546450  0.41092650  0.02641300  1
  C  1192  1  0.09253000  0.54675100  0.46521900  1
  C  1194  1  0.06251050  0.55445700  0.43724650  1
  C  1195  1  0.04410000  0.52725800  0.42093000  1
  C  1197  1  0.07417100  0.51933100  0.44859400  1
  C  1199  1  0.07756000  0.50125200  0.45264500  1
  C  1201  1  0.11436700  0.55793800  0.49025800  1
  C  1203  1  0.01800400  0.51768000  0.40217200  1
  C  1205  1  0.07347950  0.96518650  0.06584300  1
  C  1207  1  0.08119650  0.93725700  0.03578650  1
  C  1208  1  0.05399450  0.92091150  0.01738300  1
  C  1210  1  0.04606600  0.94855800  0.04747200  1
  C  1212  1  0.02798850  0.95259850  0.05087400  1
  C  1214  1  0.08469300  0.99025700  0.08764000  1
  C  1216  1  0.04444750  0.90217850  0.99128700  1
  C  1218  1  0.92611300  0.48094550  0.43417450  1
  C  1220  1  0.92818200  0.51869000  0.46421100  1
  C  1221  1  0.93028350  0.50990750  0.48262600  1
  C  1223  1  0.92784300  0.47189350  0.45254050  1
  C  1225  1  0.92850050  0.45042400  0.44915450  1
  C  1227  1  0.92934800  0.47031100  0.41236000  1
  C  1229  1  0.93763750  0.52643150  0.50872500  1
  C  1231  1  0.47996600  0.01903050  0.41846350  1
  C  1233  1  0.47227050  0.98130300  0.38278750  1
  C  1234  1  0.49947100  0.99009450  0.39367550  1
  C  1236  1  0.50738600  0.02808450  0.42926450  1
  C  1238  1  0.52546350  0.04955800  0.45138950  1
  C  1240  1  0.46878250  0.02967900  0.43232150  1
  C  1242  1  0.50905050  0.97357850  0.38449500  1
  C  1244  1  0.62734700  0.53481000  0.08152400  1
  C  1246  1  0.62523750  0.56274800  0.11717350  1
  C  1247  1  0.62314200  0.57905800  0.10628000  1
  C  1249  1  0.62563250  0.55144500  0.07073950  1
  C  1251  1  0.62502800  0.54741700  0.04863700  1
  C  1253  1  0.62412000  0.50975900  0.06767600  1
  C  1255  1  0.61581650  0.59782050  0.11549000  1
  C  1257  1  0.00772000  0.93419450  0.89942250  1
  C  1259  1  0.04544750  0.96422600  0.90147350  1
  C  1260  1  0.03665700  0.98263450  0.90356850  1
  C  1262  1  0.99866150  0.95255700  0.90115950  1
  C  1264  1  0.97719750  0.94917100  0.90182850  1
  C  1266  1  0.99707450  0.91236650  0.90263600  1
  C  1268  1  0.05317300  0.00873100  0.91090600  1
  C  1270  1  0.49191150  0.56584650  0.04673700  1
  C  1272  1  0.46400050  0.53578600  0.05446950  1
  C  1273  1  0.44766400  0.51737850  0.02727250  1
  C  1275  1  0.47527950  0.54746550  0.01932500  1
  C  1277  1  0.47930400  0.55086900  0.00124100  1
  C  1279  1  0.51698000  0.58764350  0.05793950  1
  C  1281  1  0.42892500  0.49127750  0.01770250  1
  C  1283  1  0.06154850  0.58154950  0.60064700  1
  C  1285  1  0.08947800  0.61720800  0.59853200  1
  C  1286  1  0.10580550  0.60633800  0.59644650  1
  C  1288  1  0.07818350  0.57077100  0.59890850  1
  C  1290  1  0.07413750  0.54864550  0.59825400  1
  C  1292  1  0.03647500  0.56768750  0.59736750  1
  C  1294  1  0.12454700  0.61550750  0.58908750  1
  C  1296  1  0.54576550  0.91844950  0.45325100  1
  C  1298  1  0.50803550  0.88277150  0.44553700  1
  C  1299  1  0.51682100  0.89364950  0.47273550  1
  C  1301  1  0.55482400  0.92924000  0.48067000  1
  C  1303  1  0.57629300  0.95136750  0.49875150  1
  C  1305  1  0.55642150  0.93230550  0.44207000  1
  C  1307  1  0.50029900  0.88446650  0.48230850  1
  C  1309  1  0.60828250  0.03480450  0.10064300  1
  C  1311  1  0.64393200  0.06274000  0.09852400  1
  C  1312  1  0.63307450  0.07908400  0.09646450  1
  C  1314  1  0.59749450  0.05142900  0.09889750  1
  C  1316  1  0.57537600  0.04738750  0.09825750  1
  C  1318  1  0.59442500  0.00973000  0.09736500  1
  C  1320  1  0.64226050  0.09781850  0.08910400  1
  C  1322  1  0.94516450  0.51906900  0.95323850  1
  C  1324  1  0.90950500  0.48130400  0.94552700  1
  C  1325  1  0.92038350  0.49008750  0.97272300  1
  C  1327  1  0.95594550  0.52811400  0.98065550  1
  C  1329  1  0.97806700  0.54958850  0.99873950  1
  C  1331  1  0.95903750  0.52969300  0.94205550  1
  C  1333  1  0.91121800  0.47356000  0.98229800  1
  C  1335  1  0.96093650  0.98098050  0.39942700  1
  C  1337  1  0.99096900  0.01870650  0.40147750  1
  C  1338  1  0.00937650  0.00991550  0.40357300  1
  C  1340  1  0.97930250  0.97192500  0.40117250  1
  C  1342  1  0.97590650  0.95045100  0.40182250  1
  C  1344  1  0.93910500  0.97033150  0.40263650  1
  C  1346  1  0.03547200  0.02643000  0.41090700  1
  C  1348  1  0.59253650  0.46518150  0.54672000  1
  C  1350  1  0.56249100  0.43724250  0.55443350  1
  C  1351  1  0.54408400  0.42093250  0.52723050  1
  C  1353  1  0.57418500  0.44854650  0.51930150  1
  C  1355  1  0.57760800  0.45257450  0.50122650  1
  C  1357  1  0.61436050  0.49023350  0.55792200  1
  C  1359  1  0.51799850  0.40216950  0.51768000  1
  C  1361  1  0.57352100  0.06580200  0.96522100  1
  C  1363  1  0.58122000  0.03576900  0.93724500  1
  C  1364  1  0.55402250  0.01736150  0.92093100  1
  C  1366  1  0.54610050  0.04743900  0.94859350  1
  C  1368  1  0.52802100  0.05082550  0.95264650  1
  C  1370  1  0.58470200  0.08763100  0.99026300  1
  C  1372  1  0.54444350  0.99126500  0.90217250  1
  C  1374  1  0.42607100  0.43415300  0.48089900  1
  C  1376  1  0.42820900  0.46421150  0.51868450  1
  C  1377  1  0.43028350  0.48261950  0.50989500  1
  C  1379  1  0.42782150  0.45253400  0.47186750  1
  C  1381  1  0.42845000  0.44913050  0.45038250  1
  C  1383  1  0.42934450  0.41235600  0.47030750  1
  C  1385  1  0.43764050  0.50871950  0.52642200  1
  C  1387  1  0.98000700  0.41844400  0.01910500  1
  C  1389  1  0.97227400  0.38278950  0.98132450  1
  C  1390  1  0.99947150  0.39365800  0.99011050  1
  C  1392  1  0.00742000  0.42922150  0.02814550  1
  C  1394  1  0.02550000  0.45134250  0.04961950  1
  C  1396  1  0.96879750  0.43230700  0.02969250  1
  C  1398  1  0.00904250  0.38449050  0.97358000  1
  C  1400  1  0.12731550  0.08154600  0.53479050  1
  C  1402  1  0.12527400  0.11722950  0.56276550  1
  C  1403  1  0.12317850  0.10634800  0.57908250  1
  C  1405  1  0.12558150  0.07075250  0.55141600  1
  C  1407  1  0.12491800  0.04862250  0.54736650  1
  C  1409  1  0.12411350  0.06769350  0.50975200  1
  C  1411  1  0.11584300  0.11553150  0.59784050  1
  C  1413  1  0.50763750  0.89934350  0.93416000  1
  C  1415  1  0.54541550  0.90147750  0.96421900  1
  C  1416  1  0.53661600  0.90353300  0.98262100  1
  C  1418  1  0.49859450  0.90108400  0.95253050  1
  C  1420  1  0.47711300  0.90171800  0.94912800  1
  C  1422  1  0.49705150  0.90261750  0.91236300  1
  C  1424  1  0.55316650  0.91089750  0.00871700  1
  C  1426  1  0.99194800  0.04678350  0.56581350  1
  C  1428  1  0.96395750  0.05448300  0.53579150  1
  C  1429  1  0.94765300  0.02728550  0.51737650  1
  C  1431  1  0.97531700  0.01936250  0.54745350  1
  C  1433  1  0.97937100  0.00128350  0.55083850  1
  C  1435  1  0.01699400  0.05796350  0.58763750  1
  C  1437  1  0.92890100  0.01770700  0.49127700  1
  C  1439  1  0.56151300  0.60057350  0.58153850  1
  C  1441  1  0.58948850  0.59851300  0.61721050  1
  C  1442  1  0.60580200  0.59641800  0.60632400  1
  C  1444  1  0.57813450  0.59882800  0.57073950  1
  C  1446  1  0.57409050  0.59818050  0.54861600  1
  C  1448  1  0.53647450  0.59736700  0.56768050  1
  C  1450  1  0.62455950  0.58907850  0.61550200  1
  C  1452  1  0.04582400  0.45327450  0.91847950  1
  C  1454  1  0.00806900  0.44556850  0.88282550  1
  C  1455  1  0.01686900  0.47277250  0.89372250  1
  C  1457  1  0.05489400  0.48069350  0.92926650  1
  C  1459  1  0.07639100  0.49876800  0.95137300  1
  C  1461  1  0.05644150  0.44206850  0.93232700  1
  C  1463  1  0.00033500  0.48232600  0.88451300  1
  C  1777  1  0.14247300  0.07022650  0.28182250  1
  C  1779  1  0.16293400  0.06088700  0.31506500  1
  C  1780  1  0.14704300  0.06450050  0.32602450  1
  C  1782  1  0.12598050  0.07314350  0.29245700  1
  C  1784  1  0.10881950  0.08001550  0.28388000  1
  C  1786  1  0.14572900  0.07912650  0.26465450  1
  C  1788  1  0.15394850  0.06838550  0.35114700  1
  C  1790  1  0.41108600  0.16607300  0.45445800  1
  C  1792  1  0.39033300  0.17879900  0.42473500  1
  C  1793  1  0.40635800  0.20566950  0.44416450  1
  C  1795  1  0.42764800  0.19321500  0.47378600  1
  C  1797  1  0.44501800  0.20181550  0.49773650  1
  C  1799  1  0.40779400  0.14567200  0.46013700  1
  C  1801  1  0.39947600  0.22391150  0.44117650  1
  C  1803  1  0.73837500  0.42988900  0.04555400  1
  C  1805  1  0.78083950  0.43889700  0.07526350  1
  C  1806  1  0.78824100  0.43545550  0.05580050  1
  C  1808  1  0.74616400  0.42715700  0.02621400  1
  C  1810  1  0.73077550  0.42050900  0.00224950  1
  C  1812  1  0.71230800  0.42090300  0.03992000  1
  C  1814  1  0.80945100  0.43153550  0.05874950  1
  C  1816  1  0.81516050  0.33390450  0.21814900  1
  C  1818  1  0.77260800  0.32113950  0.18488550  1
  C  1819  1  0.76524800  0.29428500  0.17395100  1
  C  1821  1  0.80743550  0.30678150  0.20754400  1
  C  1823  1  0.82286350  0.29819850  0.21617500  1
  C  1825  1  0.84122500  0.35433650  0.23534050  1
  C  1827  1  0.74401150  0.27606100  0.14882850  1
  C  1829  1  0.86062800  0.71823300  0.78839600  1
  C  1831  1  0.84783850  0.68491300  0.74584550  1
  C  1832  1  0.82096850  0.67401600  0.73845050  1
  C  1834  1  0.83350850  0.70761100  0.78067150  1
  C  1836  1  0.82495250  0.71626450  0.79611800  1
  C  1838  1  0.88109500  0.73528600  0.81445100  1
  C  1840  1  0.80280150  0.64887450  0.71723000  1
  C  1842  1  0.95659550  0.54552800  0.71161950  1
  C  1844  1  0.96588750  0.57529400  0.75421450  1
  C  1845  1  0.96225000  0.55576100  0.76152300  1
  C  1847  1  0.95368600  0.52611600  0.71933100  1
  C  1849  1  0.94683600  0.50209500  0.70387300  1
  C  1851  1  0.94762600  0.53989750  0.68555450  1
  C  1853  1  0.95830850  0.55871300  0.78272150  1
  C  1855  1  0.69281150  0.95449950  0.38428100  1
  C  1857  1  0.70555850  0.92472600  0.36370050  1
  C  1858  1  0.73242150  0.94419600  0.37964550  1
  C  1860  1  0.71994650  0.97387800  0.40080050  1
  C  1862  1  0.72854750  0.99786650  0.41808400  1
  C  1864  1  0.67241050  0.96017750  0.38111700  1
  C  1866  1  0.75064550  0.94118250  0.37274900  1
  C  1868  1  0.59694400  0.78182450  0.11572750  1
  C  1870  1  0.58791150  0.81526100  0.13639050  1
  C  1871  1  0.59135800  0.82608200  0.12035100  1
  C  1873  1  0.59965850  0.79230750  0.09908700  1
  C  1875  1  0.60622850  0.78349850  0.08171900  1
  C  1877  1  0.60586650  0.76468000  0.11901650  1
  C  1879  1  0.59526100  0.85121650  0.12725550  1
  C  1881  1  0.07224250  0.21159100  0.92978050  1
  C  1883  1  0.10203300  0.25417000  0.93910500  1
  C  1884  1  0.08252700  0.26151300  0.93549400  1
  C  1886  1  0.05283150  0.21930500  0.92686350  1
  C  1888  1  0.02880100  0.20385500  0.91999600  1
  C  1890  1  0.06660200  0.18552450  0.92088550  1
  C  1892  1  0.08554050  0.28274700  0.93160550  1
  C  1894  1  0.24500250  0.28838450  0.83392700  1
  C  1896  1  0.21152150  0.24594600  0.82120650  1
  C  1897  1  0.20068700  0.23849900  0.79433300  1
  C  1899  1  0.23444250  0.28056700  0.80678650  1
  C  1901  1  0.24322500  0.29591500  0.79818900  1
  C  1903  1  0.26211650  0.31446100  0.85433250  1
  C  1905  1  0.17556550  0.21726750  0.77608800  1
  C  1907  1  0.30848950  0.61567000  0.57011250  1
  C  1909  1  0.34194150  0.63637700  0.56110250  1
  C  1910  1  0.35278750  0.62035800  0.56453850  1
  C  1912  1  0.31901300  0.59906150  0.57283850  1
  C  1914  1  0.31027600  0.58174300  0.57948400  1
  C  1916  1  0.29141000  0.61901800  0.57910100  1
  C  1918  1  0.37791600  0.62722700  0.56845200  1
  C  1920  1  0.48124850  0.88429350  0.66611000  1
  C  1922  1  0.45145600  0.86380350  0.67887350  1
  C  1923  1  0.47095350  0.87971400  0.70572850  1
  C  1925  1  0.50065000  0.90080200  0.69323200  1
  C  1927  1  0.52466600  0.91800600  0.70181600  1
  C  1929  1  0.48688100  0.88104750  0.64567750  1
  C  1931  1  0.46793800  0.87280800  0.72394600  1
  C  1933  1  0.64238000  0.28175950  0.07015450  1
  C  1935  1  0.66291500  0.31509050  0.06093750  1
  C  1936  1  0.64693850  0.32598200  0.06443850  1
  C  1938  1  0.62588100  0.29237800  0.07305300  1
  C  1940  1  0.60866950  0.28371950  0.07984200  1
  C  1942  1  0.64579300  0.26470250  0.07915150  1
  C  1944  1  0.65390900  0.35112350  0.06836250  1
  C  1946  1  0.91102600  0.45449550  0.16609550  1
  C  1948  1  0.89067650  0.42468850  0.17893600  1
  C  1949  1  0.90651650  0.44425350  0.20577100  1
  C  1951  1  0.92750850  0.47393550  0.19321000  1
  C  1953  1  0.94461900  0.49798050  0.20176550  1
  C  1955  1  0.90772200  0.46011200  0.14565000  1
  C  1957  1  0.89961100  0.44128600  0.22400500  1
  C  1959  1  0.23831500  0.04550150  0.42978150  1
  C  1961  1  0.28083500  0.07528300  0.43897900  1
  C  1962  1  0.28823450  0.05581750  0.43545800  1
  C  1964  1  0.24607850  0.02612850  0.42692600  1
  C  1966  1  0.23069450  0.00213750  0.42022100  1
  C  1968  1  0.21223600  0.03981850  0.42093750  1
  C  1970  1  0.30947750  0.05884050  0.43158200  1
  C  1972  1  0.31510900  0.21820650  0.33389050  1
  C  1974  1  0.27263250  0.18478000  0.32111850  1
  C  1975  1  0.26526150  0.17395000  0.29425950  1
  C  1977  1  0.30734100  0.20771450  0.30676650  1
  C  1979  1  0.32272300  0.21651400  0.29820700  1
  C  1981  1  0.34117500  0.23534600  0.35432500  1
  C  1983  1  0.24403100  0.14881450  0.27603250  1
  C  1985  1  0.36064650  0.78840700  0.71818750  1
  C  1987  1  0.34785950  0.74582800  0.68493350  1
  C  1988  1  0.32101000  0.73848600  0.67398000  1
  C  1990  1  0.33352050  0.78069150  0.70755500  1
  C  1992  1  0.32493900  0.79614150  0.71613750  1
  C  1994  1  0.38107050  0.81447250  0.73535900  1
  C  1996  1  0.30278850  0.71725100  0.64885750  1
  C  1998  1  0.45661600  0.71161600  0.54554500  1
  C  2000  1  0.46556950  0.75405150  0.57526100  1
  C  2001  1  0.46218150  0.76149800  0.55583450  1
  C  2003  1  0.45387350  0.71943050  0.52622100  1
  C  2005  1  0.44731000  0.70408450  0.50227650  1
  C  2007  1  0.44765350  0.68553750  0.53987300  1
  C  2009  1  0.45829000  0.78272950  0.55882050  1
  C  2011  1  0.19282100  0.38432700  0.95444000  1
  C  2013  1  0.20556500  0.36362000  0.92472400  1
  C  2014  1  0.23243100  0.37964050  0.94417950  1
  C  2016  1  0.21995200  0.40093550  0.97377550  1
  C  2018  1  0.22853400  0.41825500  0.99774000  1
  C  2020  1  0.17239350  0.38098050  0.96008200  1
  C  2022  1  0.25068950  0.37277100  0.94122150  1
  C  2024  1  0.09695950  0.11570500  0.78181550  1
  C  2026  1  0.08765450  0.13619400  0.81506750  1
  C  2027  1  0.09124050  0.12028300  0.82601250  1
  C  2029  1  0.09985150  0.09919550  0.79242900  1
  C  2031  1  0.10666500  0.08199350  0.78380950  1
  C  2033  1  0.10583700  0.11895100  0.76462900  1
  C  2035  1  0.09513250  0.12718900  0.85113650  1
  C  2037  1  0.57222700  0.92984000  0.21160700  1
  C  2039  1  0.60198900  0.93907050  0.25415650  1
  C  2040  1  0.58251500  0.93556750  0.26155150  1
  C  2042  1  0.55283200  0.92694150  0.21933050  1
  C  2044  1  0.52882900  0.92014700  0.20388300  1
  C  2046  1  0.56663850  0.92083800  0.18555050  1
  C  2048  1  0.58556750  0.93164700  0.28277150  1
  C  2050  1  0.74497200  0.83391100  0.28838000  1
  C  2052  1  0.71166850  0.82108450  0.24578800  1
  C  2053  1  0.70072350  0.79424350  0.23847900  1
  C  2055  1  0.73435200  0.80678850  0.28066850  1
  C  2057  1  0.74296150  0.79822550  0.29612600  1
  C  2059  1  0.76206900  0.85434600  0.31444600  1
  C  2061  1  0.67558250  0.77599850  0.21728100  1
  C  2063  1  0.80853550  0.57021750  0.61572100  1
  C  2065  1  0.84186350  0.56102600  0.63630150  1
  C  2066  1  0.85278050  0.56455000  0.62035650  1
  C  2068  1  0.81915050  0.57307600  0.59920050  1
  C  2070  1  0.81046750  0.57977900  0.58191650  1
  C  2072  1  0.79129900  0.57905950  0.61888350  1
  C  2074  1  0.87790200  0.56843250  0.62725250  1
  C  2076  1  0.98122250  0.66609300  0.88427350  1
  C  2078  1  0.95152500  0.67886900  0.86361400  1
  C  2079  1  0.97101150  0.70572850  0.87965200  1
  C  2081  1  0.00057750  0.69321750  0.90091400  1
  C  2083  1  0.02451500  0.70177600  0.91828100  1
  C  2085  1  0.98685450  0.64566050  0.88098300  1
  C  2087  1  0.96800950  0.72395800  0.87274750  1
  H  7  1  0.13838200  0.03189100  0.16011900  1
  H  16  1  0.19493900  0.11716200  0.20597100  1
  H  17  1  0.12168450  0.03076600  0.08022350  1
  H  18  1  0.20781850  0.10923450  0.28561600  1
  H  19  1  0.15545900  0.10627900  0.16760700  1
  H  20  1  0.13497100  0.05336500  0.19889600  1
  H  31  1  0.41509300  0.04846550  0.42025950  1
  H  40  1  0.35853650  0.03779650  0.44898600  1
  H  41  1  0.43180250  0.98528200  0.43585150  1
  H  42  1  0.34570000  0.10456550  0.42815050  1
  H  43  1  0.39800550  0.03888100  0.47756850  1
  H  44  1  0.41852050  0.09065150  0.44514300  1
  H  55  1  0.65495550  0.46812650  0.07974200  1
  H  64  1  0.61552800  0.38283850  0.05098750  1
  H  65  1  0.57618350  0.46925200  0.06414650  1
  H  66  1  0.70312400  0.39080800  0.07188200  1
  H  67  1  0.58805950  0.39373750  0.02241900  1
  H  68  1  0.67227150  0.44666700  0.05487750  1
  H  79  1  0.89851450  0.45151250  0.33987800  1
  H  88  1  0.93796450  0.46220300  0.29404150  1
  H  89  1  0.97728450  0.51470550  0.41977600  1
  H  90  1  0.85039800  0.39550850  0.21438650  1
  H  91  1  0.96541850  0.46108150  0.33240100  1
  H  92  1  0.88119950  0.40932600  0.30109050  1
  H  103  1  0.97828750  0.83989000  0.87178850  1
  H  112  1  0.98898750  0.79402250  0.91118300  1
  H  113  1  0.04147150  0.91978500  0.95056650  1
  H  114  1  0.92222750  0.71441250  0.82358700  1
  H  115  1  0.98786900  0.83238900  0.93868100  1
  H  116  1  0.93608900  0.80112500  0.85449800  1
  H  127  1  0.99484550  0.57974950  0.62821600  1
  H  136  1  0.90956100  0.55102100  0.58881200  1
  H  137  1  0.99596350  0.56415950  0.54944100  1
  H  138  1  0.91755550  0.57187800  0.67641750  1
  H  139  1  0.92045150  0.52244150  0.56132300  1
  H  140  1  0.97338750  0.55487400  0.64552350  1
  H  151  1  0.57521200  0.92025000  0.38838300  1
  H  160  1  0.56454500  0.94900600  0.33185400  1
  H  161  1  0.51202500  0.93584200  0.40508400  1
  H  162  1  0.63128150  0.92815400  0.31894950  1
  H  163  1  0.56565150  0.97758200  0.37132550  1
  H  164  1  0.61740250  0.94512350  0.39179600  1
  H  175  1  0.55862600  0.66012350  0.11162850  1
  H  184  1  0.64391050  0.70596500  0.16816050  1
  H  185  1  0.55749050  0.58022350  0.09491800  1
  H  186  1  0.63598200  0.78561000  0.18112000  1
  H  187  1  0.63300700  0.66760250  0.12868250  1
  H  188  1  0.58009450  0.69890850  0.10823200  1
  H  199  1  0.10649300  0.12821900  0.96810800  1
  H  208  1  0.07773550  0.08878900  0.88282150  1
  H  209  1  0.09091000  0.04944500  0.96922900  1
  H  210  1  0.09857850  0.17636800  0.89076150  1
  H  211  1  0.04916200  0.06132100  0.89372300  1
  H  212  1  0.08161550  0.14553050  0.94664700  1
  H  223  1  0.36663200  0.37178500  0.95152200  1
  H  232  1  0.32075600  0.41118950  0.96220650  1
  H  233  1  0.44652800  0.45055550  0.01470550  1
  H  234  1  0.24114550  0.32358800  0.89547250  1
  H  235  1  0.35913300  0.43868000  0.96111600  1
  H  236  1  0.32786650  0.35448100  0.90934050  1
  H  247  1  0.18684000  0.61162900  0.53188900  1
  H  256  1  0.23270700  0.66816750  0.61717850  1
  H  257  1  0.10694350  0.59491900  0.53076450  1
  H  258  1  0.31232400  0.68107350  0.60919750  1
  H  259  1  0.19433200  0.62869950  0.60627850  1
  H  260  1  0.22560900  0.60821750  0.55334650  1
  H  271  1  0.44697400  0.88835250  0.54847450  1
  H  280  1  0.47569800  0.83179750  0.53778950  1
  H  281  1  0.46256550  0.90506050  0.48528800  1
  H  282  1  0.45488850  0.81894100  0.60456250  1
  H  283  1  0.50429000  0.87127750  0.53889650  1
  H  284  1  0.47185950  0.89177450  0.59066400  1
  H  295  1  0.63839050  0.16010400  0.03189350  1
  H  304  1  0.69493800  0.20597700  0.11717100  1
  H  305  1  0.62168050  0.08021150  0.03077800  1
  H  306  1  0.70780800  0.28558150  0.10917450  1
  H  307  1  0.65546250  0.16760400  0.10628550  1
  H  308  1  0.63495650  0.19886500  0.05335750  1
  H  319  1  0.91510250  0.42024450  0.04847400  1
  H  328  1  0.85854800  0.44896950  0.03778050  1
  H  329  1  0.93181650  0.43583250  0.98529000  1
  H  330  1  0.84563700  0.42808900  0.10449400  1
  H  331  1  0.89802000  0.47755300  0.03888600  1
  H  332  1  0.91851000  0.44511900  0.09065700  1
  H  343  1  0.15496250  0.07974850  0.46812300  1
  H  352  1  0.11554500  0.05099900  0.38283500  1
  H  353  1  0.07618450  0.06416350  0.46923300  1
  H  354  1  0.20313250  0.07183900  0.39079050  1
  H  355  1  0.08806900  0.02242550  0.39373150  1
  H  356  1  0.17227400  0.05487250  0.44666250  1
  H  367  1  0.39850100  0.33987750  0.45152050  1
  H  376  1  0.43791150  0.29400550  0.46219800  1
  H  377  1  0.47727650  0.41977350  0.51470500  1
  H  378  1  0.35032150  0.21438200  0.39544350  1
  H  379  1  0.46539700  0.33238350  0.46109750  1
  H  380  1  0.38119350  0.30111000  0.40933350  1
  H  391  1  0.47826250  0.87177600  0.83988650  1
  H  400  1  0.48894100  0.91120600  0.79402900  1
  H  401  1  0.54146100  0.95054650  0.91978150  1
  H  402  1  0.42220350  0.82362900  0.71439050  1
  H  403  1  0.48784250  0.93867700  0.83240150  1
  H  404  1  0.43607950  0.85446700  0.80111450  1
  H  415  1  0.49484550  0.62821250  0.57974300  1
  H  424  1  0.40956450  0.58880900  0.55101750  1
  H  425  1  0.49596450  0.54943750  0.56415000  1
  H  426  1  0.41755500  0.67641000  0.57188500  1
  H  427  1  0.42045000  0.56131900  0.52243300  1
  H  428  1  0.47338400  0.64551750  0.55486150  1
  H  439  1  0.07521250  0.38837000  0.92025850  1
  H  448  1  0.06454050  0.33182950  0.94900800  1
  H  449  1  0.01203250  0.40508800  0.93585050  1
  H  450  1  0.13125200  0.31892250  0.92812350  1
  H  451  1  0.06563200  0.37129600  0.97757500  1
  H  452  1  0.11739100  0.39177850  0.94512550  1
  H  463  1  0.05863000  0.11165050  0.66011850  1
  H  472  1  0.14390750  0.16819800  0.70598950  1
  H  473  1  0.05751900  0.09494350  0.58022650  1
  H  474  1  0.13595100  0.18105750  0.78561750  1
  H  475  1  0.13302000  0.12871550  0.66761750  1
  H  476  1  0.08009000  0.10822250  0.69888550  1
  H  487  1  0.60649250  0.96810750  0.12821700  1
  H  496  1  0.57780450  0.88284250  0.08882100  1
  H  497  1  0.59091000  0.96922750  0.04944150  1
  H  498  1  0.59863600  0.89082750  0.17641550  1
  H  499  1  0.54919100  0.89371150  0.06132150  1
  H  500  1  0.58158700  0.94663000  0.14550500  1
  H  511  1  0.86662750  0.95154400  0.37178750  1
  H  520  1  0.82074600  0.96221200  0.41118900  1
  H  521  1  0.94651600  0.01472750  0.45056850  1
  H  522  1  0.74113650  0.89546550  0.32358400  1
  H  523  1  0.85912300  0.96111400  0.43867600  1
  H  524  1  0.82786100  0.90935350  0.35447750  1
  H  535  1  0.68683250  0.53186350  0.61161400  1
  H  544  1  0.73269600  0.61715100  0.66814900  1
  H  545  1  0.60694200  0.53075200  0.59490700  1
  H  546  1  0.81233650  0.60920400  0.68105050  1
  H  547  1  0.69433000  0.60625250  0.62867550  1
  H  548  1  0.72561150  0.55332500  0.60820450  1
  H  559  1  0.94700150  0.54848750  0.88837000  1
  H  568  1  0.97576050  0.53780250  0.83184200  1
  H  569  1  0.96258050  0.48529800  0.90508050  1
  H  570  1  0.95486800  0.60448550  0.81888250  1
  H  571  1  0.00433400  0.53891800  0.87132200  1
  H  572  1  0.97187150  0.59067200  0.89177150  1
  H  1159  1  0.16073400  0.09756950  0.06593750  1
  H  1163  1  0.07443500  0.08870600  0.00130900  1
  H  1165  1  0.15374100  0.08081500  0.09602600  1
  H  1172  1  0.39280400  0.93193900  0.46358200  1
  H  1176  1  0.47904750  0.95361300  0.54101150  1
  H  1178  1  0.39975800  0.96902300  0.45383900  1
  H  1185  1  0.49511500  0.40252500  0.03641600  1
  H  1189  1  0.43934750  0.41131650  0.95897500  1
  H  1191  1  0.54193600  0.41921950  0.04615450  1
  H  1198  1  0.05837700  0.56802900  0.43406100  1
  H  1202  1  0.11413450  0.54636750  0.49870100  1
  H  1204  1  0.01153350  0.53095050  0.40397400  1
  H  1211  1  0.09478000  0.93412500  0.03163100  1
  H  1215  1  0.07312650  0.99870550  0.08740200  1
  H  1217  1  0.05772450  0.90401250  0.98482400  1
  H  1224  1  0.92920450  0.53642900  0.46837050  1
  H  1228  1  0.93802450  0.45897550  0.41260100  1
  H  1230  1  0.94592050  0.54617350  0.51519700  1
  H  1237  1  0.45870050  0.96359650  0.36603100  1
  H  1241  1  0.48035150  0.04101100  0.45233450  1
  H  1243  1  0.49578250  0.95383750  0.37302600  1
  H  1250  1  0.62420200  0.56588250  0.13388350  1
  H  1254  1  0.61545500  0.50131700  0.04766300  1
  H  1256  1  0.60753250  0.59600300  0.12694550  1
  H  1263  1  0.06315500  0.96836200  0.90242300  1
  H  1267  1  0.98573950  0.91260150  0.91131400  1
  H  1269  1  0.07291400  0.01520400  0.91917800  1
  H  1276  1  0.46087750  0.53163150  0.06805600  1
  H  1280  1  0.52542000  0.58739950  0.04636550  1
  H  1282  1  0.43074950  0.48480500  0.03097150  1
  H  1289  1  0.09259850  0.63391200  0.59748850  1
  H  1293  1  0.02803050  0.54767350  0.58868100  1
  H  1295  1  0.12272750  0.62695800  0.58079650  1
  H  1302  1  0.49032850  0.86601550  0.43196200  1
  H  1306  1  0.56776050  0.95231750  0.45364100  1
  H  1308  1  0.48055900  0.87300250  0.46903750  1
  H  1315  1  0.66064950  0.06587400  0.09750350  1
  H  1319  1  0.57441100  0.00128100  0.08867800  1
  H  1321  1  0.65370600  0.09598750  0.08080950  1
  H  1328  1  0.89279650  0.46355900  0.93194550  1
  H  1332  1  0.97905000  0.54102600  0.95363200  1
  H  1334  1  0.89976700  0.45382000  0.96903000  1
  H  1341  1  0.99510500  0.03641400  0.40242800  1
  H  1345  1  0.93934150  0.95899800  0.41131650  1
  H  1347  1  0.04194550  0.04617200  0.41918050  1
  H  1354  1  0.55832250  0.43410850  0.56801000  1
  H  1358  1  0.61413600  0.49867500  0.54635200  1
  H  1360  1  0.51153350  0.40398800  0.53095450  1
  H  1367  1  0.59479250  0.03163350  0.93406300  1
  H  1371  1  0.57313100  0.08739550  0.99870450  1
  H  1373  1  0.55771100  0.98479150  0.90397550  1
  H  1380  1  0.42923400  0.46836500  0.53642200  1
  H  1384  1  0.43803200  0.41260000  0.45898200  1
  H  1386  1  0.44593450  0.51519250  0.54616400  1
  H  1393  1  0.95869100  0.36608900  0.96357600  1
  H  1397  1  0.98036800  0.45232000  0.04102300  1
  H  1399  1  0.99577450  0.37304500  0.95383950  1
  H  1406  1  0.12432700  0.13398700  0.56595000  1
  H  1410  1  0.11543650  0.04767950  0.50130800  1
  H  1412  1  0.10757100  0.12699950  0.59603850  1
  H  1419  1  0.56315450  0.90250400  0.96837250  1
  H  1423  1  0.48572050  0.91130050  0.91260100  1
  H  1425  1  0.57290600  0.91919650  0.01517950  1
  H  1432  1  0.96080600  0.06805700  0.53163500  1
  H  1436  1  0.02543300  0.04638950  0.58739850  1
  H  1438  1  0.93070250  0.03097600  0.48480750  1
  H  1445  1  0.59267250  0.59756100  0.63396550  1
  H  1449  1  0.52803050  0.58868700  0.54766650  1
  H  1451  1  0.62275750  0.58080450  0.62696900  1
  H  1458  1  0.99032550  0.43199350  0.86611400  1
  H  1462  1  0.06778650  0.45363750  0.95233900  1
  H  1464  1  0.98059650  0.46905300  0.87305350  1
  H  1783  1  0.17778200  0.05777800  0.32382800  1
  H  1787  1  0.14462100  0.09526400  0.26704800  1
  H  1789  1  0.17161600  0.08363150  0.36534650  1
  H  1796  1  0.37528950  0.17266950  0.40688300  1
  H  1800  1  0.40884150  0.14919900  0.47736150  1
  H  1802  1  0.38181150  0.22046000  0.43875150  1
  H  1809  1  0.79256550  0.44165500  0.09308550  1
  H  1813  1  0.69859600  0.40473500  0.02268900  1
  H  1815  1  0.80840800  0.41629300  0.06117900  1
  H  1822  1  0.76074700  0.32722300  0.17610200  1
  H  1826  1  0.85497900  0.35083600  0.23297300  1
  H  1828  1  0.74504700  0.27951650  0.13462050  1
  H  1835  1  0.85394700  0.67606850  0.73405150  1
  H  1839  1  0.87759400  0.73279200  0.82816000  1
  H  1841  1  0.80629750  0.63469400  0.71828950  1
  H  1848  1  0.96881250  0.59317700  0.76602050  1
  H  1852  1  0.93144800  0.52267600  0.67183200  1
  H  1854  1  0.94306450  0.56114450  0.78166100  1
  H  1861  1  0.69946100  0.90679500  0.34880200  1
  H  1865  1  0.67593600  0.97741450  0.38219950  1
  H  1867  1  0.74718400  0.93874900  0.35508000  1
  H  1874  1  0.58513350  0.82422850  0.15144000  1
  H  1878  1  0.62200350  0.76708250  0.11790600  1
  H  1880  1  0.61046550  0.86540700  0.14494650  1
  H  1887  1  0.11998800  0.26604250  0.94220750  1
  H  1891  1  0.04935650  0.17177900  0.90475050  1
  H  1893  1  0.08795050  0.28169650  0.91635300  1
  H  1900  1  0.20260100  0.23422650  0.82733450  1
  H  1904  1  0.25964400  0.32816350  0.85080950  1
  H  1906  1  0.16134950  0.21828800  0.77953950  1
  H  1913  1  0.35090750  0.65144400  0.55834550  1
  H  1917  1  0.29386950  0.61795650  0.59527100  1
  H  1919  1  0.39211450  0.64490050  0.58368700  1
  H  1926  1  0.43350650  0.84894050  0.67278800  1
  H  1930  1  0.50413200  0.88217150  0.64917450  1
  H  1932  1  0.46552100  0.85514400  0.72048700  1
  H  1939  1  0.67787000  0.32393850  0.05799250  1
  H  1943  1  0.64478350  0.26719200  0.09535150  1
  H  1945  1  0.67158050  0.36530700  0.08360950  1
  H  1952  1  0.87577650  0.40677450  0.17287000  1
  H  1956  1  0.90878650  0.47733750  0.14913300  1
  H  1958  1  0.88193400  0.43885050  0.22050650  1
  H  1965  1  0.29266650  0.09321650  0.44201300  1
  H  1969  1  0.19852750  0.02258200  0.40478050  1
  H  1971  1  0.30845400  0.06128150  0.41635150  1
  H  1978  1  0.26088650  0.17581750  0.32720300  1
  H  1982  1  0.35490750  0.23293700  0.35081150  1
  H  1984  1  0.24505200  0.13462800  0.27953900  1
  H  1991  1  0.35394000  0.73395500  0.67616500  1
  H  1995  1  0.37757050  0.82821900  0.73296950  1
  H  1997  1  0.30624850  0.71830100  0.63465450  1
  H  2004  1  0.46836650  0.76577050  0.59310900  1
  H  2008  1  0.43148000  0.67183550  0.52264650  1
  H  2010  1  0.44305550  0.78170900  0.56125250  1
  H  2017  1  0.19946450  0.34855400  0.90690050  1
  H  2021  1  0.17591350  0.38204100  0.97731250  1
  H  2023  1  0.24721550  0.35509800  0.93878450  1
  H  2030  1  0.08456700  0.15105550  0.82384450  1
  H  2034  1  0.12196500  0.11782850  0.76700450  1
  H  2036  1  0.11037900  0.14485250  0.86534050  1
  H  2043  1  0.61989250  0.94202150  0.26595000  1
  H  2047  1  0.54943050  0.90463550  0.17184200  1
  H  2049  1  0.58800550  0.91640650  0.28171200  1
  H  2056  1  0.70278750  0.82716300  0.23398350  1
  H  2060  1  0.75961650  0.85084800  0.32816850  1
  H  2062  1  0.66139950  0.77948950  0.21834100  1
  H  2069  1  0.85066450  0.55799400  0.65120050  1
  H  2073  1  0.79374250  0.59521450  0.61780200  1
  H  2075  1  0.89210900  0.58366800  0.64492100  1
  H  2082  1  0.93369850  0.67278750  0.84856400  1
  H  2086  1  0.00410100  0.64917300  0.88209200  1
  H  2088  1  0.96552200  0.72045700  0.85505600  1
  N  21  1  0.22227400  0.14320850  0.25743550  1
  N  22  1  0.15509650  0.07117400  0.24998250  1
  N  23  1  0.13664600  0.09090500  0.11748000  1
  N  24  1  0.10950500  0.00478350  0.10874450  1
  N  45  1  0.33122600  0.06195750  0.44770250  1
  N  46  1  0.39843450  0.12163100  0.44282550  1
  N  47  1  0.41682150  0.00756950  0.48101500  1
  N  48  1  0.44396900  0.02596650  0.42203450  1
  N  69  1  0.64094000  0.35679050  0.05226250  1
  N  70  1  0.70555650  0.42888150  0.05720500  1
  N  71  1  0.55330450  0.40910750  0.01897600  1
  N  72  1  0.63068550  0.49523200  0.07796750  1
  N  93  1  0.91256000  0.43807350  0.24257550  1
  N  94  1  0.84793450  0.37837700  0.24999750  1
  N  95  1  0.00016600  0.49239700  0.38252600  1
  N  96  1  0.92277900  0.47401800  0.39125600  1
  N  117  1  0.96485450  0.74255850  0.88574600  1
  N  118  1  0.90512000  0.75006350  0.82120650  1
  N  119  1  0.01917600  0.88251400  0.97344000  1
  N  120  1  0.00078850  0.89126650  0.89606400  1
  N  141  1  0.88353000  0.55230850  0.61425350  1
  N  142  1  0.95561200  0.55719400  0.67881800  1
  N  143  1  0.93582300  0.51899400  0.52656600  1
  N  144  1  0.02194900  0.57797100  0.60394800  1
  N  165  1  0.58868700  0.94773850  0.30453450  1
  N  166  1  0.64837050  0.94281350  0.37168100  1
  N  167  1  0.53433500  0.98102300  0.39013500  1
  N  168  1  0.55270550  0.92201950  0.41725500  1
  N  189  1  0.66996600  0.75743150  0.19549650  1
  N  190  1  0.59790700  0.74999450  0.12837050  1
  N  191  1  0.61762850  0.61747500  0.10986650  1
  N  192  1  0.53151200  0.60874950  0.08274950  1
  N  213  1  0.07900400  0.11420800  0.85677000  1
  N  214  1  0.08392600  0.17880750  0.92883650  1
  N  215  1  0.04572700  0.02656900  0.90909800  1
  N  216  1  0.10472900  0.10394900  0.99521700  1
  N  237  1  0.26928600  0.38575000  0.93805300  1
  N  238  1  0.27679950  0.32118750  0.87837400  1
  N  239  1  0.40926000  0.47343700  0.99242600  1
  N  240  1  0.41800350  0.39605300  0.97401150  1
  N  261  1  0.28417550  0.69548500  0.64321850  1
  N  262  1  0.27667800  0.62832450  0.57112550  1
  N  263  1  0.14420650  0.60989000  0.59090750  1
  N  264  1  0.13546400  0.58275300  0.50478400  1
  N  285  1  0.47442300  0.80448100  0.56195100  1
  N  286  1  0.46954750  0.87165950  0.62163700  1
  N  287  1  0.50773800  0.89009700  0.50758800  1
  N  288  1  0.44875100  0.91723450  0.52598250  1
  N  309  1  0.72225400  0.25744750  0.14320550  1
  N  310  1  0.65504150  0.24992750  0.07112800  1
  N  311  1  0.63664950  0.11748000  0.09091950  1
  N  312  1  0.60951600  0.10872950  0.00479150  1
  N  333  1  0.83121950  0.44768250  0.06192500  1
  N  334  1  0.89838950  0.44279350  0.12161800  1
  N  335  1  0.91683850  0.48099950  0.00757700  1
  N  336  1  0.94398650  0.42202300  0.02598550  1
  N  357  1  0.14096750  0.05226650  0.35678800  1
  N  358  1  0.20555550  0.05717950  0.42886200  1
  N  359  1  0.05331100  0.01898450  0.40910050  1
  N  360  1  0.13068600  0.07797900  0.49522400  1
  N  381  1  0.41247350  0.24252950  0.43804000  1
  N  382  1  0.34790400  0.25003000  0.37836500  1
  N  383  1  0.50015100  0.38251100  0.49240200  1
  N  384  1  0.42276750  0.39125000  0.47401250  1
  N  405  1  0.46479000  0.88579000  0.74256000  1
  N  406  1  0.40511100  0.82119000  0.75002700  1
  N  407  1  0.51916050  0.97342900  0.88252750  1
  N  408  1  0.50076000  0.89604100  0.89125900  1
  N  429  1  0.38353350  0.61424850  0.55230300  1
  N  430  1  0.45560950  0.67881200  0.55718750  1
  N  431  1  0.43581950  0.52656050  0.51898600  1
  N  432  1  0.52194650  0.60393750  0.57796700  1
  N  453  1  0.08869150  0.30451150  0.94773200  1
  N  454  1  0.14835550  0.37167350  0.94279900  1
  N  455  1  0.03432000  0.39010750  0.98101750  1
  N  456  1  0.05271650  0.41725000  0.92203450  1
  N  477  1  0.16994700  0.19551700  0.75746800  1
  N  478  1  0.09789200  0.12833750  0.74997450  1
  N  479  1  0.11764950  0.10989750  0.61748900  1
  N  480  1  0.03152600  0.08277650  0.60874050  1
  N  501  1  0.57910600  0.85681600  0.11425700  1
  N  502  1  0.58390800  0.92885900  0.17879500  1
  N  503  1  0.54574250  0.90907850  0.02656500  1
  N  504  1  0.60471400  0.99520900  0.10394600  1
  N  525  1  0.76927250  0.93805600  0.38574650  1
  N  526  1  0.77679200  0.87838050  0.32118350  1
  N  527  1  0.90925300  0.99242500  0.47343700  1
  N  528  1  0.91800400  0.97404400  0.39606300  1
  N  549  1  0.78415650  0.64320400  0.69546650  1
  N  550  1  0.77669550  0.57113200  0.62832150  1
  N  551  1  0.64420400  0.59088450  0.60986350  1
  N  552  1  0.63545600  0.50476150  0.58273950  1
  N  573  1  0.97447750  0.56193300  0.80450650  1
  N  574  1  0.96954350  0.62162050  0.87163300  1
  N  575  1  0.00777100  0.50760500  0.89013800  1
  N  576  1  0.94876300  0.52598550  0.91724350  1
  N  1154  1  0.13146300  0.10064600  0.04169900  1
  N  1157  1  0.11032550  0.09705300  0.07264250  1
  N  1161  1  0.05583350  0.09756350  0.04375000  1
  N  1167  1  0.42204750  0.93699600  0.49596650  1
  N  1170  1  0.44314400  0.98907550  0.51351150  1
  N  1174  1  0.49761100  0.01468300  0.56855200  1
  N  1180  1  0.46777800  0.39936550  0.00402250  1
  N  1183  1  0.50231150  0.40291700  0.98647750  1
  N  1187  1  0.47288900  0.40236250  0.93144650  1
  N  1193  1  0.08568650  0.56299850  0.45830800  1
  N  1196  1  0.05114450  0.51091350  0.42736400  1
  N  1200  1  0.08055100  0.48531850  0.45626550  1
  N  1206  1  0.08973150  0.95831550  0.05896200  1
  N  1209  1  0.03765400  0.92733550  0.02444350  1
  N  1213  1  0.01205500  0.95620900  0.05387600  1
  N  1219  1  0.92608150  0.50405650  0.44104200  1
  N  1222  1  0.92965500  0.48651050  0.47557350  1
  N  1226  1  0.92912550  0.43149750  0.44616500  1
  N  1232  1  0.46372700  0.99593750  0.39530650  1
  N  1235  1  0.51580950  0.01348150  0.41645500  1
  N  1239  1  0.54139850  0.06848800  0.47094050  1
  N  1245  1  0.62735250  0.54168600  0.10465250  1
  N  1248  1  0.62381500  0.57266400  0.08353700  1
  N  1252  1  0.62444700  0.54381500  0.02910400  1
  N  1258  1  0.03081400  0.94104900  0.89935900  1
  N  1261  1  0.01326800  0.97558550  0.90295750  1
  N  1265  1  0.95827700  0.94618400  0.90246600  1
  N  1271  1  0.48505100  0.55896550  0.06299350  1
  N  1274  1  0.45406550  0.52443250  0.01091800  1
  N  1278  1  0.48290300  0.55387100  0.98530200  1
  N  1284  1  0.06841650  0.60467500  0.60064150  1
  N  1287  1  0.09939700  0.58357650  0.59708850  1
  N  1291  1  0.07052200  0.52909550  0.59763250  1
  N  1297  1  0.52267400  0.89529350  0.43699950  1
  N  1300  1  0.54021200  0.91642650  0.48908350  1
  N  1304  1  0.59521950  0.97092100  0.51468850  1
  N  1310  1  0.63140700  0.04167800  0.10063700  1
  N  1313  1  0.61030650  0.07265500  0.09709550  1
  N  1317  1  0.55582900  0.04377350  0.09764550  1
  N  1323  1  0.92203450  0.49594550  0.93699500  1
  N  1326  1  0.94314500  0.51349200  0.98907000  1
  N  1330  1  0.99761500  0.56851850  0.01467750  1
  N  1336  1  0.96779150  0.00407450  0.39936300  1
  N  1339  1  0.00232800  0.98652850  0.40296350  1
  N  1343  1  0.97291100  0.93152200  0.40244400  1
  N  1349  1  0.58566600  0.45830500  0.56297300  1
  N  1352  1  0.55115000  0.42732750  0.51088150  1
  N  1356  1  0.58062700  0.45617650  0.48529450  1
  N  1362  1  0.58976200  0.05894650  0.95830650  1
  N  1365  1  0.53768000  0.02441000  0.92736600  1
  N  1369  1  0.51208600  0.05381350  0.95626850  1
  N  1375  1  0.42608400  0.44103450  0.50403350  1
  N  1378  1  0.42963700  0.47556700  0.48648900  1
  N  1382  1  0.42905100  0.44612950  0.43144350  1
  N  1388  1  0.96374850  0.39532350  0.99597200  1
  N  1391  1  0.01582700  0.41641700  0.01351800  1
  N  1395  1  0.04143600  0.47089150  0.06855050  1
  N  1401  1  0.12738650  0.10470700  0.54170250  1
  N  1404  1  0.12378650  0.08356700  0.57264650  1
  N  1408  1  0.12428650  0.02906800  0.54374550  1
  N  1414  1  0.53077150  0.89935800  0.94104150  1
  N  1417  1  0.51321350  0.90289350  0.97556000  1
  N  1421  1  0.45817500  0.90232400  0.94612500  1
  N  1427  1  0.98503400  0.06302350  0.55895750  1
  N  1430  1  0.95409000  0.01094300  0.52442500  1
  N  1434  1  0.98299350  0.98534850  0.55382600  1
  N  1440  1  0.56842850  0.60063250  0.60469300  1
  N  1443  1  0.59936500  0.59703150  0.58354650  1
  N  1447  1  0.57047500  0.59756400  0.52906600  1
  N  1453  1  0.02270200  0.43702500  0.89534700  1
  N  1456  1  0.04028200  0.48911800  0.91647000  1
  N  1460  1  0.09533950  0.51469600  0.97090750  1
  N  1778  1  0.16044850  0.06446650  0.29418800  1
  N  1781  1  0.12946500  0.07087750  0.31422750  1
  N  1785  1  0.09369850  0.08608000  0.27623050  1
  N  1791  1  0.39288150  0.16044050  0.43082400  1
  N  1794  1  0.42412900  0.21149450  0.46804650  1
  N  1798  1  0.46032200  0.20930050  0.51885150  1
  N  1804  1  0.75638450  0.43532650  0.06918600  1
  N  1807  1  0.77016800  0.42934700  0.03192700  1
  N  1811  1  0.71711300  0.41464000  0.98112400  1
  N  1817  1  0.79706000  0.33953200  0.20577100  1
  N  1820  1  0.78339900  0.28849400  0.18577500  1
  N  1824  1  0.83655850  0.29072700  0.22387050  1
  N  1830  1  0.86623250  0.70577200  0.77031050  1
  N  1833  1  0.81521550  0.68585550  0.75662900  1
  N  1837  1  0.81750550  0.72397800  0.80983150  1
  N  1843  1  0.96227100  0.56922350  0.72974450  1
  N  1846  1  0.95591650  0.53183050  0.74334900  1
  N  1850  1  0.94078800  0.48091800  0.69014900  1
  N  1856  1  0.68718100  0.93079350  0.36622750  1
  N  1859  1  0.73822600  0.96812250  0.39730450  1
  N  1863  1  0.73603250  0.01901150  0.43331000  1
  N  1869  1  0.59147800  0.79437600  0.13389900  1
  N  1872  1  0.59744800  0.81410650  0.10257750  1
  N  1876  1  0.61203100  0.77564750  0.06641850  1
  N  1882  1  0.09597400  0.22971600  0.93553100  1
  N  1885  1  0.05857700  0.24333900  0.92912400  1
  N  1889  1  0.00761600  0.19013900  0.91393500  1
  N  1895  1  0.23242950  0.27039350  0.83956800  1
  N  1898  1  0.21264400  0.25654900  0.78850600  1
  N  1902  1  0.25105600  0.30954300  0.79070700  1
  N  1908  1  0.32105850  0.63386750  0.56467600  1
  N  1911  1  0.34082600  0.60258750  0.57064450  1
  N  1915  1  0.30248350  0.56648250  0.58535000  1
  N  1921  1  0.45751550  0.86629400  0.66048150  1
  N  1924  1  0.49489900  0.89732000  0.71151900  1
  N  1928  1  0.54583700  0.93316300  0.70928900  1
  N  1934  1  0.66044800  0.29422650  0.06453650  1
  N  1937  1  0.62934300  0.31413600  0.07077100  1
  N  1941  1  0.59350700  0.27600200  0.08583900  1
  N  1947  1  0.89309650  0.43075500  0.16052350  1
  N  1950  1  0.92404250  0.46821150  0.21151400  1
  N  1954  1  0.95969200  0.51917650  0.20921250  1
  N  1960  1  0.25638900  0.06921000  0.43543500  1
  N  1963  1  0.27011550  0.03188900  0.42918850  1
  N  1967  1  0.21703600  0.98099000  0.41430100  1
  N  1973  1  0.29708700  0.20566300  0.33951200  1
  N  1976  1  0.28333000  0.18591750  0.28846050  1
  N  1980  1  0.33637900  0.22435600  0.29075600  1
  N  1986  1  0.36625250  0.77028100  0.70581350  1
  N  1989  1  0.31523150  0.75665850  0.68578200  1
  N  1993  1  0.31746900  0.80985650  0.72379050  1
  N  1999  1  0.46203100  0.72960450  0.56917550  1
  N  2002  1  0.45609200  0.74345000  0.53195900  1
  N  2006  1  0.44151550  0.69045850  0.48116700  1
  N  2012  1  0.18719150  0.36613000  0.93080750  1
  N  2015  1  0.23823850  0.39740900  0.96805450  1
  N  2019  1  0.23600150  0.43351450  0.01886600  1
  N  2025  1  0.09122450  0.13370300  0.79418550  1
  N  2028  1  0.09758250  0.10267800  0.81419750  1
  N  2032  1  0.11267900  0.06683700  0.77612500  1
  N  2038  1  0.59591650  0.93546450  0.22969100  1
  N  2041  1  0.55858100  0.92922850  0.24337250  1
  N  2045  1  0.50766750  0.91414650  0.19017000  1
  N  2051  1  0.73252250  0.83948350  0.27025700  1
  N  2054  1  0.71256400  0.78848550  0.25665150  1
  N  2058  1  0.75063900  0.79077250  0.30984850  1
  N  2064  1  0.82095900  0.56456600  0.63377400  1
  N  2067  1  0.84092700  0.57081700  0.60269700  1
  N  2071  1  0.80272600  0.58569800  0.56668900  1
  N  2077  1  0.95758300  0.66047400  0.86610300  1
  N  2080  1  0.99487450  0.71152450  0.89742300  1
  N  2084  1  0.04561800  0.70922500  0.93358100  1
  O  8  1  0.11104600  0.03684150  0.08631950  1
  O  15  1  0.19968400  0.11893650  0.28011550  1
  O  32  1  0.44243650  0.00201850  0.45256500  1
  O  39  1  0.35383200  0.10720450  0.44598950  1
  O  56  1  0.57620800  0.46317500  0.04743300  1
  O  63  1  0.68793700  0.38110900  0.05403600  1
  O  80  1  0.97725850  0.49796700  0.41368250  1
  O  87  1  0.86558050  0.39284500  0.21988250  1
  O  104  1  0.02473400  0.91368200  0.95054200  1
  O  111  1  0.91959350  0.71989300  0.83879150  1
  O  128  1  0.98988650  0.54744700  0.54946550  1
  O  135  1  0.90784900  0.55403800  0.66121900  1
  O  152  1  0.52876250  0.95255350  0.41572600  1
  O  159  1  0.63392700  0.94599450  0.32709850  1
  O  176  1  0.56356500  0.58631950  0.08427750  1
  O  183  1  0.64567250  0.78011950  0.17296200  1
  O  200  1  0.07419700  0.04947150  0.96315950  1
  O  207  1  0.08073600  0.16117550  0.88107050  1
  O  224  1  0.44042550  0.45053600  0.99797050  1
  O  231  1  0.24663300  0.33878000  0.89282100  1
  O  248  1  0.11304350  0.58428150  0.53684200  1
  O  255  1  0.30683700  0.67292600  0.61889700  1
  O  272  1  0.47927700  0.91569800  0.50202600  1
  O  279  1  0.47272600  0.82708100  0.60720000  1
  O  296  1  0.61104300  0.08631200  0.03685300  1
  O  303  1  0.69967650  0.28009950  0.11888600  1
  O  320  1  0.94245200  0.45254700  0.00202700  1
  O  327  1  0.85377950  0.44593450  0.10714900  1
  O  344  1  0.07620950  0.04745100  0.46316150  1
  O  351  1  0.18794050  0.05400000  0.38109950  1
  O  368  1  0.47725050  0.41367300  0.49796650  1
  O  375  1  0.36551850  0.21988050  0.39280100  1
  O  392  1  0.52472400  0.95052400  0.91368600  1
  O  399  1  0.41955300  0.83882100  0.71989200  1
  O  416  1  0.48988400  0.54946000  0.54743500  1
  O  423  1  0.40785050  0.66121850  0.55404200  1
  O  440  1  0.02876900  0.41572200  0.95256400  1
  O  447  1  0.13391200  0.32707150  0.94597050  1
  O  464  1  0.06358900  0.08430250  0.58632550  1
  O  471  1  0.14564750  0.17291550  0.78011600  1
  O  488  1  0.57419550  0.96314550  0.04946300  1
  O  495  1  0.58079800  0.88110450  0.16121150  1
  O  512  1  0.94041700  0.99798900  0.45054100  1
  O  519  1  0.74662650  0.89282150  0.33878100  1
  O  536  1  0.61304000  0.53682350  0.58426650  1
  O  543  1  0.80683400  0.61889600  0.67290300  1
  O  560  1  0.97929400  0.50203700  0.91572300  1
  O  567  1  0.97271550  0.60715250  0.82704000  1
