# generated using pymatgen
data_H11C20(N3O)2
_symmetry_space_group_name_H-M   'P 1'
_cell_length_a   52.20520000
_cell_length_b   60.77660000
_cell_length_c   69.46880000
_cell_angle_alpha   90.00370000
_cell_angle_beta   90.43300000
_cell_angle_gamma   89.50500000
_symmetry_Int_Tables_number   1
_chemical_formula_structural   H11C20(N3O)2
_chemical_formula_sum   'H1408 C2560 N768 O256'
_cell_volume   220399.87911533
_cell_formula_units_Z   128
loop_
 _symmetry_equiv_pos_site_id
 _symmetry_equiv_pos_as_xyz
  1  'x, y, z'
loop_
 _atom_site_type_symbol
 _atom_site_label
 _atom_site_symmetry_multiplicity
 _atom_site_fract_x
 _atom_site_fract_y
 _atom_site_fract_z
 _atom_site_occupancy
  H  7  1  0.90544800  0.88059700  0.88952300  1
  H  16  1  0.90823400  0.86200500  0.83460000  1
  H  19  1  0.86119000  0.87492800  0.83022100  1
  H  20  1  0.83882200  0.85647100  0.83401300  1
  H  21  1  0.89971400  0.93670700  0.87596500  1
  H  22  1  0.87918100  0.91642500  0.87795200  1
  H  23  1  0.97041600  0.93169700  0.82954800  1
  H  24  1  0.97210300  0.91044100  0.81515500  1
  H  25  1  0.82311600  0.82982000  0.89963400  1
  H  26  1  0.84238700  0.83731800  0.91718400  1
  H  37  1  0.09419400  0.15587300  0.89044200  1
  H  46  1  0.08895800  0.17558800  0.83642300  1
  H  49  1  0.13694500  0.16320500  0.83122600  1
  H  50  1  0.15914800  0.18182100  0.83520500  1
  H  51  1  0.10537800  0.09913800  0.87354600  1
  H  52  1  0.12273000  0.12101800  0.87756300  1
  H  53  1  0.03849900  0.10016700  0.82357300  1
  H  54  1  0.03444400  0.12234700  0.81049200  1
  H  55  1  0.17536900  0.20820100  0.90111700  1
  H  56  1  0.15651900  0.20027500  0.91855800  1
  H  67  1  0.90825600  0.15737300  0.60356800  1
  H  76  1  0.90769800  0.17497500  0.65938900  1
  H  79  1  0.86150300  0.16099300  0.66149200  1
  H  80  1  0.83892500  0.17955900  0.65743500  1
  H  81  1  0.90396900  0.10112400  0.61652700  1
  H  82  1  0.88327300  0.12147100  0.61366900  1
  H  83  1  0.96952800  0.10440300  0.66768800  1
  H  84  1  0.97022700  0.12577700  0.68209600  1
  H  85  1  0.82581700  0.20926300  0.59235200  1
  H  86  1  0.84558000  0.20204500  0.57512000  1
  H  97  1  0.08931900  0.87634800  0.60506100  1
  H  106  1  0.09138200  0.85879500  0.66067100  1
  H  109  1  0.13781000  0.87287500  0.66275900  1
  H  110  1  0.16049900  0.85455600  0.65847900  1
  H  111  1  0.09347400  0.93250300  0.61750700  1
  H  112  1  0.11403600  0.91218600  0.61443800  1
  H  113  1  0.03417900  0.93156200  0.67199000  1
  H  114  1  0.03313800  0.90988300  0.68602000  1
  H  115  1  0.17233600  0.82559700  0.59319500  1
  H  116  1  0.15197600  0.83264400  0.57608600  1
  H  127  1  0.09558100  0.15628700  0.10392000  1
  H  136  1  0.09117800  0.17517600  0.15906100  1
  H  139  1  0.13776000  0.16224800  0.16410500  1
  H  140  1  0.16055700  0.18037400  0.16058700  1
  H  141  1  0.10016000  0.10051000  0.11768600  1
  H  142  1  0.12076900  0.12075100  0.11586000  1
  H  143  1  0.02947500  0.10512700  0.16403200  1
  H  144  1  0.02751000  0.12642500  0.17836200  1
  H  145  1  0.17959300  0.20528000  0.09510800  1
  H  146  1  0.16037100  0.19847500  0.07729400  1
  H  157  1  0.90542100  0.87953000  0.10286000  1
  H  166  1  0.91061400  0.86109200  0.15750600  1
  H  169  1  0.86342000  0.87402900  0.16265100  1
  H  170  1  0.84091400  0.85557900  0.15913100  1
  H  171  1  0.90046400  0.93472000  0.11490600  1
  H  172  1  0.88011500  0.91439500  0.11351500  1
  H  173  1  0.96336100  0.93555000  0.16889600  1
  H  174  1  0.96705300  0.91347600  0.18211500  1
  H  175  1  0.82222400  0.82929300  0.09380500  1
  H  176  1  0.84127200  0.83605100  0.07608500  1
  H  187  1  0.09212900  0.87730900  0.39095000  1
  H  196  1  0.09106400  0.85928300  0.33497200  1
  H  199  1  0.13684700  0.87336500  0.33210300  1
  H  200  1  0.15992800  0.85521100  0.33595000  1
  H  201  1  0.09537400  0.93328600  0.37761100  1
  H  202  1  0.11620400  0.91301200  0.38029200  1
  H  203  1  0.02890100  0.92970600  0.32715800  1
  H  204  1  0.02803500  0.90830800  0.31278600  1
  H  205  1  0.17649100  0.82748700  0.40113600  1
  H  206  1  0.15672900  0.83398700  0.41858800  1
  H  217  1  0.90899600  0.15766900  0.38936400  1
  H  226  1  0.90906500  0.17617300  0.33363500  1
  H  229  1  0.86305400  0.16218500  0.33051200  1
  H  230  1  0.84010700  0.18033400  0.33451900  1
  H  231  1  0.90589200  0.10200000  0.37612300  1
  H  232  1  0.88525400  0.12227800  0.37907400  1
  H  233  1  0.96635500  0.10345600  0.32239900  1
  H  234  1  0.96768400  0.12526000  0.30853500  1
  H  235  1  0.82468200  0.20723000  0.39985100  1
  H  236  1  0.84470800  0.20054600  0.41730100  1
  H  247  1  0.40785400  0.37726000  0.88976600  1
  H  256  1  0.40905400  0.36124900  0.83448500  1
  H  259  1  0.36159100  0.37553500  0.83119300  1
  H  260  1  0.33886800  0.35729700  0.83458900  1
  H  261  1  0.40187400  0.43427900  0.87820100  1
  H  262  1  0.38145600  0.41387800  0.87998900  1
  H  263  1  0.47071600  0.43140400  0.83012600  1
  H  264  1  0.47215000  0.41058600  0.81523100  1
  H  265  1  0.32546800  0.32630200  0.89924700  1
  H  266  1  0.34546000  0.33266400  0.91668600  1
  H  277  1  0.59324100  0.65851300  0.89094000  1
  H  286  1  0.59072200  0.67421300  0.83607900  1
  H  289  1  0.63878300  0.65995900  0.83253000  1
  H  290  1  0.66118000  0.67857500  0.83579700  1
  H  291  1  0.59923800  0.60229300  0.88097900  1
  H  292  1  0.61946000  0.62273300  0.88224500  1
  H  293  1  0.53801100  0.59950000  0.82583600  1
  H  294  1  0.53478400  0.62114100  0.81201500  1
  H  295  1  0.67474000  0.71082500  0.90011400  1
  H  296  1  0.65504500  0.70448000  0.91753400  1
  H  307  1  0.41108900  0.66083000  0.60346700  1
  H  316  1  0.40920700  0.67596100  0.65951700  1
  H  319  1  0.36286700  0.66053300  0.66069100  1
  H  320  1  0.33974200  0.67870400  0.65702900  1
  H  321  1  0.40678400  0.60362400  0.61465900  1
  H  322  1  0.38613100  0.62405300  0.61204100  1
  H  323  1  0.47144800  0.60546600  0.66660100  1
  H  324  1  0.47183600  0.62640500  0.68149400  1
  H  325  1  0.32776600  0.71191000  0.59294700  1
  H  326  1  0.34821500  0.70594400  0.57581800  1
  H  337  1  0.58980700  0.37589200  0.60485800  1
  H  346  1  0.59221600  0.36007700  0.66078600  1
  H  349  1  0.63872300  0.37542800  0.66237600  1
  H  350  1  0.66165600  0.35716500  0.65867300  1
  H  351  1  0.59366400  0.43267700  0.61620300  1
  H  352  1  0.61414300  0.41224500  0.61333800  1
  H  353  1  0.53468200  0.43287700  0.67097400  1
  H  354  1  0.53382500  0.41151200  0.68537800  1
  H  355  1  0.67286500  0.32472200  0.59439900  1
  H  356  1  0.65224700  0.33090100  0.57721400  1
  H  367  1  0.59553300  0.65663900  0.10394000  1
  H  376  1  0.59204000  0.67381100  0.15928300  1
  H  379  1  0.63895900  0.65952200  0.16371900  1
  H  380  1  0.66188600  0.67763800  0.16065300  1
  H  381  1  0.60034100  0.60012000  0.11655000  1
  H  382  1  0.62085400  0.62046400  0.11487900  1
  H  383  1  0.52968600  0.60411800  0.16311200  1
  H  384  1  0.52800100  0.62507200  0.17784300  1
  H  385  1  0.67903300  0.70655800  0.09592900  1
  H  386  1  0.65935200  0.70062300  0.07816900  1
  H  397  1  0.40660300  0.37846300  0.10272800  1
  H  406  1  0.41276600  0.36028800  0.15726300  1
  H  409  1  0.36490200  0.37415700  0.16261400  1
  H  410  1  0.34213600  0.35585600  0.15945800  1
  H  411  1  0.39642200  0.43577900  0.11868800  1
  H  412  1  0.37915000  0.41377300  0.11504100  1
  H  413  1  0.46333700  0.43592100  0.16874900  1
  H  414  1  0.46744100  0.41401600  0.18216800  1
  H  415  1  0.32437100  0.32677100  0.09458000  1
  H  416  1  0.34357100  0.33313800  0.07685500  1
  H  427  1  0.59241300  0.37688800  0.39111300  1
  H  436  1  0.59238500  0.36079200  0.33490400  1
  H  439  1  0.63831300  0.37618600  0.33279600  1
  H  440  1  0.66159200  0.35811000  0.33618900  1
  H  441  1  0.59565100  0.43359900  0.37913000  1
  H  442  1  0.61635800  0.41320700  0.38169900  1
  H  443  1  0.53030900  0.43136400  0.32771500  1
  H  444  1  0.52968100  0.41028700  0.31297300  1
  H  445  1  0.67676500  0.32677300  0.40046500  1
  H  446  1  0.65656400  0.33233100  0.41786300  1
  H  457  1  0.41165800  0.66119700  0.38969800  1
  H  466  1  0.41015100  0.67700000  0.33363300  1
  H  469  1  0.36404500  0.66123800  0.33157600  1
  H  470  1  0.34056900  0.67902000  0.33510200  1
  H  471  1  0.40881900  0.60447800  0.37832400  1
  H  472  1  0.38818500  0.62481500  0.38106900  1
  H  473  1  0.46817100  0.60442200  0.32378100  1
  H  474  1  0.46899900  0.62576200  0.30935000  1
  H  475  1  0.32660800  0.71008400  0.39944700  1
  H  476  1  0.34742200  0.70485000  0.41673800  1
  H  487  1  0.86792800  0.88810100  0.04811400  1
  H  492  1  0.92480300  0.83973800  0.03847400  1
  H  497  1  0.85904500  0.90036300  0.95208500  1
  H  498  1  0.91561200  0.85079800  0.94705500  1
  H  503  1  0.91620100  0.85786600  0.07224400  1
  H  504  1  0.88447500  0.89333000  0.92096100  1
  H  511  1  0.13117900  0.14683200  0.04926300  1
  H  516  1  0.07685500  0.19744800  0.03955400  1
  H  521  1  0.13914700  0.13538300  0.95322100  1
  H  522  1  0.08516900  0.18709900  0.94809600  1
  H  527  1  0.08486200  0.17883600  0.07330500  1
  H  528  1  0.11443300  0.14368600  0.92195400  1
  H  535  1  0.87171200  0.14806300  0.44448800  1
  H  540  1  0.92857900  0.19562900  0.45461200  1
  H  545  1  0.86142800  0.13755000  0.54046600  1
  H  546  1  0.91809700  0.18621100  0.54598800  1
  H  551  1  0.92007500  0.17687000  0.42073000  1
  H  552  1  0.88589900  0.14456100  0.57188700  1
  H  559  1  0.12715300  0.88659200  0.44631400  1
  H  564  1  0.07308000  0.83646300  0.45492600  1
  H  569  1  0.13356500  0.89787400  0.54252300  1
  H  570  1  0.07996400  0.84660400  0.54652000  1
  H  575  1  0.08131100  0.85539100  0.42135400  1
  H  576  1  0.10879200  0.88954200  0.57336100  1
  H  583  1  0.37078100  0.38584400  0.04818900  1
  H  588  1  0.42561300  0.33565100  0.03903200  1
  H  593  1  0.36225400  0.39716300  0.95212400  1
  H  594  1  0.41678500  0.34590400  0.94741900  1
  H  599  1  0.41776000  0.35465700  0.07267400  1
  H  600  1  0.38666600  0.38933800  0.92122100  1
  H  607  1  0.63361600  0.64964600  0.04936800  1
  H  612  1  0.57527400  0.69689400  0.03980800  1
  H  617  1  0.64341500  0.63986800  0.95335600  1
  H  618  1  0.58514000  0.68803700  0.94828200  1
  H  623  1  0.58443900  0.67817000  0.07343600  1
  H  624  1  0.61968000  0.64674500  0.92219900  1
  H  631  1  0.37557000  0.65193900  0.44438700  1
  H  636  1  0.43014300  0.70141400  0.45459900  1
  H  641  1  0.36527600  0.64105300  0.54027000  1
  H  642  1  0.41967200  0.69155200  0.54603700  1
  H  647  1  0.42272300  0.68167400  0.42064800  1
  H  648  1  0.38863100  0.64862500  0.57163200  1
  H  655  1  0.63060200  0.38391400  0.44631200  1
  H  660  1  0.57202600  0.33773300  0.45514200  1
  H  665  1  0.63883300  0.39479400  0.54243200  1
  H  666  1  0.58049900  0.34753400  0.54675500  1
  H  671  1  0.58153500  0.35624400  0.42158500  1
  H  672  1  0.61404500  0.38854700  0.57324400  1
  H  679  1  0.98117900  0.95771500  0.87055300  1
  H  684  1  0.93404200  0.00065300  0.83821900  1
  H  689  1  0.06361000  0.04208000  0.88149600  1
  H  690  1  0.01240000  0.08066600  0.84850500  1
  H  695  1  0.92771300  0.96042900  0.83667200  1
  H  696  1  0.06498300  0.08532000  0.88044700  1
  H  703  1  0.98668100  0.08044400  0.63004200  1
  H  708  1  0.93106300  0.03575000  0.64899800  1
  H  713  1  0.07070100  0.99568800  0.62940600  1
  H  714  1  0.01024900  0.95520900  0.64719900  1
  H  719  1  0.92624300  0.07611800  0.65479500  1
  H  720  1  0.07768300  0.95970400  0.64917200  1
  H  727  1  0.01622700  0.08119700  0.12520900  1
  H  732  1  0.06681200  0.03567200  0.15127400  1
  H  737  1  0.92966700  0.99984800  0.11935100  1
  H  738  1  0.98495700  0.95781200  0.14451900  1
  H  743  1  0.07243400  0.07619300  0.15562900  1
  H  744  1  0.91633000  0.96419700  0.13223100  1
  H  751  1  0.01212500  0.95393600  0.36400000  1
  H  756  1  0.06830700  0.99844600  0.34565600  1
  H  761  1  0.92865000  0.03908400  0.36426500  1
  H  762  1  0.98963900  0.07935000  0.34713500  1
  H  767  1  0.07261100  0.95801100  0.33948900  1
  H  768  1  0.92222900  0.07520200  0.34455100  1
  H  775  1  0.48458800  0.45465500  0.86972000  1
  H  780  1  0.43395400  0.50031600  0.84389800  1
  H  785  1  0.57108800  0.53602700  0.87599500  1
  H  786  1  0.51586000  0.57819100  0.85090600  1
  H  791  1  0.42801800  0.45993600  0.83957200  1
  H  792  1  0.58436000  0.57202800  0.86428400  1
  H  799  1  0.48878800  0.58185200  0.62920300  1
  H  804  1  0.43238100  0.53730400  0.64707500  1
  H  809  1  0.57211400  0.49659700  0.62888500  1
  H  810  1  0.51095900  0.45630700  0.64562400  1
  H  815  1  0.42792500  0.57762300  0.65329900  1
  H  816  1  0.57842700  0.46046200  0.64842400  1
  H  823  1  0.51918900  0.57834900  0.12224200  1
  H  828  1  0.56700600  0.53542900  0.15403300  1
  H  833  1  0.43742400  0.49354900  0.11115300  1
  H  834  1  0.48930800  0.45497900  0.14356400  1
  H  839  1  0.57284100  0.57569900  0.15592100  1
  H  840  1  0.43631500  0.45032700  0.11197900  1
  H  847  1  0.51332100  0.45518900  0.36505000  1
  H  852  1  0.56984000  0.49959800  0.34710700  1
  H  857  1  0.43034600  0.54067100  0.36566200  1
  H  858  1  0.49161800  0.58082500  0.34890100  1
  H  863  1  0.57410200  0.45925800  0.34082400  1
  H  864  1  0.42421200  0.57681300  0.34602900  1
  H  871  1  0.72169500  0.70840300  0.87058600  1
  H  876  1  0.67993600  0.76229900  0.84837200  1
  H  881  1  0.82604100  0.77244200  0.87140900  1
  H  882  1  0.78028900  0.82424700  0.84978900  1
  H  887  1  0.65778900  0.73053000  0.86340300  1
  H  888  1  0.84543300  0.80699800  0.86627600  1
  H  895  1  0.27850800  0.32835200  0.87096800  1
  H  900  1  0.31840500  0.27452200  0.84726200  1
  H  905  1  0.17363500  0.26500900  0.87341100  1
  H  906  1  0.21755700  0.21326100  0.85015400  1
  H  911  1  0.34160000  0.30582000  0.86277800  1
  H  912  1  0.15336500  0.23077800  0.86756200  1
  H  919  1  0.72053100  0.32787800  0.62383800  1
  H  924  1  0.68131400  0.27361900  0.64653900  1
  H  929  1  0.82656200  0.26442900  0.62172300  1
  H  930  1  0.78288300  0.21252600  0.64396700  1
  H  935  1  0.65753600  0.30528500  0.63232700  1
  H  936  1  0.84727400  0.23000600  0.62847300  1
  H  943  1  0.28035100  0.70817800  0.62149300  1
  H  948  1  0.31891400  0.76164200  0.64661900  1
  H  953  1  0.17342700  0.77055600  0.62074600  1
  H  954  1  0.21637500  0.82179900  0.64536500  1
  H  959  1  0.34302600  0.73081000  0.63139000  1
  H  960  1  0.15209000  0.80422500  0.62915100  1
  H  967  1  0.27959000  0.32766700  0.12368000  1
  H  972  1  0.32091600  0.27382000  0.14642500  1
  H  977  1  0.17495500  0.26405000  0.12274400  1
  H  978  1  0.22023000  0.21226600  0.14496800  1
  H  983  1  0.34310600  0.30529800  0.13044300  1
  H  984  1  0.15551900  0.22953800  0.12746500  1
  H  991  1  0.72374600  0.70637300  0.12552800  1
  H  996  1  0.68204800  0.76076400  0.14639300  1
  H  1001  1  0.82757800  0.77090900  0.12309000  1
  H  1002  1  0.78183200  0.82312200  0.14345600  1
  H  1007  1  0.66009700  0.72868500  0.13113000  1
  H  1008  1  0.84653300  0.80587300  0.12667600  1
  H  1015  1  0.28061700  0.70794600  0.37050800  1
  H  1020  1  0.31912100  0.76200300  0.34677300  1
  H  1025  1  0.17419000  0.77085000  0.37261600  1
  H  1026  1  0.21714300  0.82259200  0.34930700  1
  H  1031  1  0.34315300  0.73087300  0.36199400  1
  H  1032  1  0.15325000  0.80507500  0.36603400  1
  H  1039  1  0.72215300  0.32863300  0.37040600  1
  H  1044  1  0.68160800  0.27463300  0.34811500  1
  H  1049  1  0.82782000  0.26473700  0.37097200  1
  H  1050  1  0.78288400  0.21308700  0.34920000  1
  H  1055  1  0.65877500  0.30627800  0.36307200  1
  H  1056  1  0.84779900  0.23011400  0.36503400  1
  H  1063  1  0.99258300  0.87543900  0.80233600  1
  H  1068  1  0.93853200  0.83877700  0.77069400  1
  H  1073  1  0.06742700  0.87339300  0.72403800  1
  H  1074  1  0.01065800  0.83528400  0.69678100  1
  H  1079  1  0.93121900  0.84908900  0.80599100  1
  H  1080  1  0.05757700  0.84315800  0.68213200  1
  H  1087  1  0.00700700  0.15746100  0.80171000  1
  H  1092  1  0.05704300  0.20006300  0.77272000  1
  H  1097  1  0.93327500  0.15757600  0.72199700  1
  H  1098  1  0.98595800  0.20137600  0.69739100  1
  H  1103  1  0.06468900  0.18870300  0.80797600  1
  H  1104  1  0.93997800  0.19081900  0.68171400  1
  H  1111  1  0.00683100  0.16121300  0.19148400  1
  H  1116  1  0.06094900  0.19780800  0.22311700  1
  H  1121  1  0.93290500  0.16186900  0.27031800  1
  H  1122  1  0.98972200  0.19995300  0.29754900  1
  H  1127  1  0.06794100  0.18796400  0.18767300  1
  H  1128  1  0.94276400  0.19189500  0.31224900  1
  H  1135  1  0.99295600  0.87867000  0.19236500  1
  H  1140  1  0.94206900  0.83630100  0.22076500  1
  H  1145  1  0.06589500  0.87709400  0.27249800  1
  H  1146  1  0.01239800  0.83358000  0.29648300  1
  H  1151  1  0.93479700  0.84795100  0.18571000  1
  H  1152  1  0.05876000  0.84349800  0.31234800  1
  H  1159  1  0.49319200  0.37579400  0.80225100  1
  H  1164  1  0.43945800  0.33896200  0.77044600  1
  H  1169  1  0.56788000  0.37491600  0.72384100  1
  H  1170  1  0.51142000  0.33657500  0.69646100  1
  H  1175  1  0.43229000  0.34876700  0.80590700  1
  H  1176  1  0.55799600  0.34474600  0.68179400  1
  H  1183  1  0.50864100  0.65568300  0.80143300  1
  H  1188  1  0.55879900  0.69870100  0.77302700  1
  H  1193  1  0.43483900  0.65746600  0.72177400  1
  H  1194  1  0.48766300  0.70158600  0.69777800  1
  H  1199  1  0.56641600  0.68692900  0.80799800  1
  H  1200  1  0.44181800  0.69141600  0.68188900  1
  H  1207  1  0.50789600  0.65942300  0.19185800  1
  H  1212  1  0.56189200  0.69683700  0.22286800  1
  H  1217  1  0.43403000  0.66154000  0.27068700  1
  H  1218  1  0.49070400  0.70037900  0.29725200  1
  H  1223  1  0.56894000  0.68634200  0.18769000  1
  H  1224  1  0.44412000  0.69236500  0.31226200  1
  H  1231  1  0.49439600  0.37932500  0.19235200  1
  H  1236  1  0.44429700  0.33620000  0.22068500  1
  H  1241  1  0.56698100  0.37900800  0.27266600  1
  H  1242  1  0.51426100  0.33472600  0.29656400  1
  H  1247  1  0.43703600  0.34767100  0.18553500  1
  H  1248  1  0.55987400  0.34527800  0.31264600  1
  H  1255  1  0.69474100  0.88059700  0.88952300  1
  H  1264  1  0.69752700  0.86200500  0.83460000  1
  H  1267  1  0.65048300  0.87492800  0.83022100  1
  H  1268  1  0.62811500  0.85647100  0.83401300  1
  H  1269  1  0.68900700  0.93670700  0.87596500  1
  H  1270  1  0.66847400  0.91642500  0.87795200  1
  H  1271  1  0.75970900  0.93169700  0.82954800  1
  H  1272  1  0.76139600  0.91044100  0.81515500  1
  H  1273  1  0.61240900  0.82982000  0.89963400  1
  H  1274  1  0.63168000  0.83731800  0.91718400  1
  H  1285  1  0.88348700  0.15587300  0.89044200  1
  H  1294  1  0.87825100  0.17558800  0.83642300  1
  H  1297  1  0.92623800  0.16320500  0.83122600  1
  H  1298  1  0.94844100  0.18182100  0.83520500  1
  H  1299  1  0.89467100  0.09913800  0.87354600  1
  H  1300  1  0.91202300  0.12101800  0.87756300  1
  H  1301  1  0.82779200  0.10016700  0.82357300  1
  H  1302  1  0.82373700  0.12234700  0.81049200  1
  H  1303  1  0.96466200  0.20820100  0.90111700  1
  H  1304  1  0.94581200  0.20027500  0.91855800  1
  H  1315  1  0.69754900  0.15737300  0.60356800  1
  H  1324  1  0.69699100  0.17497500  0.65938900  1
  H  1327  1  0.65079600  0.16099300  0.66149200  1
  H  1328  1  0.62821800  0.17955900  0.65743500  1
  H  1329  1  0.69326200  0.10112400  0.61652700  1
  H  1330  1  0.67256600  0.12147100  0.61366900  1
  H  1331  1  0.75882100  0.10440300  0.66768800  1
  H  1332  1  0.75952000  0.12577700  0.68209600  1
  H  1333  1  0.61511000  0.20926300  0.59235200  1
  H  1334  1  0.63487300  0.20204500  0.57512000  1
  H  1345  1  0.87861200  0.87634800  0.60506100  1
  H  1354  1  0.88067500  0.85879500  0.66067100  1
  H  1357  1  0.92710300  0.87287500  0.66275900  1
  H  1358  1  0.94979200  0.85455600  0.65847900  1
  H  1359  1  0.88276700  0.93250300  0.61750700  1
  H  1360  1  0.90332900  0.91218600  0.61443800  1
  H  1361  1  0.82347200  0.93156200  0.67199000  1
  H  1362  1  0.82243100  0.90988300  0.68602000  1
  H  1363  1  0.96162900  0.82559700  0.59319500  1
  H  1364  1  0.94126900  0.83264400  0.57608600  1
  H  1375  1  0.88487400  0.15628700  0.10392000  1
  H  1384  1  0.88047100  0.17517600  0.15906100  1
  H  1387  1  0.92705300  0.16224800  0.16410500  1
  H  1388  1  0.94985000  0.18037400  0.16058700  1
  H  1389  1  0.88945300  0.10051000  0.11768600  1
  H  1390  1  0.91006200  0.12075100  0.11586000  1
  H  1391  1  0.81876800  0.10512700  0.16403200  1
  H  1392  1  0.81680300  0.12642500  0.17836200  1
  H  1393  1  0.96888600  0.20528000  0.09510800  1
  H  1394  1  0.94966400  0.19847500  0.07729400  1
  H  1405  1  0.69471400  0.87953000  0.10286000  1
  H  1414  1  0.69990700  0.86109200  0.15750600  1
  H  1417  1  0.65271300  0.87402900  0.16265100  1
  H  1418  1  0.63020700  0.85557900  0.15913100  1
  H  1419  1  0.68975700  0.93472000  0.11490600  1
  H  1420  1  0.66940800  0.91439500  0.11351500  1
  H  1421  1  0.75265400  0.93555000  0.16889600  1
  H  1422  1  0.75634600  0.91347600  0.18211500  1
  H  1423  1  0.61151700  0.82929300  0.09380500  1
  H  1424  1  0.63056500  0.83605100  0.07608500  1
  H  1435  1  0.88142200  0.87730900  0.39095000  1
  H  1444  1  0.88035700  0.85928300  0.33497200  1
  H  1447  1  0.92614000  0.87336500  0.33210300  1
  H  1448  1  0.94922100  0.85521100  0.33595000  1
  H  1449  1  0.88466700  0.93328600  0.37761100  1
  H  1450  1  0.90549700  0.91301200  0.38029200  1
  H  1451  1  0.81819400  0.92970600  0.32715800  1
  H  1452  1  0.81732800  0.90830800  0.31278600  1
  H  1453  1  0.96578400  0.82748700  0.40113600  1
  H  1454  1  0.94602200  0.83398700  0.41858800  1
  H  1465  1  0.69828900  0.15766900  0.38936400  1
  H  1474  1  0.69835800  0.17617300  0.33363500  1
  H  1477  1  0.65234700  0.16218500  0.33051200  1
  H  1478  1  0.62940000  0.18033400  0.33451900  1
  H  1479  1  0.69518500  0.10200000  0.37612300  1
  H  1480  1  0.67454700  0.12227800  0.37907400  1
  H  1481  1  0.75564800  0.10345600  0.32239900  1
  H  1482  1  0.75697700  0.12526000  0.30853500  1
  H  1483  1  0.61397500  0.20723000  0.39985100  1
  H  1484  1  0.63400100  0.20054600  0.41730100  1
  H  1495  1  0.19714700  0.37726000  0.88976600  1
  H  1504  1  0.19834700  0.36124900  0.83448500  1
  H  1507  1  0.15088400  0.37553500  0.83119300  1
  H  1508  1  0.12816100  0.35729700  0.83458900  1
  H  1509  1  0.19116700  0.43427900  0.87820100  1
  H  1510  1  0.17074900  0.41387800  0.87998900  1
  H  1511  1  0.26000900  0.43140400  0.83012600  1
  H  1512  1  0.26144300  0.41058600  0.81523100  1
  H  1513  1  0.11476100  0.32630200  0.89924700  1
  H  1514  1  0.13475300  0.33266400  0.91668600  1
  H  1525  1  0.38253400  0.65851300  0.89094000  1
  H  1534  1  0.38001500  0.67421300  0.83607900  1
  H  1537  1  0.42807600  0.65995900  0.83253000  1
  H  1538  1  0.45047300  0.67857500  0.83579700  1
  H  1539  1  0.38853100  0.60229300  0.88097900  1
  H  1540  1  0.40875300  0.62273300  0.88224500  1
  H  1541  1  0.32730400  0.59950000  0.82583600  1
  H  1542  1  0.32407700  0.62114100  0.81201500  1
  H  1543  1  0.46403300  0.71082500  0.90011400  1
  H  1544  1  0.44433800  0.70448000  0.91753400  1
  H  1555  1  0.20038200  0.66083000  0.60346700  1
  H  1564  1  0.19850000  0.67596100  0.65951700  1
  H  1567  1  0.15216000  0.66053300  0.66069100  1
  H  1568  1  0.12903500  0.67870400  0.65702900  1
  H  1569  1  0.19607700  0.60362400  0.61465900  1
  H  1570  1  0.17542400  0.62405300  0.61204100  1
  H  1571  1  0.26074100  0.60546600  0.66660100  1
  H  1572  1  0.26112900  0.62640500  0.68149400  1
  H  1573  1  0.11705900  0.71191000  0.59294700  1
  H  1574  1  0.13750800  0.70594400  0.57581800  1
  H  1585  1  0.37910000  0.37589200  0.60485800  1
  H  1594  1  0.38150900  0.36007700  0.66078600  1
  H  1597  1  0.42801600  0.37542800  0.66237600  1
  H  1598  1  0.45094900  0.35716500  0.65867300  1
  H  1599  1  0.38295700  0.43267700  0.61620300  1
  H  1600  1  0.40343600  0.41224500  0.61333800  1
  H  1601  1  0.32397500  0.43287700  0.67097400  1
  H  1602  1  0.32311800  0.41151200  0.68537800  1
  H  1603  1  0.46215800  0.32472200  0.59439900  1
  H  1604  1  0.44154000  0.33090100  0.57721400  1
  H  1615  1  0.38482600  0.65663900  0.10394000  1
  H  1624  1  0.38133300  0.67381100  0.15928300  1
  H  1627  1  0.42825200  0.65952200  0.16371900  1
  H  1628  1  0.45117900  0.67763800  0.16065300  1
  H  1629  1  0.38963400  0.60012000  0.11655000  1
  H  1630  1  0.41014700  0.62046400  0.11487900  1
  H  1631  1  0.31897900  0.60411800  0.16311200  1
  H  1632  1  0.31729400  0.62507200  0.17784300  1
  H  1633  1  0.46832600  0.70655800  0.09592900  1
  H  1634  1  0.44864500  0.70062300  0.07816900  1
  H  1645  1  0.19589600  0.37846300  0.10272800  1
  H  1654  1  0.20205900  0.36028800  0.15726300  1
  H  1657  1  0.15419500  0.37415700  0.16261400  1
  H  1658  1  0.13142900  0.35585600  0.15945800  1
  H  1659  1  0.18571500  0.43577900  0.11868800  1
  H  1660  1  0.16844300  0.41377300  0.11504100  1
  H  1661  1  0.25263000  0.43592100  0.16874900  1
  H  1662  1  0.25673400  0.41401600  0.18216800  1
  H  1663  1  0.11366400  0.32677100  0.09458000  1
  H  1664  1  0.13286400  0.33313800  0.07685500  1
  H  1675  1  0.38170600  0.37688800  0.39111300  1
  H  1684  1  0.38167800  0.36079200  0.33490400  1
  H  1687  1  0.42760600  0.37618600  0.33279600  1
  H  1688  1  0.45088500  0.35811000  0.33618900  1
  H  1689  1  0.38494400  0.43359900  0.37913000  1
  H  1690  1  0.40565100  0.41320700  0.38169900  1
  H  1691  1  0.31960200  0.43136400  0.32771500  1
  H  1692  1  0.31897400  0.41028700  0.31297300  1
  H  1693  1  0.46605800  0.32677300  0.40046500  1
  H  1694  1  0.44585700  0.33233100  0.41786300  1
  H  1705  1  0.20095100  0.66119700  0.38969800  1
  H  1714  1  0.19944400  0.67700000  0.33363300  1
  H  1717  1  0.15333800  0.66123800  0.33157600  1
  H  1718  1  0.12986200  0.67902000  0.33510200  1
  H  1719  1  0.19811200  0.60447800  0.37832400  1
  H  1720  1  0.17747800  0.62481500  0.38106900  1
  H  1721  1  0.25746400  0.60442200  0.32378100  1
  H  1722  1  0.25829200  0.62576200  0.30935000  1
  H  1723  1  0.11590100  0.71008400  0.39944700  1
  H  1724  1  0.13671500  0.70485000  0.41673800  1
  H  1735  1  0.65722100  0.88810100  0.04811400  1
  H  1740  1  0.71409600  0.83973800  0.03847400  1
  H  1745  1  0.64833800  0.90036300  0.95208500  1
  H  1746  1  0.70490500  0.85079800  0.94705500  1
  H  1751  1  0.70549400  0.85786600  0.07224400  1
  H  1752  1  0.67376800  0.89333000  0.92096100  1
  H  1759  1  0.92047200  0.14683200  0.04926300  1
  H  1764  1  0.86614800  0.19744800  0.03955400  1
  H  1769  1  0.92844000  0.13538300  0.95322100  1
  H  1770  1  0.87446200  0.18709900  0.94809600  1
  H  1775  1  0.87415500  0.17883600  0.07330500  1
  H  1776  1  0.90372600  0.14368600  0.92195400  1
  H  1783  1  0.66100500  0.14806300  0.44448800  1
  H  1788  1  0.71787200  0.19562900  0.45461200  1
  H  1793  1  0.65072100  0.13755000  0.54046600  1
  H  1794  1  0.70739000  0.18621100  0.54598800  1
  H  1799  1  0.70936800  0.17687000  0.42073000  1
  H  1800  1  0.67519200  0.14456100  0.57188700  1
  H  1807  1  0.91644600  0.88659200  0.44631400  1
  H  1812  1  0.86237300  0.83646300  0.45492600  1
  H  1817  1  0.92285800  0.89787400  0.54252300  1
  H  1818  1  0.86925700  0.84660400  0.54652000  1
  H  1823  1  0.87060400  0.85539100  0.42135400  1
  H  1824  1  0.89808500  0.88954200  0.57336100  1
  H  1831  1  0.16007400  0.38584400  0.04818900  1
  H  1836  1  0.21490600  0.33565100  0.03903200  1
  H  1841  1  0.15154700  0.39716300  0.95212400  1
  H  1842  1  0.20607800  0.34590400  0.94741900  1
  H  1847  1  0.20705300  0.35465700  0.07267400  1
  H  1848  1  0.17595900  0.38933800  0.92122100  1
  H  1855  1  0.42290900  0.64964600  0.04936800  1
  H  1860  1  0.36456700  0.69689400  0.03980800  1
  H  1865  1  0.43270800  0.63986800  0.95335600  1
  H  1866  1  0.37443300  0.68803700  0.94828200  1
  H  1871  1  0.37373200  0.67817000  0.07343600  1
  H  1872  1  0.40897300  0.64674500  0.92219900  1
  H  1879  1  0.16486300  0.65193900  0.44438700  1
  H  1884  1  0.21943600  0.70141400  0.45459900  1
  H  1889  1  0.15456900  0.64105300  0.54027000  1
  H  1890  1  0.20896500  0.69155200  0.54603700  1
  H  1895  1  0.21201600  0.68167400  0.42064800  1
  H  1896  1  0.17792400  0.64862500  0.57163200  1
  H  1903  1  0.41989500  0.38391400  0.44631200  1
  H  1908  1  0.36131900  0.33773300  0.45514200  1
  H  1913  1  0.42812600  0.39479400  0.54243200  1
  H  1914  1  0.36979200  0.34753400  0.54675500  1
  H  1919  1  0.37082800  0.35624400  0.42158500  1
  H  1920  1  0.40333800  0.38854700  0.57324400  1
  H  1927  1  0.77047200  0.95771500  0.87055300  1
  H  1932  1  0.72333500  0.00065300  0.83821900  1
  H  1937  1  0.85290300  0.04208000  0.88149600  1
  H  1938  1  0.80169300  0.08066600  0.84850500  1
  H  1943  1  0.71700600  0.96042900  0.83667200  1
  H  1944  1  0.85427600  0.08532000  0.88044700  1
  H  1951  1  0.77597400  0.08044400  0.63004200  1
  H  1956  1  0.72035600  0.03575000  0.64899800  1
  H  1961  1  0.85999400  0.99568800  0.62940600  1
  H  1962  1  0.79954200  0.95520900  0.64719900  1
  H  1967  1  0.71553600  0.07611800  0.65479500  1
  H  1968  1  0.86697600  0.95970400  0.64917200  1
  H  1975  1  0.80552000  0.08119700  0.12520900  1
  H  1980  1  0.85610500  0.03567200  0.15127400  1
  H  1985  1  0.71896000  0.99984800  0.11935100  1
  H  1986  1  0.77425000  0.95781200  0.14451900  1
  H  1991  1  0.86172700  0.07619300  0.15562900  1
  H  1992  1  0.70562300  0.96419700  0.13223100  1
  H  1999  1  0.80141800  0.95393600  0.36400000  1
  H  2004  1  0.85760000  0.99844600  0.34565600  1
  H  2009  1  0.71794300  0.03908400  0.36426500  1
  H  2010  1  0.77893200  0.07935000  0.34713500  1
  H  2015  1  0.86190400  0.95801100  0.33948900  1
  H  2016  1  0.71152200  0.07520200  0.34455100  1
  H  2023  1  0.27388100  0.45465500  0.86972000  1
  H  2028  1  0.22324700  0.50031600  0.84389800  1
  H  2033  1  0.36038100  0.53602700  0.87599500  1
  H  2034  1  0.30515300  0.57819100  0.85090600  1
  H  2039  1  0.21731100  0.45993600  0.83957200  1
  H  2040  1  0.37365300  0.57202800  0.86428400  1
  H  2047  1  0.27808100  0.58185200  0.62920300  1
  H  2052  1  0.22167400  0.53730400  0.64707500  1
  H  2057  1  0.36140700  0.49659700  0.62888500  1
  H  2058  1  0.30025200  0.45630700  0.64562400  1
  H  2063  1  0.21721800  0.57762300  0.65329900  1
  H  2064  1  0.36772000  0.46046200  0.64842400  1
  H  2071  1  0.30848200  0.57834900  0.12224200  1
  H  2076  1  0.35629900  0.53542900  0.15403300  1
  H  2081  1  0.22671700  0.49354900  0.11115300  1
  H  2082  1  0.27860100  0.45497900  0.14356400  1
  H  2087  1  0.36213400  0.57569900  0.15592100  1
  H  2088  1  0.22560800  0.45032700  0.11197900  1
  H  2095  1  0.30261400  0.45518900  0.36505000  1
  H  2100  1  0.35913300  0.49959800  0.34710700  1
  H  2105  1  0.21963900  0.54067100  0.36566200  1
  H  2106  1  0.28091100  0.58082500  0.34890100  1
  H  2111  1  0.36339500  0.45925800  0.34082400  1
  H  2112  1  0.21350500  0.57681300  0.34602900  1
  H  2119  1  0.51098800  0.70840300  0.87058600  1
  H  2124  1  0.46922900  0.76229900  0.84837200  1
  H  2129  1  0.61533400  0.77244200  0.87140900  1
  H  2130  1  0.56958200  0.82424700  0.84978900  1
  H  2135  1  0.44708200  0.73053000  0.86340300  1
  H  2136  1  0.63472600  0.80699800  0.86627600  1
  H  2143  1  0.06780100  0.32835200  0.87096800  1
  H  2148  1  0.10769800  0.27452200  0.84726200  1
  H  2153  1  0.96292800  0.26500900  0.87341100  1
  H  2154  1  0.00685000  0.21326100  0.85015400  1
  H  2159  1  0.13089300  0.30582000  0.86277800  1
  H  2160  1  0.94265800  0.23077800  0.86756200  1
  H  2167  1  0.50982400  0.32787800  0.62383800  1
  H  2172  1  0.47060700  0.27361900  0.64653900  1
  H  2177  1  0.61585500  0.26442900  0.62172300  1
  H  2178  1  0.57217600  0.21252600  0.64396700  1
  H  2183  1  0.44682900  0.30528500  0.63232700  1
  H  2184  1  0.63656700  0.23000600  0.62847300  1
  H  2191  1  0.06964400  0.70817800  0.62149300  1
  H  2196  1  0.10820700  0.76164200  0.64661900  1
  H  2201  1  0.96272000  0.77055600  0.62074600  1
  H  2202  1  0.00566800  0.82179900  0.64536500  1
  H  2207  1  0.13231900  0.73081000  0.63139000  1
  H  2208  1  0.94138300  0.80422500  0.62915100  1
  H  2215  1  0.06888300  0.32766700  0.12368000  1
  H  2220  1  0.11020900  0.27382000  0.14642500  1
  H  2225  1  0.96424800  0.26405000  0.12274400  1
  H  2226  1  0.00952300  0.21226600  0.14496800  1
  H  2231  1  0.13239900  0.30529800  0.13044300  1
  H  2232  1  0.94481200  0.22953800  0.12746500  1
  H  2239  1  0.51303900  0.70637300  0.12552800  1
  H  2244  1  0.47134100  0.76076400  0.14639300  1
  H  2249  1  0.61687100  0.77090900  0.12309000  1
  H  2250  1  0.57112500  0.82312200  0.14345600  1
  H  2255  1  0.44939000  0.72868500  0.13113000  1
  H  2256  1  0.63582600  0.80587300  0.12667600  1
  H  2263  1  0.06991000  0.70794600  0.37050800  1
  H  2268  1  0.10841400  0.76200300  0.34677300  1
  H  2273  1  0.96348300  0.77085000  0.37261600  1
  H  2274  1  0.00643600  0.82259200  0.34930700  1
  H  2279  1  0.13244600  0.73087300  0.36199400  1
  H  2280  1  0.94254300  0.80507500  0.36603400  1
  H  2287  1  0.51144600  0.32863300  0.37040600  1
  H  2292  1  0.47090100  0.27463300  0.34811500  1
  H  2297  1  0.61711300  0.26473700  0.37097200  1
  H  2298  1  0.57217700  0.21308700  0.34920000  1
  H  2303  1  0.44806800  0.30627800  0.36307200  1
  H  2304  1  0.63709200  0.23011400  0.36503400  1
  H  2311  1  0.78187600  0.87543900  0.80233600  1
  H  2316  1  0.72782500  0.83877700  0.77069400  1
  H  2321  1  0.85672000  0.87339300  0.72403800  1
  H  2322  1  0.79995100  0.83528400  0.69678100  1
  H  2327  1  0.72051200  0.84908900  0.80599100  1
  H  2328  1  0.84687000  0.84315800  0.68213200  1
  H  2335  1  0.79630000  0.15746100  0.80171000  1
  H  2340  1  0.84633600  0.20006300  0.77272000  1
  H  2345  1  0.72256800  0.15757600  0.72199700  1
  H  2346  1  0.77525100  0.20137600  0.69739100  1
  H  2351  1  0.85398200  0.18870300  0.80797600  1
  H  2352  1  0.72927100  0.19081900  0.68171400  1
  H  2359  1  0.79612400  0.16121300  0.19148400  1
  H  2364  1  0.85024200  0.19780800  0.22311700  1
  H  2369  1  0.72219800  0.16186900  0.27031800  1
  H  2370  1  0.77901500  0.19995300  0.29754900  1
  H  2375  1  0.85723400  0.18796400  0.18767300  1
  H  2376  1  0.73205700  0.19189500  0.31224900  1
  H  2383  1  0.78224900  0.87867000  0.19236500  1
  H  2388  1  0.73136200  0.83630100  0.22076500  1
  H  2393  1  0.85518800  0.87709400  0.27249800  1
  H  2394  1  0.80169100  0.83358000  0.29648300  1
  H  2399  1  0.72409000  0.84795100  0.18571000  1
  H  2400  1  0.84805300  0.84349800  0.31234800  1
  H  2407  1  0.28248500  0.37579400  0.80225100  1
  H  2412  1  0.22875100  0.33896200  0.77044600  1
  H  2417  1  0.35717300  0.37491600  0.72384100  1
  H  2418  1  0.30071300  0.33657500  0.69646100  1
  H  2423  1  0.22158300  0.34876700  0.80590700  1
  H  2424  1  0.34728900  0.34474600  0.68179400  1
  H  2431  1  0.29793400  0.65568300  0.80143300  1
  H  2436  1  0.34809200  0.69870100  0.77302700  1
  H  2441  1  0.22413200  0.65746600  0.72177400  1
  H  2442  1  0.27695600  0.70158600  0.69777800  1
  H  2447  1  0.35570900  0.68692900  0.80799800  1
  H  2448  1  0.23111100  0.69141600  0.68188900  1
  H  2455  1  0.29718900  0.65942300  0.19185800  1
  H  2460  1  0.35118500  0.69683700  0.22286800  1
  H  2465  1  0.22332300  0.66154000  0.27068700  1
  H  2466  1  0.27999700  0.70037900  0.29725200  1
  H  2471  1  0.35823300  0.68634200  0.18769000  1
  H  2472  1  0.23341300  0.69236500  0.31226200  1
  H  2479  1  0.28368900  0.37932500  0.19235200  1
  H  2484  1  0.23359000  0.33620000  0.22068500  1
  H  2489  1  0.35627400  0.37900800  0.27266600  1
  H  2490  1  0.30355400  0.33472600  0.29656400  1
  H  2495  1  0.22632900  0.34767100  0.18553500  1
  H  2496  1  0.34916700  0.34527800  0.31264600  1
  H  2503  1  0.48403400  0.88059700  0.88952300  1
  H  2512  1  0.48682000  0.86200500  0.83460000  1
  H  2515  1  0.43977600  0.87492800  0.83022100  1
  H  2516  1  0.41740800  0.85647100  0.83401300  1
  H  2517  1  0.47830000  0.93670700  0.87596500  1
  H  2518  1  0.45776700  0.91642500  0.87795200  1
  H  2519  1  0.54900200  0.93169700  0.82954800  1
  H  2520  1  0.55068900  0.91044100  0.81515500  1
  H  2521  1  0.40170200  0.82982000  0.89963400  1
  H  2522  1  0.42097300  0.83731800  0.91718400  1
  H  2533  1  0.67278000  0.15587300  0.89044200  1
  H  2542  1  0.66754400  0.17558800  0.83642300  1
  H  2545  1  0.71553100  0.16320500  0.83122600  1
  H  2546  1  0.73773400  0.18182100  0.83520500  1
  H  2547  1  0.68396400  0.09913800  0.87354600  1
  H  2548  1  0.70131600  0.12101800  0.87756300  1
  H  2549  1  0.61708500  0.10016700  0.82357300  1
  H  2550  1  0.61303000  0.12234700  0.81049200  1
  H  2551  1  0.75395500  0.20820100  0.90111700  1
  H  2552  1  0.73510500  0.20027500  0.91855800  1
  H  2563  1  0.48684200  0.15737300  0.60356800  1
  H  2572  1  0.48628400  0.17497500  0.65938900  1
  H  2575  1  0.44008900  0.16099300  0.66149200  1
  H  2576  1  0.41751100  0.17955900  0.65743500  1
  H  2577  1  0.48255500  0.10112400  0.61652700  1
  H  2578  1  0.46185900  0.12147100  0.61366900  1
  H  2579  1  0.54811400  0.10440300  0.66768800  1
  H  2580  1  0.54881300  0.12577700  0.68209600  1
  H  2581  1  0.40440300  0.20926300  0.59235200  1
  H  2582  1  0.42416600  0.20204500  0.57512000  1
  H  2593  1  0.66790500  0.87634800  0.60506100  1
  H  2602  1  0.66996800  0.85879500  0.66067100  1
  H  2605  1  0.71639600  0.87287500  0.66275900  1
  H  2606  1  0.73908500  0.85455600  0.65847900  1
  H  2607  1  0.67206000  0.93250300  0.61750700  1
  H  2608  1  0.69262200  0.91218600  0.61443800  1
  H  2609  1  0.61276500  0.93156200  0.67199000  1
  H  2610  1  0.61172400  0.90988300  0.68602000  1
  H  2611  1  0.75092200  0.82559700  0.59319500  1
  H  2612  1  0.73056200  0.83264400  0.57608600  1
  H  2623  1  0.67416700  0.15628700  0.10392000  1
  H  2632  1  0.66976400  0.17517600  0.15906100  1
  H  2635  1  0.71634600  0.16224800  0.16410500  1
  H  2636  1  0.73914300  0.18037400  0.16058700  1
  H  2637  1  0.67874600  0.10051000  0.11768600  1
  H  2638  1  0.69935500  0.12075100  0.11586000  1
  H  2639  1  0.60806100  0.10512700  0.16403200  1
  H  2640  1  0.60609600  0.12642500  0.17836200  1
  H  2641  1  0.75817900  0.20528000  0.09510800  1
  H  2642  1  0.73895700  0.19847500  0.07729400  1
  H  2653  1  0.48400700  0.87953000  0.10286000  1
  H  2662  1  0.48920000  0.86109200  0.15750600  1
  H  2665  1  0.44200600  0.87402900  0.16265100  1
  H  2666  1  0.41950000  0.85557900  0.15913100  1
  H  2667  1  0.47905000  0.93472000  0.11490600  1
  H  2668  1  0.45870100  0.91439500  0.11351500  1
  H  2669  1  0.54194700  0.93555000  0.16889600  1
  H  2670  1  0.54563900  0.91347600  0.18211500  1
  H  2671  1  0.40081000  0.82929300  0.09380500  1
  H  2672  1  0.41985800  0.83605100  0.07608500  1
  H  2683  1  0.67071500  0.87730900  0.39095000  1
  H  2692  1  0.66965000  0.85928300  0.33497200  1
  H  2695  1  0.71543300  0.87336500  0.33210300  1
  H  2696  1  0.73851400  0.85521100  0.33595000  1
  H  2697  1  0.67396000  0.93328600  0.37761100  1
  H  2698  1  0.69479000  0.91301200  0.38029200  1
  H  2699  1  0.60748700  0.92970600  0.32715800  1
  H  2700  1  0.60662100  0.90830800  0.31278600  1
  H  2701  1  0.75507700  0.82748700  0.40113600  1
  H  2702  1  0.73531500  0.83398700  0.41858800  1
  H  2713  1  0.48758200  0.15766900  0.38936400  1
  H  2722  1  0.48765100  0.17617300  0.33363500  1
  H  2725  1  0.44164000  0.16218500  0.33051200  1
  H  2726  1  0.41869300  0.18033400  0.33451900  1
  H  2727  1  0.48447800  0.10200000  0.37612300  1
  H  2728  1  0.46384000  0.12227800  0.37907400  1
  H  2729  1  0.54494100  0.10345600  0.32239900  1
  H  2730  1  0.54627000  0.12526000  0.30853500  1
  H  2731  1  0.40326800  0.20723000  0.39985100  1
  H  2732  1  0.42329400  0.20054600  0.41730100  1
  H  2743  1  0.98644000  0.37726000  0.88976600  1
  H  2752  1  0.98764000  0.36124900  0.83448500  1
  H  2755  1  0.94017700  0.37553500  0.83119300  1
  H  2756  1  0.91745400  0.35729700  0.83458900  1
  H  2757  1  0.98046000  0.43427900  0.87820100  1
  H  2758  1  0.96004200  0.41387800  0.87998900  1
  H  2759  1  0.04930200  0.43140400  0.83012600  1
  H  2760  1  0.05073600  0.41058600  0.81523100  1
  H  2761  1  0.90405400  0.32630200  0.89924700  1
  H  2762  1  0.92404600  0.33266400  0.91668600  1
  H  2773  1  0.17182700  0.65851300  0.89094000  1
  H  2782  1  0.16930800  0.67421300  0.83607900  1
  H  2785  1  0.21736900  0.65995900  0.83253000  1
  H  2786  1  0.23976600  0.67857500  0.83579700  1
  H  2787  1  0.17782400  0.60229300  0.88097900  1
  H  2788  1  0.19804600  0.62273300  0.88224500  1
  H  2789  1  0.11659700  0.59950000  0.82583600  1
  H  2790  1  0.11337000  0.62114100  0.81201500  1
  H  2791  1  0.25332600  0.71082500  0.90011400  1
  H  2792  1  0.23363100  0.70448000  0.91753400  1
  H  2803  1  0.98967500  0.66083000  0.60346700  1
  H  2812  1  0.98779300  0.67596100  0.65951700  1
  H  2815  1  0.94145300  0.66053300  0.66069100  1
  H  2816  1  0.91832800  0.67870400  0.65702900  1
  H  2817  1  0.98537000  0.60362400  0.61465900  1
  H  2818  1  0.96471700  0.62405300  0.61204100  1
  H  2819  1  0.05003400  0.60546600  0.66660100  1
  H  2820  1  0.05042200  0.62640500  0.68149400  1
  H  2821  1  0.90635200  0.71191000  0.59294700  1
  H  2822  1  0.92680100  0.70594400  0.57581800  1
  H  2833  1  0.16839300  0.37589200  0.60485800  1
  H  2842  1  0.17080200  0.36007700  0.66078600  1
  H  2845  1  0.21730900  0.37542800  0.66237600  1
  H  2846  1  0.24024200  0.35716500  0.65867300  1
  H  2847  1  0.17225000  0.43267700  0.61620300  1
  H  2848  1  0.19272900  0.41224500  0.61333800  1
  H  2849  1  0.11326800  0.43287700  0.67097400  1
  H  2850  1  0.11241100  0.41151200  0.68537800  1
  H  2851  1  0.25145100  0.32472200  0.59439900  1
  H  2852  1  0.23083300  0.33090100  0.57721400  1
  H  2863  1  0.17411900  0.65663900  0.10394000  1
  H  2872  1  0.17062600  0.67381100  0.15928300  1
  H  2875  1  0.21754500  0.65952200  0.16371900  1
  H  2876  1  0.24047200  0.67763800  0.16065300  1
  H  2877  1  0.17892700  0.60012000  0.11655000  1
  H  2878  1  0.19944000  0.62046400  0.11487900  1
  H  2879  1  0.10827200  0.60411800  0.16311200  1
  H  2880  1  0.10658700  0.62507200  0.17784300  1
  H  2881  1  0.25761900  0.70655800  0.09592900  1
  H  2882  1  0.23793800  0.70062300  0.07816900  1
  H  2893  1  0.98518900  0.37846300  0.10272800  1
  H  2902  1  0.99135204  0.36028800  0.15726300  1
  H  2905  1  0.94348800  0.37415700  0.16261400  1
  H  2906  1  0.92072200  0.35585600  0.15945800  1
  H  2907  1  0.97500800  0.43577900  0.11868800  1
  H  2908  1  0.95773600  0.41377300  0.11504100  1
  H  2909  1  0.04192300  0.43592100  0.16874900  1
  H  2910  1  0.04602700  0.41401600  0.18216800  1
  H  2911  1  0.90295700  0.32677100  0.09458000  1
  H  2912  1  0.92215700  0.33313800  0.07685500  1
  H  2923  1  0.17099900  0.37688800  0.39111300  1
  H  2932  1  0.17097100  0.36079200  0.33490400  1
  H  2935  1  0.21689900  0.37618600  0.33279600  1
  H  2936  1  0.24017800  0.35811000  0.33618900  1
  H  2937  1  0.17423700  0.43359900  0.37913000  1
  H  2938  1  0.19494400  0.41320700  0.38169900  1
  H  2939  1  0.10889500  0.43136400  0.32771500  1
  H  2940  1  0.10826700  0.41028700  0.31297300  1
  H  2941  1  0.25535100  0.32677300  0.40046500  1
  H  2942  1  0.23515000  0.33233100  0.41786300  1
  H  2953  1  0.99024404  0.66119700  0.38969800  1
  H  2962  1  0.98873700  0.67700000  0.33363300  1
  H  2965  1  0.94263100  0.66123800  0.33157600  1
  H  2966  1  0.91915500  0.67902000  0.33510200  1
  H  2967  1  0.98740500  0.60447800  0.37832400  1
  H  2968  1  0.96677100  0.62481500  0.38106900  1
  H  2969  1  0.04675700  0.60442200  0.32378100  1
  H  2970  1  0.04758500  0.62576200  0.30935000  1
  H  2971  1  0.90519400  0.71008400  0.39944700  1
  H  2972  1  0.92600800  0.70485000  0.41673800  1
  H  2983  1  0.44651400  0.88810100  0.04811400  1
  H  2988  1  0.50338900  0.83973800  0.03847400  1
  H  2993  1  0.43763100  0.90036300  0.95208500  1
  H  2994  1  0.49419800  0.85079800  0.94705500  1
  H  2999  1  0.49478700  0.85786600  0.07224400  1
  H  3000  1  0.46306100  0.89333000  0.92096100  1
  H  3007  1  0.70976500  0.14683200  0.04926300  1
  H  3012  1  0.65544100  0.19744800  0.03955400  1
  H  3017  1  0.71773300  0.13538300  0.95322100  1
  H  3018  1  0.66375500  0.18709900  0.94809600  1
  H  3023  1  0.66344800  0.17883600  0.07330500  1
  H  3024  1  0.69301900  0.14368600  0.92195400  1
  H  3031  1  0.45029800  0.14806300  0.44448800  1
  H  3036  1  0.50716500  0.19562900  0.45461200  1
  H  3041  1  0.44001400  0.13755000  0.54046600  1
  H  3042  1  0.49668300  0.18621100  0.54598800  1
  H  3047  1  0.49866100  0.17687000  0.42073000  1
  H  3048  1  0.46448500  0.14456100  0.57188700  1
  H  3055  1  0.70573900  0.88659200  0.44631400  1
  H  3060  1  0.65166600  0.83646300  0.45492600  1
  H  3065  1  0.71215100  0.89787400  0.54252300  1
  H  3066  1  0.65855000  0.84660400  0.54652000  1
  H  3071  1  0.65989700  0.85539100  0.42135400  1
  H  3072  1  0.68737800  0.88954200  0.57336100  1
  H  3079  1  0.94936700  0.38584400  0.04818900  1
  H  3084  1  0.00419900  0.33565100  0.03903200  1
  H  3089  1  0.94084000  0.39716300  0.95212400  1
  H  3090  1  0.99537104  0.34590400  0.94741900  1
  H  3095  1  0.99634604  0.35465700  0.07267400  1
  H  3096  1  0.96525200  0.38933800  0.92122100  1
  H  3103  1  0.21220200  0.64964600  0.04936800  1
  H  3108  1  0.15386000  0.69689400  0.03980800  1
  H  3113  1  0.22200100  0.63986800  0.95335600  1
  H  3114  1  0.16372600  0.68803700  0.94828200  1
  H  3119  1  0.16302500  0.67817000  0.07343600  1
  H  3120  1  0.19826600  0.64674500  0.92219900  1
  H  3127  1  0.95415600  0.65193900  0.44438700  1
  H  3132  1  0.00872900  0.70141400  0.45459900  1
  H  3137  1  0.94386200  0.64105300  0.54027000  1
  H  3138  1  0.99825804  0.69155200  0.54603700  1
  H  3143  1  0.00130900  0.68167400  0.42064800  1
  H  3144  1  0.96721700  0.64862500  0.57163200  1
  H  3151  1  0.20918800  0.38391400  0.44631200  1
  H  3156  1  0.15061200  0.33773300  0.45514200  1
  H  3161  1  0.21741900  0.39479400  0.54243200  1
  H  3162  1  0.15908500  0.34753400  0.54675500  1
  H  3167  1  0.16012100  0.35624400  0.42158500  1
  H  3168  1  0.19263100  0.38854700  0.57324400  1
  H  3175  1  0.55976500  0.95771500  0.87055300  1
  H  3180  1  0.51262800  0.00065300  0.83821900  1
  H  3185  1  0.64219600  0.04208000  0.88149600  1
  H  3186  1  0.59098600  0.08066600  0.84850500  1
  H  3191  1  0.50629900  0.96042900  0.83667200  1
  H  3192  1  0.64356900  0.08532000  0.88044700  1
  H  3199  1  0.56526700  0.08044400  0.63004200  1
  H  3204  1  0.50964900  0.03575000  0.64899800  1
  H  3209  1  0.64928700  0.99568800  0.62940600  1
  H  3210  1  0.58883500  0.95520900  0.64719900  1
  H  3215  1  0.50482900  0.07611800  0.65479500  1
  H  3216  1  0.65626900  0.95970400  0.64917200  1
  H  3223  1  0.59481300  0.08119700  0.12520900  1
  H  3228  1  0.64539800  0.03567200  0.15127400  1
  H  3233  1  0.50825300  0.99984800  0.11935100  1
  H  3234  1  0.56354300  0.95781200  0.14451900  1
  H  3239  1  0.65102000  0.07619300  0.15562900  1
  H  3240  1  0.49491600  0.96419700  0.13223100  1
  H  3247  1  0.59071100  0.95393600  0.36400000  1
  H  3252  1  0.64689300  0.99844600  0.34565600  1
  H  3257  1  0.50723600  0.03908400  0.36426500  1
  H  3258  1  0.56822500  0.07935000  0.34713500  1
  H  3263  1  0.65119700  0.95801100  0.33948900  1
  H  3264  1  0.50081500  0.07520200  0.34455100  1
  H  3271  1  0.06317400  0.45465500  0.86972000  1
  H  3276  1  0.01254000  0.50031600  0.84389800  1
  H  3281  1  0.14967400  0.53602700  0.87599500  1
  H  3282  1  0.09444600  0.57819100  0.85090600  1
  H  3287  1  0.00660400  0.45993600  0.83957200  1
  H  3288  1  0.16294600  0.57202800  0.86428400  1
  H  3295  1  0.06737400  0.58185200  0.62920300  1
  H  3300  1  0.01096700  0.53730400  0.64707500  1
  H  3305  1  0.15070000  0.49659700  0.62888500  1
  H  3306  1  0.08954500  0.45630700  0.64562400  1
  H  3311  1  0.00651100  0.57762300  0.65329900  1
  H  3312  1  0.15701300  0.46046200  0.64842400  1
  H  3319  1  0.09777500  0.57834900  0.12224200  1
  H  3324  1  0.14559200  0.53542900  0.15403300  1
  H  3329  1  0.01601000  0.49354900  0.11115300  1
  H  3330  1  0.06789400  0.45497900  0.14356400  1
  H  3335  1  0.15142700  0.57569900  0.15592100  1
  H  3336  1  0.01490100  0.45032700  0.11197900  1
  H  3343  1  0.09190700  0.45518900  0.36505000  1
  H  3348  1  0.14842600  0.49959800  0.34710700  1
  H  3353  1  0.00893200  0.54067100  0.36566200  1
  H  3354  1  0.07020400  0.58082500  0.34890100  1
  H  3359  1  0.15268800  0.45925800  0.34082400  1
  H  3360  1  0.00279800  0.57681300  0.34602900  1
  H  3367  1  0.30028100  0.70840300  0.87058600  1
  H  3372  1  0.25852200  0.76229900  0.84837200  1
  H  3377  1  0.40462700  0.77244200  0.87140900  1
  H  3378  1  0.35887500  0.82424700  0.84978900  1
  H  3383  1  0.23637500  0.73053000  0.86340300  1
  H  3384  1  0.42401900  0.80699800  0.86627600  1
  H  3391  1  0.85709400  0.32835200  0.87096800  1
  H  3396  1  0.89699100  0.27452200  0.84726200  1
  H  3401  1  0.75222100  0.26500900  0.87341100  1
  H  3402  1  0.79614300  0.21326100  0.85015400  1
  H  3407  1  0.92018600  0.30582000  0.86277800  1
  H  3408  1  0.73195100  0.23077800  0.86756200  1
  H  3415  1  0.29911700  0.32787800  0.62383800  1
  H  3420  1  0.25990000  0.27361900  0.64653900  1
  H  3425  1  0.40514800  0.26442900  0.62172300  1
  H  3426  1  0.36146900  0.21252600  0.64396700  1
  H  3431  1  0.23612200  0.30528500  0.63232700  1
  H  3432  1  0.42586000  0.23000600  0.62847300  1
  H  3439  1  0.85893700  0.70817800  0.62149300  1
  H  3444  1  0.89750000  0.76164200  0.64661900  1
  H  3449  1  0.75201300  0.77055600  0.62074600  1
  H  3450  1  0.79496100  0.82179900  0.64536500  1
  H  3455  1  0.92161200  0.73081000  0.63139000  1
  H  3456  1  0.73067600  0.80422500  0.62915100  1
  H  3463  1  0.85817600  0.32766700  0.12368000  1
  H  3468  1  0.89950200  0.27382000  0.14642500  1
  H  3473  1  0.75354100  0.26405000  0.12274400  1
  H  3474  1  0.79881600  0.21226600  0.14496800  1
  H  3479  1  0.92169200  0.30529800  0.13044300  1
  H  3480  1  0.73410500  0.22953800  0.12746500  1
  H  3487  1  0.30233200  0.70637300  0.12552800  1
  H  3492  1  0.26063400  0.76076400  0.14639300  1
  H  3497  1  0.40616400  0.77090900  0.12309000  1
  H  3498  1  0.36041800  0.82312200  0.14345600  1
  H  3503  1  0.23868300  0.72868500  0.13113000  1
  H  3504  1  0.42511900  0.80587300  0.12667600  1
  H  3511  1  0.85920300  0.70794600  0.37050800  1
  H  3516  1  0.89770700  0.76200300  0.34677300  1
  H  3521  1  0.75277600  0.77085000  0.37261600  1
  H  3522  1  0.79572900  0.82259200  0.34930700  1
  H  3527  1  0.92173900  0.73087300  0.36199400  1
  H  3528  1  0.73183600  0.80507500  0.36603400  1
  H  3535  1  0.30073900  0.32863300  0.37040600  1
  H  3540  1  0.26019400  0.27463300  0.34811500  1
  H  3545  1  0.40640600  0.26473700  0.37097200  1
  H  3546  1  0.36147000  0.21308700  0.34920000  1
  H  3551  1  0.23736100  0.30627800  0.36307200  1
  H  3552  1  0.42638500  0.23011400  0.36503400  1
  H  3559  1  0.57116900  0.87543900  0.80233600  1
  H  3564  1  0.51711800  0.83877700  0.77069400  1
  H  3569  1  0.64601300  0.87339300  0.72403800  1
  H  3570  1  0.58924400  0.83528400  0.69678100  1
  H  3575  1  0.50980500  0.84908900  0.80599100  1
  H  3576  1  0.63616300  0.84315800  0.68213200  1
  H  3583  1  0.58559300  0.15746100  0.80171000  1
  H  3588  1  0.63562900  0.20006300  0.77272000  1
  H  3593  1  0.51186100  0.15757600  0.72199700  1
  H  3594  1  0.56454400  0.20137600  0.69739100  1
  H  3599  1  0.64327500  0.18870300  0.80797600  1
  H  3600  1  0.51856400  0.19081900  0.68171400  1
  H  3607  1  0.58541700  0.16121300  0.19148400  1
  H  3612  1  0.63953500  0.19780800  0.22311700  1
  H  3617  1  0.51149100  0.16186900  0.27031800  1
  H  3618  1  0.56830800  0.19995300  0.29754900  1
  H  3623  1  0.64652700  0.18796400  0.18767300  1
  H  3624  1  0.52135000  0.19189500  0.31224900  1
  H  3631  1  0.57154200  0.87867000  0.19236500  1
  H  3636  1  0.52065500  0.83630100  0.22076500  1
  H  3641  1  0.64448100  0.87709400  0.27249800  1
  H  3642  1  0.59098400  0.83358000  0.29648300  1
  H  3647  1  0.51338300  0.84795100  0.18571000  1
  H  3648  1  0.63734600  0.84349800  0.31234800  1
  H  3655  1  0.07177800  0.37579400  0.80225100  1
  H  3660  1  0.01804400  0.33896200  0.77044600  1
  H  3665  1  0.14646600  0.37491600  0.72384100  1
  H  3666  1  0.09000600  0.33657500  0.69646100  1
  H  3671  1  0.01087600  0.34876700  0.80590700  1
  H  3672  1  0.13658200  0.34474600  0.68179400  1
  H  3679  1  0.08722700  0.65568300  0.80143300  1
  H  3684  1  0.13738500  0.69870100  0.77302700  1
  H  3689  1  0.01342500  0.65746600  0.72177400  1
  H  3690  1  0.06624900  0.70158600  0.69777800  1
  H  3695  1  0.14500200  0.68692900  0.80799800  1
  H  3696  1  0.02040400  0.69141600  0.68188900  1
  H  3703  1  0.08648200  0.65942300  0.19185800  1
  H  3708  1  0.14047800  0.69683700  0.22286800  1
  H  3713  1  0.01261600  0.66154000  0.27068700  1
  H  3714  1  0.06929000  0.70037900  0.29725200  1
  H  3719  1  0.14752600  0.68634200  0.18769000  1
  H  3720  1  0.02270600  0.69236500  0.31226200  1
  H  3727  1  0.07298200  0.37932500  0.19235200  1
  H  3732  1  0.02288300  0.33620000  0.22068500  1
  H  3737  1  0.14556700  0.37900800  0.27266600  1
  H  3738  1  0.09284700  0.33472600  0.29656400  1
  H  3743  1  0.01562200  0.34767100  0.18553500  1
  H  3744  1  0.13846000  0.34527800  0.31264600  1
  H  3751  1  0.27332700  0.88059700  0.88952300  1
  H  3760  1  0.27611300  0.86200500  0.83460000  1
  H  3763  1  0.22906900  0.87492800  0.83022100  1
  H  3764  1  0.20670100  0.85647100  0.83401300  1
  H  3765  1  0.26759300  0.93670700  0.87596500  1
  H  3766  1  0.24706000  0.91642500  0.87795200  1
  H  3767  1  0.33829500  0.93169700  0.82954800  1
  H  3768  1  0.33998200  0.91044100  0.81515500  1
  H  3769  1  0.19099500  0.82982000  0.89963400  1
  H  3770  1  0.21026600  0.83731800  0.91718400  1
  H  3781  1  0.46207300  0.15587300  0.89044200  1
  H  3790  1  0.45683700  0.17558800  0.83642300  1
  H  3793  1  0.50482400  0.16320500  0.83122600  1
  H  3794  1  0.52702700  0.18182100  0.83520500  1
  H  3795  1  0.47325700  0.09913800  0.87354600  1
  H  3796  1  0.49060900  0.12101800  0.87756300  1
  H  3797  1  0.40637800  0.10016700  0.82357300  1
  H  3798  1  0.40232300  0.12234700  0.81049200  1
  H  3799  1  0.54324800  0.20820100  0.90111700  1
  H  3800  1  0.52439800  0.20027500  0.91855800  1
  H  3811  1  0.27613500  0.15737300  0.60356800  1
  H  3820  1  0.27557700  0.17497500  0.65938900  1
  H  3823  1  0.22938200  0.16099300  0.66149200  1
  H  3824  1  0.20680400  0.17955900  0.65743500  1
  H  3825  1  0.27184800  0.10112400  0.61652700  1
  H  3826  1  0.25115200  0.12147100  0.61366900  1
  H  3827  1  0.33740700  0.10440300  0.66768800  1
  H  3828  1  0.33810600  0.12577700  0.68209600  1
  H  3829  1  0.19369600  0.20926300  0.59235200  1
  H  3830  1  0.21345900  0.20204500  0.57512000  1
  H  3841  1  0.45719800  0.87634800  0.60506100  1
  H  3850  1  0.45926100  0.85879500  0.66067100  1
  H  3853  1  0.50568900  0.87287500  0.66275900  1
  H  3854  1  0.52837800  0.85455600  0.65847900  1
  H  3855  1  0.46135300  0.93250300  0.61750700  1
  H  3856  1  0.48191500  0.91218600  0.61443800  1
  H  3857  1  0.40205800  0.93156200  0.67199000  1
  H  3858  1  0.40101700  0.90988300  0.68602000  1
  H  3859  1  0.54021500  0.82559700  0.59319500  1
  H  3860  1  0.51985500  0.83264400  0.57608600  1
  H  3871  1  0.46346000  0.15628700  0.10392000  1
  H  3880  1  0.45905700  0.17517600  0.15906100  1
  H  3883  1  0.50563900  0.16224800  0.16410500  1
  H  3884  1  0.52843600  0.18037400  0.16058700  1
  H  3885  1  0.46803900  0.10051000  0.11768600  1
  H  3886  1  0.48864800  0.12075100  0.11586000  1
  H  3887  1  0.39735400  0.10512700  0.16403200  1
  H  3888  1  0.39538900  0.12642500  0.17836200  1
  H  3889  1  0.54747200  0.20528000  0.09510800  1
  H  3890  1  0.52825000  0.19847500  0.07729400  1
  H  3901  1  0.27330000  0.87953000  0.10286000  1
  H  3910  1  0.27849300  0.86109200  0.15750600  1
  H  3913  1  0.23129900  0.87402900  0.16265100  1
  H  3914  1  0.20879300  0.85557900  0.15913100  1
  H  3915  1  0.26834300  0.93472000  0.11490600  1
  H  3916  1  0.24799400  0.91439500  0.11351500  1
  H  3917  1  0.33124000  0.93555000  0.16889600  1
  H  3918  1  0.33493200  0.91347600  0.18211500  1
  H  3919  1  0.19010300  0.82929300  0.09380500  1
  H  3920  1  0.20915100  0.83605100  0.07608500  1
  H  3931  1  0.46000800  0.87730900  0.39095000  1
  H  3940  1  0.45894300  0.85928300  0.33497200  1
  H  3943  1  0.50472600  0.87336500  0.33210300  1
  H  3944  1  0.52780700  0.85521100  0.33595000  1
  H  3945  1  0.46325300  0.93328600  0.37761100  1
  H  3946  1  0.48408300  0.91301200  0.38029200  1
  H  3947  1  0.39678000  0.92970600  0.32715800  1
  H  3948  1  0.39591400  0.90830800  0.31278600  1
  H  3949  1  0.54437000  0.82748700  0.40113600  1
  H  3950  1  0.52460800  0.83398700  0.41858800  1
  H  3961  1  0.27687500  0.15766900  0.38936400  1
  H  3970  1  0.27694400  0.17617300  0.33363500  1
  H  3973  1  0.23093300  0.16218500  0.33051200  1
  H  3974  1  0.20798600  0.18033400  0.33451900  1
  H  3975  1  0.27377100  0.10200000  0.37612300  1
  H  3976  1  0.25313300  0.12227800  0.37907400  1
  H  3977  1  0.33423400  0.10345600  0.32239900  1
  H  3978  1  0.33556300  0.12526000  0.30853500  1
  H  3979  1  0.19256100  0.20723000  0.39985100  1
  H  3980  1  0.21258700  0.20054600  0.41730100  1
  H  3991  1  0.77573300  0.37726000  0.88976600  1
  H  4000  1  0.77693300  0.36124900  0.83448500  1
  H  4003  1  0.72947000  0.37553500  0.83119300  1
  H  4004  1  0.70674700  0.35729700  0.83458900  1
  H  4005  1  0.76975300  0.43427900  0.87820100  1
  H  4006  1  0.74933500  0.41387800  0.87998900  1
  H  4007  1  0.83859500  0.43140400  0.83012600  1
  H  4008  1  0.84002900  0.41058600  0.81523100  1
  H  4009  1  0.69334700  0.32630200  0.89924700  1
  H  4010  1  0.71333900  0.33266400  0.91668600  1
  H  4021  1  0.96112010  0.65851300  0.89094000  1
  H  4030  1  0.95860110  0.67421300  0.83607900  1
  H  4033  1  0.00666200  0.65995900  0.83253000  1
  H  4034  1  0.02905900  0.67857500  0.83579700  1
  H  4035  1  0.96711710  0.60229300  0.88097900  1
  H  4036  1  0.98733910  0.62273300  0.88224500  1
  H  4037  1  0.90589010  0.59950000  0.82583600  1
  H  4038  1  0.90266310  0.62114100  0.81201500  1
  H  4039  1  0.04261900  0.71082500  0.90011400  1
  H  4040  1  0.02292400  0.70448000  0.91753400  1
  H  4051  1  0.77896800  0.66083000  0.60346700  1
  H  4060  1  0.77708600  0.67596100  0.65951700  1
  H  4063  1  0.73074600  0.66053300  0.66069100  1
  H  4064  1  0.70762100  0.67870400  0.65702900  1
  H  4065  1  0.77466300  0.60362400  0.61465900  1
  H  4066  1  0.75401000  0.62405300  0.61204100  1
  H  4067  1  0.83932700  0.60546600  0.66660100  1
  H  4068  1  0.83971500  0.62640500  0.68149400  1
  H  4069  1  0.69564500  0.71191000  0.59294700  1
  H  4070  1  0.71609400  0.70594400  0.57581800  1
  H  4081  1  0.95768610  0.37589200  0.60485800  1
  H  4090  1  0.96009510  0.36007700  0.66078600  1
  H  4093  1  0.00660200  0.37542800  0.66237600  1
  H  4094  1  0.02953500  0.35716500  0.65867300  1
  H  4095  1  0.96154310  0.43267700  0.61620300  1
  H  4096  1  0.98202210  0.41224500  0.61333800  1
  H  4097  1  0.90256110  0.43287700  0.67097400  1
  H  4098  1  0.90170410  0.41151200  0.68537800  1
  H  4099  1  0.04074400  0.32472200  0.59439900  1
  H  4100  1  0.02012600  0.33090100  0.57721400  1
  H  4111  1  0.96341210  0.65663900  0.10394000  1
  H  4120  1  0.95991910  0.67381100  0.15928300  1
  H  4123  1  0.00683800  0.65952200  0.16371900  1
  H  4124  1  0.02976500  0.67763800  0.16065300  1
  H  4125  1  0.96822010  0.60012000  0.11655000  1
  H  4126  1  0.98873310  0.62046400  0.11487900  1
  H  4127  1  0.89756500  0.60411800  0.16311200  1
  H  4128  1  0.89588000  0.62507200  0.17784300  1
  H  4129  1  0.04691200  0.70655800  0.09592900  1
  H  4130  1  0.02723100  0.70062300  0.07816900  1
  H  4141  1  0.77448200  0.37846300  0.10272800  1
  H  4150  1  0.78064500  0.36028800  0.15726300  1
  H  4153  1  0.73278100  0.37415700  0.16261400  1
  H  4154  1  0.71001500  0.35585600  0.15945800  1
  H  4155  1  0.76430100  0.43577900  0.11868800  1
  H  4156  1  0.74702900  0.41377300  0.11504100  1
  H  4157  1  0.83121600  0.43592100  0.16874900  1
  H  4158  1  0.83532000  0.41401600  0.18216800  1
  H  4159  1  0.69225000  0.32677100  0.09458000  1
  H  4160  1  0.71145000  0.33313800  0.07685500  1
  H  4171  1  0.96029210  0.37688800  0.39111300  1
  H  4180  1  0.96026410  0.36079200  0.33490400  1
  H  4183  1  0.00619200  0.37618600  0.33279600  1
  H  4184  1  0.02947100  0.35811000  0.33618900  1
  H  4185  1  0.96353010  0.43359900  0.37913000  1
  H  4186  1  0.98423710  0.41320700  0.38169900  1
  H  4187  1  0.89818800  0.43136400  0.32771500  1
  H  4188  1  0.89756000  0.41028700  0.31297300  1
  H  4189  1  0.04464400  0.32677300  0.40046500  1
  H  4190  1  0.02444300  0.33233100  0.41786300  1
  H  4201  1  0.77953700  0.66119700  0.38969800  1
  H  4210  1  0.77803000  0.67700000  0.33363300  1
  H  4213  1  0.73192400  0.66123800  0.33157600  1
  H  4214  1  0.70844800  0.67902000  0.33510200  1
  H  4215  1  0.77669800  0.60447800  0.37832400  1
  H  4216  1  0.75606400  0.62481500  0.38106900  1
  H  4217  1  0.83605000  0.60442200  0.32378100  1
  H  4218  1  0.83687800  0.62576200  0.30935000  1
  H  4219  1  0.69448700  0.71008400  0.39944700  1
  H  4220  1  0.71530100  0.70485000  0.41673800  1
  H  4231  1  0.23580700  0.88810100  0.04811400  1
  H  4236  1  0.29268200  0.83973800  0.03847400  1
  H  4241  1  0.22692400  0.90036300  0.95208500  1
  H  4242  1  0.28349100  0.85079800  0.94705500  1
  H  4247  1  0.28408000  0.85786600  0.07224400  1
  H  4248  1  0.25235400  0.89333000  0.92096100  1
  H  4255  1  0.49905800  0.14683200  0.04926300  1
  H  4260  1  0.44473400  0.19744800  0.03955400  1
  H  4265  1  0.50702600  0.13538300  0.95322100  1
  H  4266  1  0.45304800  0.18709900  0.94809600  1
  H  4271  1  0.45274100  0.17883600  0.07330500  1
  H  4272  1  0.48231200  0.14368600  0.92195400  1
  H  4279  1  0.23959100  0.14806300  0.44448800  1
  H  4284  1  0.29645800  0.19562900  0.45461200  1
  H  4289  1  0.22930700  0.13755000  0.54046600  1
  H  4290  1  0.28597600  0.18621100  0.54598800  1
  H  4295  1  0.28795400  0.17687000  0.42073000  1
  H  4296  1  0.25377800  0.14456100  0.57188700  1
  H  4303  1  0.49503200  0.88659200  0.44631400  1
  H  4308  1  0.44095900  0.83646300  0.45492600  1
  H  4313  1  0.50144400  0.89787400  0.54252300  1
  H  4314  1  0.44784300  0.84660400  0.54652000  1
  H  4319  1  0.44919000  0.85539100  0.42135400  1
  H  4320  1  0.47667100  0.88954200  0.57336100  1
  H  4327  1  0.73866000  0.38584400  0.04818900  1
  H  4332  1  0.79349200  0.33565100  0.03903200  1
  H  4337  1  0.73013300  0.39716300  0.95212400  1
  H  4338  1  0.78466400  0.34590400  0.94741900  1
  H  4343  1  0.78563900  0.35465700  0.07267400  1
  H  4344  1  0.75454500  0.38933800  0.92122100  1
  H  4351  1  0.00149500  0.64964600  0.04936800  1
  H  4356  1  0.94315310  0.69689400  0.03980800  1
  H  4361  1  0.01129400  0.63986800  0.95335600  1
  H  4362  1  0.95301910  0.68803700  0.94828200  1
  H  4367  1  0.95231810  0.67817000  0.07343600  1
  H  4368  1  0.98755910  0.64674500  0.92219900  1
  H  4375  1  0.74344900  0.65193900  0.44438700  1
  H  4380  1  0.79802200  0.70141400  0.45459900  1
  H  4385  1  0.73315500  0.64105300  0.54027000  1
  H  4386  1  0.78755100  0.69155200  0.54603700  1
  H  4391  1  0.79060200  0.68167400  0.42064800  1
  H  4392  1  0.75651000  0.64862500  0.57163200  1
  H  4399  1  0.99848106  0.38391400  0.44631200  1
  H  4404  1  0.93990510  0.33773300  0.45514200  1
  H  4409  1  0.00671200  0.39479400  0.54243200  1
  H  4410  1  0.94837810  0.34753400  0.54675500  1
  H  4415  1  0.94941410  0.35624400  0.42158500  1
  H  4416  1  0.98192410  0.38854700  0.57324400  1
  H  4423  1  0.34905800  0.95771500  0.87055300  1
  H  4428  1  0.30192100  0.00065300  0.83821900  1
  H  4433  1  0.43148900  0.04208000  0.88149600  1
  H  4434  1  0.38027900  0.08066600  0.84850500  1
  H  4439  1  0.29559200  0.96042900  0.83667200  1
  H  4440  1  0.43286200  0.08532000  0.88044700  1
  H  4447  1  0.35456000  0.08044400  0.63004200  1
  H  4452  1  0.29894200  0.03575000  0.64899800  1
  H  4457  1  0.43858000  0.99568800  0.62940600  1
  H  4458  1  0.37812800  0.95520900  0.64719900  1
  H  4463  1  0.29412200  0.07611800  0.65479500  1
  H  4464  1  0.44556200  0.95970400  0.64917200  1
  H  4471  1  0.38410600  0.08119700  0.12520900  1
  H  4476  1  0.43469100  0.03567200  0.15127400  1
  H  4481  1  0.29754600  0.99984800  0.11935100  1
  H  4482  1  0.35283600  0.95781200  0.14451900  1
  H  4487  1  0.44031300  0.07619300  0.15562900  1
  H  4488  1  0.28420900  0.96419700  0.13223100  1
  H  4495  1  0.38000400  0.95393600  0.36400000  1
  H  4500  1  0.43618600  0.99844600  0.34565600  1
  H  4505  1  0.29652900  0.03908400  0.36426500  1
  H  4506  1  0.35751800  0.07935000  0.34713500  1
  H  4511  1  0.44049000  0.95801100  0.33948900  1
  H  4512  1  0.29010800  0.07520200  0.34455100  1
  H  4519  1  0.85246700  0.45465500  0.86972000  1
  H  4524  1  0.80183300  0.50031600  0.84389800  1
  H  4529  1  0.93896710  0.53602700  0.87599500  1
  H  4530  1  0.88373900  0.57819100  0.85090600  1
  H  4535  1  0.79589700  0.45993600  0.83957200  1
  H  4536  1  0.95223910  0.57202800  0.86428400  1
  H  4543  1  0.85666700  0.58185200  0.62920300  1
  H  4548  1  0.80026000  0.53730400  0.64707500  1
  H  4553  1  0.93999310  0.49659700  0.62888500  1
  H  4554  1  0.87883800  0.45630700  0.64562400  1
  H  4559  1  0.79580400  0.57762300  0.65329900  1
  H  4560  1  0.94630610  0.46046200  0.64842400  1
  H  4567  1  0.88706800  0.57834900  0.12224200  1
  H  4572  1  0.93488510  0.53542900  0.15403300  1
  H  4577  1  0.80530300  0.49354900  0.11115300  1
  H  4578  1  0.85718700  0.45497900  0.14356400  1
  H  4583  1  0.94072010  0.57569900  0.15592100  1
  H  4584  1  0.80419400  0.45032700  0.11197900  1
  H  4591  1  0.88120000  0.45518900  0.36505000  1
  H  4596  1  0.93771910  0.49959800  0.34710700  1
  H  4601  1  0.79822500  0.54067100  0.36566200  1
  H  4602  1  0.85949700  0.58082500  0.34890100  1
  H  4607  1  0.94198110  0.45925800  0.34082400  1
  H  4608  1  0.79209100  0.57681300  0.34602900  1
  H  4615  1  0.08957400  0.70840300  0.87058600  1
  H  4620  1  0.04781500  0.76229900  0.84837200  1
  H  4625  1  0.19392000  0.77244200  0.87140900  1
  H  4626  1  0.14816800  0.82424700  0.84978900  1
  H  4631  1  0.02566800  0.73053000  0.86340300  1
  H  4632  1  0.21331200  0.80699800  0.86627600  1
  H  4639  1  0.64638700  0.32835200  0.87096800  1
  H  4644  1  0.68628400  0.27452200  0.84726200  1
  H  4649  1  0.54151400  0.26500900  0.87341100  1
  H  4650  1  0.58543600  0.21326100  0.85015400  1
  H  4655  1  0.70947900  0.30582000  0.86277800  1
  H  4656  1  0.52124400  0.23077800  0.86756200  1
  H  4663  1  0.08841000  0.32787800  0.62383800  1
  H  4668  1  0.04919300  0.27361900  0.64653900  1
  H  4673  1  0.19444100  0.26442900  0.62172300  1
  H  4674  1  0.15076200  0.21252600  0.64396700  1
  H  4679  1  0.02541500  0.30528500  0.63232700  1
  H  4680  1  0.21515300  0.23000600  0.62847300  1
  H  4687  1  0.64823000  0.70817800  0.62149300  1
  H  4692  1  0.68679300  0.76164200  0.64661900  1
  H  4697  1  0.54130600  0.77055600  0.62074600  1
  H  4698  1  0.58425400  0.82179900  0.64536500  1
  H  4703  1  0.71090500  0.73081000  0.63139000  1
  H  4704  1  0.51996900  0.80422500  0.62915100  1
  H  4711  1  0.64746900  0.32766700  0.12368000  1
  H  4716  1  0.68879500  0.27382000  0.14642500  1
  H  4721  1  0.54283400  0.26405000  0.12274400  1
  H  4722  1  0.58810900  0.21226600  0.14496800  1
  H  4727  1  0.71098500  0.30529800  0.13044300  1
  H  4728  1  0.52339800  0.22953800  0.12746500  1
  H  4735  1  0.09162500  0.70637300  0.12552800  1
  H  4740  1  0.04992700  0.76076400  0.14639300  1
  H  4745  1  0.19545700  0.77090900  0.12309000  1
  H  4746  1  0.14971100  0.82312200  0.14345600  1
  H  4751  1  0.02797600  0.72868500  0.13113000  1
  H  4752  1  0.21441200  0.80587300  0.12667600  1
  H  4759  1  0.64849600  0.70794600  0.37050800  1
  H  4764  1  0.68700000  0.76200300  0.34677300  1
  H  4769  1  0.54206900  0.77085000  0.37261600  1
  H  4770  1  0.58502200  0.82259200  0.34930700  1
  H  4775  1  0.71103200  0.73087300  0.36199400  1
  H  4776  1  0.52112900  0.80507500  0.36603400  1
  H  4783  1  0.09003200  0.32863300  0.37040600  1
  H  4788  1  0.04948700  0.27463300  0.34811500  1
  H  4793  1  0.19569900  0.26473700  0.37097200  1
  H  4794  1  0.15076300  0.21308700  0.34920000  1
  H  4799  1  0.02665400  0.30627800  0.36307200  1
  H  4800  1  0.21567800  0.23011400  0.36503400  1
  H  4807  1  0.36046200  0.87543900  0.80233600  1
  H  4812  1  0.30641100  0.83877700  0.77069400  1
  H  4817  1  0.43530600  0.87339300  0.72403800  1
  H  4818  1  0.37853700  0.83528400  0.69678100  1
  H  4823  1  0.29909800  0.84908900  0.80599100  1
  H  4824  1  0.42545600  0.84315800  0.68213200  1
  H  4831  1  0.37488600  0.15746100  0.80171000  1
  H  4836  1  0.42492200  0.20006300  0.77272000  1
  H  4841  1  0.30115400  0.15757600  0.72199700  1
  H  4842  1  0.35383700  0.20137600  0.69739100  1
  H  4847  1  0.43256800  0.18870300  0.80797600  1
  H  4848  1  0.30785700  0.19081900  0.68171400  1
  H  4855  1  0.37471000  0.16121300  0.19148400  1
  H  4860  1  0.42882800  0.19780800  0.22311700  1
  H  4865  1  0.30078400  0.16186900  0.27031800  1
  H  4866  1  0.35760100  0.19995300  0.29754900  1
  H  4871  1  0.43582000  0.18796400  0.18767300  1
  H  4872  1  0.31064300  0.19189500  0.31224900  1
  H  4879  1  0.36083500  0.87867000  0.19236500  1
  H  4884  1  0.30994800  0.83630100  0.22076500  1
  H  4889  1  0.43377400  0.87709400  0.27249800  1
  H  4890  1  0.38027700  0.83358000  0.29648300  1
  H  4895  1  0.30267600  0.84795100  0.18571000  1
  H  4896  1  0.42663900  0.84349800  0.31234800  1
  H  4903  1  0.86107100  0.37579400  0.80225100  1
  H  4908  1  0.80733700  0.33896200  0.77044600  1
  H  4913  1  0.93575910  0.37491600  0.72384100  1
  H  4914  1  0.87929900  0.33657500  0.69646100  1
  H  4919  1  0.80016900  0.34876700  0.80590700  1
  H  4920  1  0.92587510  0.34474600  0.68179400  1
  H  4927  1  0.87652000  0.65568300  0.80143300  1
  H  4932  1  0.92667810  0.69870100  0.77302700  1
  H  4937  1  0.80271800  0.65746600  0.72177400  1
  H  4938  1  0.85554200  0.70158600  0.69777800  1
  H  4943  1  0.93429510  0.68692900  0.80799800  1
  H  4944  1  0.80969700  0.69141600  0.68188900  1
  H  4951  1  0.87577500  0.65942300  0.19185800  1
  H  4956  1  0.92977110  0.69683700  0.22286800  1
  H  4961  1  0.80190900  0.66154000  0.27068700  1
  H  4962  1  0.85858300  0.70037900  0.29725200  1
  H  4967  1  0.93681910  0.68634200  0.18769000  1
  H  4968  1  0.81199900  0.69236500  0.31226200  1
  H  4975  1  0.86227500  0.37932500  0.19235200  1
  H  4980  1  0.81217600  0.33620000  0.22068500  1
  H  4985  1  0.93486010  0.37900800  0.27266600  1
  H  4986  1  0.88214000  0.33472600  0.29656400  1
  H  4991  1  0.80491500  0.34767100  0.18553500  1
  H  4992  1  0.92775310  0.34527800  0.31264600  1
  C  1  1  0.88269500  0.87511500  0.86469300  1
  C  2  1  0.88956000  0.87272000  0.88428000  1
  C  3  1  0.87466200  0.86072900  0.89732800  1
  C  4  1  0.85343200  0.84846000  0.89056300  1
  C  5  1  0.84755500  0.84852300  0.87043400  1
  C  6  1  0.86134900  0.86260400  0.85763700  1
  C  9  1  0.89977700  0.88849600  0.85328100  1
  C  10  1  0.90782000  0.91024300  0.85866000  1
  C  11  1  0.92917900  0.92019300  0.84934100  1
  C  12  1  0.94209100  0.90891100  0.83418700  1
  C  13  1  0.93313300  0.88793000  0.82829200  1
  C  14  1  0.91287800  0.87784200  0.83813700  1
  C  31  1  0.11628900  0.16223300  0.86573600  1
  C  32  1  0.10975500  0.16417600  0.88533200  1
  C  33  1  0.12454300  0.17637300  0.89848800  1
  C  34  1  0.14541600  0.18903500  0.89185300  1
  C  35  1  0.15108300  0.18915300  0.87175200  1
  C  36  1  0.13727800  0.17508000  0.85880800  1
  C  39  1  0.09944000  0.14865900  0.85415600  1
  C  40  1  0.09297700  0.12631200  0.85876900  1
  C  41  1  0.07236900  0.11564800  0.84879100  1
  C  42  1  0.06031000  0.12627300  0.83277100  1
  C  43  1  0.06691200  0.14831100  0.82831000  1
  C  44  1  0.08553100  0.15935400  0.83931300  1
  C  61  1  0.88467600  0.16236900  0.62784800  1
  C  62  1  0.89210700  0.16519200  0.60851300  1
  C  63  1  0.87723100  0.17736700  0.59525000  1
  C  64  1  0.85570900  0.18963200  0.60167900  1
  C  65  1  0.84920300  0.18889700  0.62159700  1
  C  66  1  0.86272800  0.17445400  0.63450900  1
  C  69  1  0.90166300  0.14901300  0.63966100  1
  C  70  1  0.91036300  0.12735100  0.63444700  1
  C  71  1  0.93100800  0.11722600  0.64491400  1
  C  72  1  0.94219400  0.12793600  0.66114600  1
  C  73  1  0.93265200  0.14894000  0.66666667  1
  C  74  1  0.91331900  0.15937600  0.65564000  1
  C  91  1  0.11371700  0.87153100  0.62917100  1
  C  92  1  0.10570700  0.86865500  0.60988200  1
  C  93  1  0.12040900  0.85676000  0.59648100  1
  C  94  1  0.14230800  0.84471200  0.60275700  1
  C  95  1  0.14934500  0.84536400  0.62265300  1
  C  96  1  0.13600700  0.85961700  0.63568200  1
  C  99  1  0.09713100  0.88491600  0.64109800  1
  C  100  1  0.08828300  0.90660100  0.63595200  1
  C  101  1  0.06840200  0.91693800  0.64686600  1
  C  102  1  0.05838400  0.90651900  0.66353700  1
  C  103  1  0.06742600  0.88516900  0.66855000  1
  C  104  1  0.08593100  0.87452200  0.65712600  1
  C  121  1  0.11730900  0.16204600  0.12921900  1
  C  122  1  0.11103500  0.16447500  0.10951100  1
  C  123  1  0.12628200  0.17658400  0.09679700  1
  C  124  1  0.14807100  0.18791800  0.10377700  1
  C  125  1  0.15318600  0.18804600  0.12400700  1
  C  126  1  0.13862000  0.17435300  0.13662900  1
  C  129  1  0.09986700  0.14872300  0.14038400  1
  C  130  1  0.09187800  0.12699100  0.13492100  1
  C  131  1  0.07042800  0.11703000  0.14410400  1
  C  132  1  0.05746000  0.12819900  0.15929000  1
  C  133  1  0.06629500  0.14919600  0.16523200  1
  C  134  1  0.08656000  0.15935500  0.15544900  1
  C  151  1  0.88376200  0.87393000  0.12794500  1
  C  152  1  0.89013700  0.87119100  0.10836500  1
  C  153  1  0.87500300  0.85876000  0.09563200  1
  C  154  1  0.85343400  0.84724300  0.10254300  1
  C  155  1  0.84836100  0.84737100  0.12272000  1
  C  156  1  0.86267100  0.86149200  0.13530000  1
  C  159  1  0.90082200  0.88771500  0.13921100  1
  C  160  1  0.90811300  0.90971200  0.13398000  1
  C  161  1  0.92861800  0.92043200  0.14408100  1
  C  162  1  0.94080900  0.90975000  0.16003500  1
  C  163  1  0.93367100  0.88795700  0.16488100  1
  C  164  1  0.91447100  0.87716700  0.15427600  1
  C  181  1  0.11477200  0.87207200  0.36621900  1
  C  182  1  0.10793000  0.86924500  0.38569700  1
  C  183  1  0.12316300  0.85700000  0.39867000  1
  C  184  1  0.14529400  0.84572500  0.39208000  1
  C  185  1  0.15107100  0.84625200  0.37203700  1
  C  186  1  0.13672300  0.86022500  0.35923400  1
  C  189  1  0.09735100  0.88528700  0.35462600  1
  C  190  1  0.08869400  0.90695300  0.35987000  1
  C  191  1  0.06782800  0.91700000  0.34959600  1
  C  192  1  0.05641500  0.90624800  0.33347600  1
  C  193  1  0.06594900  0.88526900  0.32790700  1
  C  194  1  0.08543200  0.87486100  0.33878100  1
  C  211  1  0.88584900  0.16310700  0.36467600  1
  C  212  1  0.89310300  0.16579000  0.38417000  1
  C  213  1  0.87803100  0.17780000  0.39724500  1
  C  214  1  0.85579700  0.18917100  0.39071200  1
  C  215  1  0.84970700  0.18891700  0.37065200  1
  C  216  1  0.86377100  0.17503700  0.35776300  1
  C  219  1  0.90288300  0.14988300  0.35295500  1
  C  220  1  0.91158200  0.12813300  0.35801900  1
  C  221  1  0.93169700  0.11790200  0.34726900  1
  C  222  1  0.94203100  0.12844800  0.33077200  1
  C  223  1  0.93309900  0.14984100  0.32580200  1
  C  224  1  0.91445700  0.16042300  0.33714700  1
  C  241  1  0.38427100  0.37326800  0.86516100  1
  C  242  1  0.39175200  0.36973800  0.88448500  1
  C  243  1  0.37705600  0.35723400  0.89730200  1
  C  244  1  0.35543600  0.34553800  0.89041800  1
  C  245  1  0.34872300  0.34699900  0.87047400  1
  C  246  1  0.36235000  0.36159900  0.85802800  1
  C  249  1  0.40110300  0.38707900  0.85397100  1
  C  250  1  0.40932700  0.40858400  0.85988600  1
  C  251  1  0.43034400  0.41892700  0.85046000  1
  C  252  1  0.44284100  0.40821500  0.83480500  1
  C  253  1  0.43386700  0.38736900  0.82856400  1
  C  254  1  0.41381200  0.37695700  0.83837500  1
  C  271  1  0.61645000  0.66247700  0.86638600  1
  C  272  1  0.60904300  0.66628000  0.88559700  1
  C  273  1  0.62371700  0.67916500  0.89829700  1
  C  274  1  0.64503900  0.69104700  0.89138300  1
  C  275  1  0.65152800  0.68936200  0.87149100  1
  C  276  1  0.63806600  0.67433000  0.85919200  1
  C  279  1  0.59989800  0.64821500  0.85519600  1
  C  280  1  0.59242000  0.62643500  0.86091800  1
  C  281  1  0.57230900  0.61531800  0.85069700  1
  C  282  1  0.56048600  0.62551700  0.83434800  1
  C  283  1  0.56771600  0.64716800  0.82910800  1
  C  284  1  0.58675200  0.65824900  0.83963700  1
  C  301  1  0.38681200  0.66427800  0.62754000  1
  C  302  1  0.39469000  0.66820400  0.60846700  1
  C  303  1  0.37983000  0.68075200  0.59545500  1
  C  304  1  0.35779400  0.69224600  0.60200200  1
  C  305  1  0.35066200  0.69021700  0.62172300  1
  C  306  1  0.36427400  0.67543200  0.63428000  1
  C  309  1  0.40372800  0.65061600  0.63909800  1
  C  310  1  0.41263200  0.62918200  0.63340900  1
  C  311  1  0.43307700  0.61875900  0.64387800  1
  C  312  1  0.44403300  0.62905300  0.66040900  1
  C  313  1  0.43434600  0.64987400  0.66628500  1
  C  314  1  0.41503500  0.66052700  0.65542700  1
  C  331  1  0.61429000  0.37208500  0.62907200  1
  C  332  1  0.60617800  0.36837100  0.60992300  1
  C  333  1  0.62088400  0.35592300  0.59691000  1
  C  334  1  0.64293100  0.34428100  0.60347700  1
  C  335  1  0.65023500  0.34604200  0.62325900  1
  C  336  1  0.63685500  0.36077900  0.63584400  1
  C  339  1  0.59766300  0.38573100  0.64070800  1
  C  340  1  0.58872100  0.40725800  0.63519200  1
  C  341  1  0.56896500  0.41784500  0.64605400  1
  C  342  1  0.55901700  0.40775300  0.66291000  1
  C  343  1  0.56810800  0.38651900  0.66824000  1
  C  344  1  0.58663700  0.37569200  0.65696900  1
  C  361  1  0.61772400  0.66132700  0.12916600  1
  C  362  1  0.61106600  0.66462800  0.10963000  1
  C  363  1  0.62602800  0.67738100  0.09720400  1
  C  364  1  0.64795100  0.68842200  0.10434700  1
  C  365  1  0.65370100  0.68731600  0.12445900  1
  C  366  1  0.63936000  0.67305600  0.13673400  1
  C  369  1  0.60038300  0.64774400  0.14013500  1
  C  370  1  0.59230800  0.62615000  0.13436000  1
  C  371  1  0.57097900  0.61599800  0.14355300  1
  C  372  1  0.55804200  0.62697600  0.15886800  1
  C  373  1  0.56698700  0.64783700  0.16509300  1
  C  374  1  0.58728700  0.65808900  0.15543900  1
  C  391  1  0.38521500  0.37298300  0.12796000  1
  C  392  1  0.39145800  0.37006300  0.10838900  1
  C  393  1  0.37657900  0.35702600  0.09595200  1
  C  394  1  0.35503300  0.34560400  0.10305000  1
  C  395  1  0.34955200  0.34664000  0.12314200  1
  C  396  1  0.36395100  0.36094800  0.13549100  1
  C  399  1  0.40238100  0.38678800  0.13902700  1
  C  400  1  0.40884300  0.40900100  0.13399300  1
  C  401  1  0.42942500  0.41990000  0.14380900  1
  C  402  1  0.44153300  0.40962100  0.15998700  1
  C  403  1  0.43496200  0.38768000  0.16482300  1
  C  404  1  0.41630300  0.37642000  0.15403400  1
  C  421  1  0.61551900  0.37280900  0.36649100  1
  C  422  1  0.60832200  0.36907600  0.38576800  1
  C  423  1  0.62340700  0.35630900  0.39845900  1
  C  424  1  0.64573800  0.34544100  0.39170700  1
  C  425  1  0.65203600  0.34712700  0.37181000  1
  C  426  1  0.63782300  0.36161000  0.35937100  1
  C  429  1  0.59821400  0.38631300  0.35509800  1
  C  430  1  0.58942800  0.40781100  0.36069400  1
  C  431  1  0.56882100  0.41813700  0.35033100  1
  C  432  1  0.55766800  0.40773900  0.33392400  1
  C  433  1  0.56723700  0.38685700  0.32811400  1
  C  434  1  0.58661100  0.37625600  0.33895000  1
  C  451  1  0.38774000  0.66489500  0.36519800  1
  C  452  1  0.39548500  0.66882000  0.38441300  1
  C  453  1  0.38050100  0.68135700  0.39717200  1
  C  454  1  0.35777300  0.69190600  0.39052500  1
  C  455  1  0.35095500  0.69014100  0.37065700  1
  C  456  1  0.36504300  0.67580100  0.35817300  1
  C  459  1  0.40473100  0.65137200  0.35374900  1
  C  460  1  0.41376000  0.62989700  0.35933500  1
  C  461  1  0.43366200  0.61938000  0.34857000  1
  C  462  1  0.44365500  0.62946600  0.33172700  1
  C  463  1  0.43446900  0.65064700  0.32632600  1
  C  464  1  0.41584000  0.66143900  0.33752900  1
  C  481  1  0.89654900  0.86330900  0.04670700  1
  C  482  1  0.91174500  0.85117300  0.03369900  1
  C  484  1  0.89205800  0.86898400  0.00661300  1
  C  485  1  0.87636400  0.88192400  0.01891200  1
  C  486  1  0.87894100  0.87884600  0.03897900  1
  C  488  1  0.89012700  0.87150200  0.98646500  1
  C  489  1  0.90391000  0.86071000  0.95508100  1
  C  490  1  0.88711000  0.87605000  0.94626800  1
  C  491  1  0.87154300  0.88926000  0.95822100  1
  C  494  1  0.87264800  0.88712200  0.97845200  1
  C  495  1  0.85703800  0.89991500  0.99076100  1
  C  496  1  0.85884900  0.89730300  0.01086100  1
  C  501  1  0.89896500  0.86022400  0.06635300  1
  C  502  1  0.88526200  0.87825800  0.92658500  1
  C  505  1  0.10386100  0.17269900  0.04782100  1
  C  506  1  0.08924700  0.18554700  0.03479000  1
  C  508  1  0.10786200  0.16729800  0.00771700  1
  C  509  1  0.12290800  0.15362400  0.02004100  1
  C  510  1  0.12058900  0.15657500  0.04011100  1
  C  512  1  0.10962000  0.16496100  0.98756200  1
  C  513  1  0.09637200  0.17665900  0.95614100  1
  C  514  1  0.11236300  0.16081300  0.94734300  1
  C  515  1  0.12724300  0.14687900  0.95933300  1
  C  518  1  0.12626900  0.14879800  0.97957200  1
  C  519  1  0.14122500  0.13526700  0.99190700  1
  C  520  1  0.13959500  0.13769400  0.01201200  1
  C  525  1  0.10187100  0.17578400  0.06746900  1
  C  526  1  0.11403500  0.15872600  0.92765300  1
  C  529  1  0.90040700  0.17236800  0.44614900  1
  C  530  1  0.91547800  0.18445000  0.45928500  1
  C  532  1  0.89538100  0.16740100  0.48621000  1
  C  533  1  0.87982500  0.15451900  0.47377500  1
  C  534  1  0.88267300  0.15723400  0.45372500  1
  C  536  1  0.89313100  0.16527400  0.50634700  1
  C  537  1  0.90646700  0.17637500  0.53786200  1
  C  538  1  0.88948400  0.16148000  0.54654200  1
  C  539  1  0.87405100  0.14834200  0.53444300  1
  C  542  1  0.87547300  0.15010200  0.51421300  1
  C  543  1  0.86001000  0.13735700  0.50176700  1
  C  544  1  0.86213400  0.13958600  0.48167400  1
  C  549  1  0.90282700  0.17527500  0.42652100  1
  C  550  1  0.88738000  0.15955500  0.56621800  1
  C  553  1  0.10002800  0.86096200  0.44721100  1
  C  554  1  0.08531600  0.84824000  0.45994100  1
  C  556  1  0.10335900  0.86632600  0.48738400  1
  C  557  1  0.11849400  0.87986400  0.47537000  1
  C  558  1  0.11651200  0.87693300  0.45525400  1
  C  560  1  0.10476100  0.86864700  0.50757000  1
  C  561  1  0.09113400  0.85700700  0.53870700  1
  C  562  1  0.10685100  0.87270100  0.54783800  1
  C  563  1  0.12179600  0.88653200  0.53616200  1
  C  566  1  0.12114600  0.88466000  0.51590300  1
  C  567  1  0.13619700  0.89806100  0.50387700  1
  C  568  1  0.13491400  0.89565100  0.48374100  1
  C  573  1  0.09827800  0.85797100  0.42752700  1
  C  574  1  0.10848700  0.87454800  0.56756400  1
  C  577  1  0.39836000  0.36017900  0.04703100  1
  C  578  1  0.41302600  0.34740500  0.03414100  1
  C  580  1  0.39403100  0.36541400  0.00687200  1
  C  581  1  0.37890300  0.37899000  0.01905300  1
  C  582  1  0.38139100  0.37612800  0.03914600  1
  C  584  1  0.39216700  0.36773000  0.98669800  1
  C  585  1  0.40547000  0.35621500  0.95537500  1
  C  586  1  0.38930800  0.37196700  0.94644900  1
  C  587  1  0.37428300  0.38573100  0.95832500  1
  C  590  1  0.37532000  0.38377300  0.97856600  1
  C  591  1  0.36025900  0.39718500  0.99076000  1
  C  592  1  0.36200400  0.39478000  0.01087800  1
  C  597  1  0.40062500  0.35732500  0.06671600  1
  C  598  1  0.38759100  0.37421900  0.92675200  1
  C  601  1  0.60423600  0.67380600  0.04801400  1
  C  602  1  0.58870400  0.68588000  0.03501000  1
  C  604  1  0.60906200  0.66918300  0.00788200  1
  C  605  1  0.62511000  0.65632800  0.02017300  1
  C  606  1  0.62234500  0.65885900  0.04025000  1
  C  608  1  0.61118100  0.66718100  0.98772000  1
  C  609  1  0.59718300  0.67828700  0.95630500  1
  C  610  1  0.61455100  0.66357900  0.94746900  1
  C  611  1  0.63051200  0.65053900  0.95946500  1
  C  614  1  0.62922500  0.65218900  0.97970600  1
  C  615  1  0.64518500  0.63948400  0.99201100  1
  C  616  1  0.64316600  0.64156600  0.01212000  1
  C  621  1  0.60172300  0.67637300  0.06768600  1
  C  622  1  0.61654800  0.66164500  0.92776400  1
  C  625  1  0.40308400  0.67722800  0.44609400  1
  C  626  1  0.41752500  0.68982300  0.45925600  1
  C  628  1  0.39808500  0.67213300  0.48615400  1
  C  629  1  0.38319900  0.65872300  0.47368100  1
  C  630  1  0.38603200  0.66150700  0.45364200  1
  C  632  1  0.39583300  0.66991500  0.50628800  1
  C  633  1  0.40851600  0.68137100  0.53786500  1
  C  634  1  0.39219400  0.66588900  0.54648300  1
  C  635  1  0.37741500  0.65229200  0.53430900  1
  C  638  1  0.37884600  0.65414400  0.51408900  1
  C  639  1  0.36404100  0.64088900  0.50160400  1
  C  640  1  0.36616800  0.64319400  0.48152300  1
  C  645  1  0.40549100  0.68007200  0.42645900  1
  C  646  1  0.39011600  0.66371600  0.56615300  1
  C  649  1  0.60117500  0.36023000  0.44730200  1
  C  650  1  0.58543300  0.34856100  0.46010500  1
  C  652  1  0.60540100  0.36527600  0.48747900  1
  C  653  1  0.62166500  0.37771200  0.47539300  1
  C  654  1  0.61920500  0.37497000  0.45528800  1
  C  656  1  0.60716700  0.36752900  0.50765900  1
  C  657  1  0.59262200  0.35704600  0.53888100  1
  C  658  1  0.60982500  0.37162400  0.54792400  1
  C  659  1  0.62600400  0.38426800  0.53614900  1
  C  662  1  0.62507400  0.38236100  0.51590000  1
  C  663  1  0.64126800  0.39463600  0.50380100  1
  C  664  1  0.63960000  0.39230300  0.48367500  1
  C  669  1  0.59879700  0.35760400  0.42760000  1
  C  670  1  0.61165700  0.37359100  0.56764600  1
  C  673  1  0.95408000  0.97597000  0.85422500  1
  C  674  1  0.94979100  0.99730700  0.84659900  1
  C  676  1  0.98912400  0.01121100  0.85967200  1
  C  677  1  0.99462000  0.99034900  0.86808400  1
  C  678  1  0.97691100  0.97300400  0.86518100  1
  C  680  1  0.00668800  0.02879300  0.86162300  1
  C  681  1  0.01799500  0.06616700  0.85474700  1
  C  682  1  0.04149300  0.06444200  0.86496000  1
  C  683  1  0.04691700  0.04389500  0.87379200  1
  C  686  1  0.02991300  0.02583600  0.87218100  1
  C  687  1  0.03513400  0.00508400  0.88067100  1
  C  688  1  0.01775800  0.98755500  0.87859900  1
  C  693  1  0.93820200  0.95850600  0.84861100  1
  C  694  1  0.05778500  0.08244200  0.86744000  1
  C  697  1  0.95548600  0.06136500  0.63946100  1
  C  698  1  0.94877000  0.03940800  0.64373500  1
  C  700  1  0.99058200  0.02560000  0.63596700  1
  C  701  1  0.99861800  0.04713400  0.63098800  1
  C  702  1  0.98075700  0.06474200  0.63274700  1
  C  704  1  0.00823200  0.00776000  0.63570100  1
  C  705  1  0.01731100  0.96977700  0.64228100  1
  C  706  1  0.04366200  0.97216800  0.63817700  1
  C  707  1  0.05168000  0.99325000  0.63213700  1
  C  710  1  0.03424100  0.01123300  0.63067600  1
  C  711  1  0.04191500  0.03258700  0.62516100  1
  C  712  1  0.02429000  0.05032100  0.62526200  1
  C  717  1  0.93901200  0.07872600  0.64446600  1
  C  718  1  0.06150500  0.95558400  0.64246700  1
  C  721  1  0.04511200  0.06158700  0.13828000  1
  C  722  1  0.05013100  0.03968400  0.14424500  1
  C  724  1  0.00905900  0.02700200  0.13340300  1
  C  725  1  0.00278500  0.04850900  0.12669700  1
  C  726  1  0.02104900  0.06548200  0.12921100  1
  C  728  1  0.99080600  0.00985800  0.13217300  1
  C  729  1  0.97909900  0.97252400  0.13887100  1
  C  730  1  0.95370200  0.97563000  0.13196900  1
  C  731  1  0.94781600  0.99679000  0.12444600  1
  C  734  1  0.96598500  0.01405100  0.12436800  1
  C  735  1  0.96010900  0.03536400  0.11730600  1
  C  736  1  0.97829100  0.05236900  0.11843000  1
  C  741  1  0.06149200  0.07864600  0.14399800  1
  C  742  1  0.93454800  0.95957100  0.13355400  1
  C  745  1  0.04357800  0.97291700  0.35491500  1
  C  746  1  0.05050500  0.99485700  0.35077800  1
  C  748  1  0.00867700  0.00882400  0.35827700  1
  C  749  1  0.00042600  0.98730800  0.36310800  1
  C  750  1  0.01819500  0.96962500  0.36141900  1
  C  752  1  0.99113900  0.02674500  0.35846200  1
  C  753  1  0.98240900  0.06479500  0.35193800  1
  C  754  1  0.95598000  0.06250700  0.35580700  1
  C  755  1  0.94773000  0.04144200  0.36170600  1
  C  758  1  0.96503000  0.02337100  0.36325200  1
  C  759  1  0.95713300  0.00203200  0.36862400  1
  C  760  1  0.97464700  0.98421600  0.36860700  1
  C  765  1  0.05995800  0.95549700  0.34991700  1
  C  766  1  0.93831800  0.07919800  0.35143600  1
  C  769  1  0.45567400  0.47432300  0.85676100  1
  C  770  1  0.45065700  0.49625800  0.85087600  1
  C  772  1  0.49177300  0.50888600  0.86167900  1
  C  773  1  0.49805000  0.48734700  0.86830400  1
  C  774  1  0.47977100  0.47038500  0.86576500  1
  C  776  1  0.51002400  0.52603400  0.86296500  1
  C  777  1  0.52173200  0.56342200  0.85645600  1
  C  778  1  0.54709500  0.56031200  0.86342900  1
  C  779  1  0.55297100  0.53909900  0.87085000  1
  C  782  1  0.53483100  0.52181100  0.87078400  1
  C  783  1  0.54072100  0.50045900  0.87774900  1
  C  784  1  0.52255300  0.48344900  0.87654300  1
  C  789  1  0.43922100  0.45731000  0.85103700  1
  C  790  1  0.56621500  0.57645200  0.86212200  1
  C  793  1  0.45722300  0.56286400  0.63805500  1
  C  794  1  0.45023000  0.54090500  0.64205400  1
  C  796  1  0.49209500  0.52692200  0.63469100  1
  C  797  1  0.50041900  0.54845700  0.62999500  1
  C  798  1  0.48266900  0.56615600  0.63168600  1
  C  800  1  0.50960400  0.50897600  0.63450100  1
  C  801  1  0.51824400  0.47088100  0.64091100  1
  C  802  1  0.54470100  0.47315100  0.63713500  1
  C  803  1  0.55301400  0.49424300  0.63135700  1
  C  806  1  0.53575300  0.51234400  0.62982800  1
  C  807  1  0.54372800  0.53370500  0.62459100  1
  C  808  1  0.52624700  0.55154600  0.62462200  1
  C  813  1  0.44081700  0.58026900  0.64306600  1
  C  814  1  0.56233400  0.45644500  0.64155000  1
  C  817  1  0.54659600  0.56012200  0.13830000  1
  C  818  1  0.55115900  0.53874200  0.14574500  1
  C  820  1  0.51185700  0.52469100  0.13275500  1
  C  821  1  0.50608800  0.54559500  0.12452400  1
  C  822  1  0.52365300  0.56303600  0.12747000  1
  C  824  1  0.49443700  0.50700800  0.13077300  1
  C  825  1  0.48352400  0.46950200  0.13745900  1
  C  826  1  0.45990900  0.47117700  0.12739800  1
  C  827  1  0.45421700  0.49176600  0.11873500  1
  C  830  1  0.47108300  0.50991500  0.12036600  1
  C  831  1  0.46559600  0.53070600  0.11204600  1
  C  832  1  0.48283200  0.54833200  0.11414600  1
  C  837  1  0.56231500  0.57764900  0.14400000  1
  C  838  1  0.44369800  0.45312800  0.12494100  1
  C  841  1  0.54492100  0.47409900  0.35614300  1
  C  842  1  0.55199800  0.49604500  0.35216700  1
  C  844  1  0.51022900  0.51013900  0.35967500  1
  C  845  1  0.50183000  0.48861900  0.36434900  1
  C  846  1  0.51949500  0.47086900  0.36257800  1
  C  848  1  0.49279600  0.52813400  0.35993900  1
  C  849  1  0.48429000  0.56626400  0.35360500  1
  C  850  1  0.45783400  0.56405300  0.35740900  1
  C  851  1  0.44945400  0.54297900  0.36317400  1
  C  854  1  0.46665100  0.52483000  0.36465500  1
  C  855  1  0.45860700  0.50348400  0.36987700  1
  C  856  1  0.47601500  0.48559300  0.36977900  1
  C  861  1  0.56122900  0.45665200  0.35108200  1
  C  862  1  0.44025000  0.58078800  0.35299400  1
  C  865  1  0.69675500  0.73267100  0.85911500  1
  C  866  1  0.69663800  0.75477500  0.85262600  1
  C  868  1  0.74169200  0.75917300  0.85857700  1
  C  869  1  0.74335700  0.73698300  0.86508400  1
  C  870  1  0.72079600  0.72408300  0.86523100  1
  C  872  1  0.76366300  0.77285900  0.85892700  1
  C  873  1  0.78303700  0.80827300  0.85396300  1
  C  874  1  0.80736500  0.80086200  0.86049400  1
  C  875  1  0.80894700  0.77847200  0.86622500  1
  C  878  1  0.78751500  0.76430800  0.86568300  1
  C  879  1  0.78906500  0.74218100  0.87198100  1
  C  880  1  0.76723800  0.72869800  0.87172300  1
  C  885  1  0.67363100  0.72144800  0.86184700  1
  C  886  1  0.82888200  0.81440800  0.86287700  1
  C  889  1  0.30250300  0.30410400  0.85865500  1
  C  890  1  0.30202800  0.28209700  0.85194100  1
  C  892  1  0.25731300  0.27790800  0.85885700  1
  C  893  1  0.25624900  0.30001100  0.86563100  1
  C  894  1  0.27892500  0.31276000  0.86540000  1
  C  896  1  0.23524700  0.26436100  0.85956800  1
  C  897  1  0.21524000  0.22916800  0.85462700  1
  C  898  1  0.19138600  0.23664800  0.86176600  1
  C  899  1  0.19036700  0.25894200  0.86780900  1
  C  902  1  0.21189900  0.27296600  0.86695900  1
  C  903  1  0.21094200  0.29500300  0.87352800  1
  C  904  1  0.23286600  0.30834900  0.87290900  1
  C  909  1  0.32588700  0.31508500  0.86113000  1
  C  910  1  0.16980900  0.22326000  0.86425000  1
  C  913  1  0.69682900  0.30334300  0.63555900  1
  C  914  1  0.69760100  0.28126900  0.64207700  1
  C  916  1  0.74245200  0.27730700  0.63555000  1
  C  917  1  0.74325100  0.29949100  0.62903900  1
  C  918  1  0.72031900  0.31218400  0.62917600  1
  C  920  1  0.76473600  0.26378300  0.63491200  1
  C  921  1  0.78503300  0.22848500  0.63967700  1
  C  922  1  0.80885700  0.23603100  0.63285500  1
  C  923  1  0.80979300  0.25838400  0.62708000  1
  C  926  1  0.78806000  0.27246200  0.62786900  1
  C  927  1  0.78878000  0.29459800  0.62158500  1
  C  928  1  0.76660100  0.30795500  0.62212900  1
  C  933  1  0.67331800  0.31436700  0.63317300  1
  C  934  1  0.83054600  0.22258000  0.63054200  1
  C  937  1  0.30375400  0.73233700  0.63437800  1
  C  938  1  0.30272000  0.75408100  0.64167700  1
  C  940  1  0.25780300  0.75794600  0.63481100  1
  C  941  1  0.25728800  0.73609200  0.62746700  1
  C  942  1  0.28037400  0.72361000  0.62739500  1
  C  944  1  0.23532000  0.77126000  0.63447200  1
  C  945  1  0.21447700  0.80605100  0.64042700  1
  C  946  1  0.19073500  0.79856300  0.63313600  1
  C  947  1  0.19013300  0.77652400  0.62646800  1
  C  950  1  0.21209800  0.76268100  0.62688500  1
  C  951  1  0.21167700  0.74087900  0.61973800  1
  C  952  1  0.23404600  0.72774100  0.61999100  1
  C  957  1  0.32736600  0.72156700  0.63194500  1
  C  958  1  0.16876900  0.81180000  0.63122000  1
  C  961  1  0.30430100  0.30341400  0.13545300  1
  C  962  1  0.30426800  0.28137500  0.14209200  1
  C  964  1  0.25921800  0.27712300  0.13601800  1
  C  965  1  0.25772100  0.29925300  0.12934000  1
  C  966  1  0.28035300  0.31205200  0.12918900  1
  C  968  1  0.23717500  0.26352700  0.13565300  1
  C  969  1  0.21758500  0.22822400  0.14071500  1
  C  970  1  0.19337300  0.23566000  0.13396400  1
  C  971  1  0.19195200  0.25800900  0.12809900  1
  C  974  1  0.21343800  0.27210700  0.12869500  1
  C  975  1  0.21205900  0.29417300  0.12222500  1
  C  976  1  0.23395300  0.30757300  0.12251000  1
  C  981  1  0.32747200  0.31448500  0.13256300  1
  C  982  1  0.17187900  0.22213600  0.13138300  1
  C  985  1  0.69888200  0.73087500  0.13642700  1
  C  986  1  0.69873900  0.75316400  0.14240700  1
  C  988  1  0.74366300  0.75754700  0.13643600  1
  C  989  1  0.74535900  0.73517200  0.13046300  1
  C  990  1  0.72286900  0.72218400  0.13057500  1
  C  992  1  0.76551600  0.77133300  0.13572900  1
  C  993  1  0.78465700  0.80702400  0.13972500  1
  C  994  1  0.80888300  0.79956400  0.13329900  1
  C  995  1  0.81055900  0.77699400  0.12817300  1
  C  998  1  0.78928400  0.76270500  0.12914900  1
  C  999  1  0.79087900  0.74038800  0.12341100  1
  C  1000  1  0.76916300  0.72679700  0.12402100  1
  C  1005  1  0.67577300  0.71960500  0.13361100  1
  C  1006  1  0.83014100  0.81321600  0.13041000  1
  C  1009  1  0.30395300  0.73239100  0.35824400  1
  C  1010  1  0.30293900  0.75433800  0.35142500  1
  C  1012  1  0.25813800  0.75815400  0.35819900  1
  C  1013  1  0.25759700  0.73608700  0.36502800  1
  C  1014  1  0.28062200  0.72352500  0.36491200  1
  C  1016  1  0.23576800  0.77157000  0.35883400  1
  C  1017  1  0.21515900  0.80668800  0.35379400  1
  C  1018  1  0.19150500  0.79914800  0.36094300  1
  C  1019  1  0.19081500  0.77688300  0.36700800  1
  C  1022  1  0.21262300  0.76289700  0.36620000  1
  C  1023  1  0.21215300  0.74087200  0.37279700  1
  C  1024  1  0.23441700  0.72762300  0.37225200  1
  C  1029  1  0.32756400  0.72159900  0.36077700  1
  C  1030  1  0.16980300  0.81255100  0.36339400  1
  C  1033  1  0.69780000  0.30424200  0.35894900  1
  C  1034  1  0.69814200  0.28219600  0.35235300  1
  C  1036  1  0.74326100  0.27804100  0.35819500  1
  C  1037  1  0.74447600  0.30018900  0.36476800  1
  C  1038  1  0.72161800  0.31296900  0.36501100  1
  C  1040  1  0.76549000  0.26442500  0.35848400  1
  C  1041  1  0.78534800  0.22904000  0.35342100  1
  C  1042  1  0.80949600  0.23644000  0.35999700  1
  C  1043  1  0.81081700  0.25879000  0.36576500  1
  C  1046  1  0.78915800  0.27297700  0.36524700  1
  C  1047  1  0.79028900  0.29508100  0.37158400  1
  C  1048  1  0.76817100  0.30853200  0.37138100  1
  C  1053  1  0.67448500  0.31535100  0.36174500  1
  C  1054  1  0.83109900  0.22282400  0.36232000  1
  C  1057  1  0.96254200  0.85749200  0.78928400  1
  C  1058  1  0.95602400  0.84603400  0.77228000  1
  C  1060  1  0.99597700  0.85487900  0.75760000  1
  C  1061  1  0.00398700  0.86637400  0.77436700  1
  C  1062  1  0.98711100  0.86719800  0.79015300  1
  C  1064  1  0.01189300  0.85418400  0.74126400  1
  C  1065  1  0.01815200  0.84301800  0.70859900  1
  C  1066  1  0.04174100  0.85410300  0.70770500  1
  C  1067  1  0.05050900  0.86499000  0.72446100  1
  C  1070  1  0.03579000  0.86523300  0.74145500  1
  C  1071  1  0.04371300  0.87654300  0.75823700  1
  C  1072  1  0.02798000  0.87701800  0.77461200  1
  C  1077  1  0.94488300  0.86011800  0.80400000  1
  C  1078  1  0.05442500  0.85618900  0.69044700  1
  C  1081  1  0.03500200  0.17851100  0.79002700  1
  C  1082  1  0.04044200  0.19132100  0.77362900  1
  C  1084  1  0.00192100  0.17996800  0.75773600  1
  C  1085  1  0.99499600  0.16702800  0.77387600  1
  C  1086  1  0.01165900  0.16677500  0.78998300  1
  C  1088  1  0.98625300  0.18018300  0.74108500  1
  C  1089  1  0.97924200  0.19244000  0.70873300  1
  C  1090  1  0.95700600  0.17956500  0.70691800  1
  C  1091  1  0.94924100  0.16720500  0.72306900  1
  C  1094  1  0.96369100  0.16726500  0.74035000  1
  C  1095  1  0.95681000  0.15453900  0.75652000  1
  C  1096  1  0.97230200  0.15449000  0.77320100  1
  C  1101  1  0.05260400  0.17659700  0.80504200  1
  C  1102  1  0.94458000  0.17756600  0.68941000  1
  C  1105  1  0.03687000  0.17918700  0.20450300  1
  C  1106  1  0.04349800  0.19046900  0.22157400  1
  C  1108  1  0.00381400  0.18117600  0.23644700  1
  C  1109  1  0.99568800  0.16985700  0.21961900  1
  C  1110  1  0.01237300  0.16934100  0.20370800  1
  C  1112  1  0.98810800  0.18155500  0.25290600  1
  C  1113  1  0.98216300  0.19229100  0.28571400  1
  C  1114  1  0.95865800  0.18108300  0.28666300  1
  C  1115  1  0.94977800  0.17033600  0.26986900  1
  C  1118  1  0.96429200  0.17037700  0.25277300  1
  C  1119  1  0.95624500  0.15925000  0.23592900  1
  C  1120  1  0.97177500  0.15907800  0.21943800  1
  C  1125  1  0.05440200  0.17682200  0.18966400  1
  C  1126  1  0.94608900  0.17887600  0.30395600  1
  C  1129  1  0.96455400  0.85779500  0.20373000  1
  C  1130  1  0.95877000  0.84492300  0.22002200  1
  C  1132  1  0.99724900  0.85579500  0.23623600  1
  C  1133  1  0.00450800  0.86880600  0.22022700  1
  C  1134  1  0.98803100  0.86933700  0.20401200  1
  C  1136  1  0.01275400  0.85525600  0.25296900  1
  C  1137  1  0.01932900  0.84257100  0.28524900  1
  C  1138  1  0.04174100  0.85518100  0.28727500  1
  C  1139  1  0.04980300  0.86764600  0.27127000  1
  C  1142  1  0.03549400  0.86792900  0.25392300  1
  C  1143  1  0.04269600  0.88074800  0.23789000  1
  C  1144  1  0.02736400  0.88111300  0.22112500  1
  C  1149  1  0.94717700  0.85985500  0.18857000  1
  C  1150  1  0.05406800  0.85687400  0.30485000  1
  C  1153  1  0.46330700  0.35772800  0.78911400  1
  C  1154  1  0.45686800  0.34635900  0.77205000  1
  C  1156  1  0.49668200  0.35565000  0.75737900  1
  C  1157  1  0.50461800  0.36706400  0.77420700  1
  C  1158  1  0.48777300  0.36762300  0.79001800  1
  C  1160  1  0.51256000  0.35520800  0.74102300  1
  C  1161  1  0.51884000  0.34432500  0.70829800  1
  C  1162  1  0.54232400  0.35557400  0.70743600  1
  C  1163  1  0.55102700  0.36641500  0.72423300  1
  C  1166  1  0.53634800  0.36642900  0.74124800  1
  C  1167  1  0.54420700  0.37765000  0.75809300  1
  C  1168  1  0.52851100  0.37787400  0.77449200  1
  C  1173  1  0.44569700  0.36002200  0.80389800  1
  C  1174  1  0.55499400  0.35774100  0.69018600  1
  C  1177  1  0.53672800  0.67685600  0.79003200  1
  C  1178  1  0.54221200  0.68992100  0.77379700  1
  C  1180  1  0.50367000  0.67891400  0.75775400  1
  C  1181  1  0.49671700  0.66569300  0.77370900  1
  C  1182  1  0.51337100  0.66513800  0.78981500  1
  C  1184  1  0.48797100  0.67950400  0.74113000  1
  C  1185  1  0.48094300  0.69243600  0.70898600  1
  C  1186  1  0.45862900  0.67968700  0.70701000  1
  C  1187  1  0.45084600  0.66702400  0.72297400  1
  C  1190  1  0.46534600  0.66666667  0.74022900  1
  C  1191  1  0.45844800  0.65364900  0.75620900  1
  C  1192  1  0.47397300  0.65323200  0.77287200  1
  C  1197  1  0.55419700  0.67490300  0.80513400  1
  C  1198  1  0.44620900  0.67803000  0.68947600  1
  C  1201  1  0.53788800  0.67773900  0.20457500  1
  C  1202  1  0.54448400  0.68938900  0.22146200  1
  C  1204  1  0.50484500  0.68030800  0.23648800  1
  C  1205  1  0.49676000  0.66859900  0.21985700  1
  C  1206  1  0.51343700  0.66779600  0.20395300  1
  C  1208  1  0.48913200  0.68102100  0.25293000  1
  C  1209  1  0.48315000  0.69247400  0.28554400  1
  C  1210  1  0.45970900  0.68119300  0.28669200  1
  C  1211  1  0.45085600  0.67006500  0.27008400  1
  C  1214  1  0.46536000  0.66977500  0.25298800  1
  C  1215  1  0.45735800  0.65825000  0.23633900  1
  C  1216  1  0.47288800  0.65775700  0.21985500  1
  C  1221  1  0.55535600  0.67524800  0.18971400  1
  C  1222  1  0.44723300  0.67924500  0.30404400  1
  C  1225  1  0.46640000  0.35802400  0.20368400  1
  C  1226  1  0.46082100  0.34507300  0.21996900  1
  C  1228  1  0.49899600  0.35656000  0.23624600  1
  C  1229  1  0.50605500  0.36965500  0.22023800  1
  C  1230  1  0.48963200  0.36991900  0.20399200  1
  C  1232  1  0.51442200  0.35630200  0.25301900  1
  C  1233  1  0.52107300  0.34379200  0.28533600  1
  C  1234  1  0.54318200  0.35677700  0.28741400  1
  C  1235  1  0.55108800  0.36931900  0.27140900  1
  C  1238  1  0.53688100  0.36933100  0.25401600  1
  C  1239  1  0.54390300  0.38221400  0.23797600  1
  C  1240  1  0.52864900  0.38230800  0.22117100  1
  C  1245  1  0.44905100  0.35982000  0.18849400  1
  C  1246  1  0.55540100  0.35861300  0.30501700  1
  C  1249  1  0.67198800  0.87511500  0.86469300  1
  C  1250  1  0.67885300  0.87272000  0.88428000  1
  C  1251  1  0.66395500  0.86072900  0.89732800  1
  C  1252  1  0.64272500  0.84846000  0.89056300  1
  C  1253  1  0.63684800  0.84852300  0.87043400  1
  C  1254  1  0.65064200  0.86260400  0.85763700  1
  C  1257  1  0.68907000  0.88849600  0.85328100  1
  C  1258  1  0.69711300  0.91024300  0.85866000  1
  C  1259  1  0.71847200  0.92019300  0.84934100  1
  C  1260  1  0.73138400  0.90891100  0.83418700  1
  C  1261  1  0.72242600  0.88793000  0.82829200  1
  C  1262  1  0.70217100  0.87784200  0.83813700  1
  C  1279  1  0.90558200  0.16223300  0.86573600  1
  C  1280  1  0.89904800  0.16417600  0.88533200  1
  C  1281  1  0.91383600  0.17637300  0.89848800  1
  C  1282  1  0.93470900  0.18903500  0.89185300  1
  C  1283  1  0.94037600  0.18915300  0.87175200  1
  C  1284  1  0.92657100  0.17508000  0.85880800  1
  C  1287  1  0.88873300  0.14865900  0.85415600  1
  C  1288  1  0.88227000  0.12631200  0.85876900  1
  C  1289  1  0.86166200  0.11564800  0.84879100  1
  C  1290  1  0.84960300  0.12627300  0.83277100  1
  C  1291  1  0.85620500  0.14831100  0.82831000  1
  C  1292  1  0.87482400  0.15935400  0.83931300  1
  C  1309  1  0.67396900  0.16236900  0.62784800  1
  C  1310  1  0.68140000  0.16519200  0.60851300  1
  C  1311  1  0.66652400  0.17736700  0.59525000  1
  C  1312  1  0.64500200  0.18963200  0.60167900  1
  C  1313  1  0.63849600  0.18889700  0.62159700  1
  C  1314  1  0.65202100  0.17445400  0.63450900  1
  C  1317  1  0.69095600  0.14901300  0.63966100  1
  C  1318  1  0.69965600  0.12735100  0.63444700  1
  C  1319  1  0.72030100  0.11722600  0.64491400  1
  C  1320  1  0.73148700  0.12793600  0.66114600  1
  C  1321  1  0.72194500  0.14894000  0.66666667  1
  C  1322  1  0.70261200  0.15937600  0.65564000  1
  C  1339  1  0.90301000  0.87153100  0.62917100  1
  C  1340  1  0.89500000  0.86865500  0.60988200  1
  C  1341  1  0.90970200  0.85676000  0.59648100  1
  C  1342  1  0.93160100  0.84471200  0.60275700  1
  C  1343  1  0.93863800  0.84536400  0.62265300  1
  C  1344  1  0.92530000  0.85961700  0.63568200  1
  C  1347  1  0.88642400  0.88491600  0.64109800  1
  C  1348  1  0.87757600  0.90660100  0.63595200  1
  C  1349  1  0.85769500  0.91693800  0.64686600  1
  C  1350  1  0.84767700  0.90651900  0.66353700  1
  C  1351  1  0.85671900  0.88516900  0.66855000  1
  C  1352  1  0.87522400  0.87452200  0.65712600  1
  C  1369  1  0.90660200  0.16204600  0.12921900  1
  C  1370  1  0.90032800  0.16447500  0.10951100  1
  C  1371  1  0.91557500  0.17658400  0.09679700  1
  C  1372  1  0.93736400  0.18791800  0.10377700  1
  C  1373  1  0.94247900  0.18804600  0.12400700  1
  C  1374  1  0.92791300  0.17435300  0.13662900  1
  C  1377  1  0.88916000  0.14872300  0.14038400  1
  C  1378  1  0.88117100  0.12699100  0.13492100  1
  C  1379  1  0.85972100  0.11703000  0.14410400  1
  C  1380  1  0.84675300  0.12819900  0.15929000  1
  C  1381  1  0.85558800  0.14919600  0.16523200  1
  C  1382  1  0.87585300  0.15935500  0.15544900  1
  C  1399  1  0.67305500  0.87393000  0.12794500  1
  C  1400  1  0.67943000  0.87119100  0.10836500  1
  C  1401  1  0.66429600  0.85876000  0.09563200  1
  C  1402  1  0.64272700  0.84724300  0.10254300  1
  C  1403  1  0.63765400  0.84737100  0.12272000  1
  C  1404  1  0.65196400  0.86149200  0.13530000  1
  C  1407  1  0.69011500  0.88771500  0.13921100  1
  C  1408  1  0.69740600  0.90971200  0.13398000  1
  C  1409  1  0.71791100  0.92043200  0.14408100  1
  C  1410  1  0.73010200  0.90975000  0.16003500  1
  C  1411  1  0.72296400  0.88795700  0.16488100  1
  C  1412  1  0.70376400  0.87716700  0.15427600  1
  C  1429  1  0.90406500  0.87207200  0.36621900  1
  C  1430  1  0.89722300  0.86924500  0.38569700  1
  C  1431  1  0.91245600  0.85700000  0.39867000  1
  C  1432  1  0.93458700  0.84572500  0.39208000  1
  C  1433  1  0.94036400  0.84625200  0.37203700  1
  C  1434  1  0.92601600  0.86022500  0.35923400  1
  C  1437  1  0.88664400  0.88528700  0.35462600  1
  C  1438  1  0.87798700  0.90695300  0.35987000  1
  C  1439  1  0.85712100  0.91700000  0.34959600  1
  C  1440  1  0.84570800  0.90624800  0.33347600  1
  C  1441  1  0.85524200  0.88526900  0.32790700  1
  C  1442  1  0.87472500  0.87486100  0.33878100  1
  C  1459  1  0.67514200  0.16310700  0.36467600  1
  C  1460  1  0.68239600  0.16579000  0.38417000  1
  C  1461  1  0.66732400  0.17780000  0.39724500  1
  C  1462  1  0.64509000  0.18917100  0.39071200  1
  C  1463  1  0.63900000  0.18891700  0.37065200  1
  C  1464  1  0.65306400  0.17503700  0.35776300  1
  C  1467  1  0.69217600  0.14988300  0.35295500  1
  C  1468  1  0.70087500  0.12813300  0.35801900  1
  C  1469  1  0.72099000  0.11790200  0.34726900  1
  C  1470  1  0.73132400  0.12844800  0.33077200  1
  C  1471  1  0.72239200  0.14984100  0.32580200  1
  C  1472  1  0.70375000  0.16042300  0.33714700  1
  C  1489  1  0.17356400  0.37326800  0.86516100  1
  C  1490  1  0.18104500  0.36973800  0.88448500  1
  C  1491  1  0.16634900  0.35723400  0.89730200  1
  C  1492  1  0.14472900  0.34553800  0.89041800  1
  C  1493  1  0.13801600  0.34699900  0.87047400  1
  C  1494  1  0.15164300  0.36159900  0.85802800  1
  C  1497  1  0.19039600  0.38707900  0.85397100  1
  C  1498  1  0.19862000  0.40858400  0.85988600  1
  C  1499  1  0.21963700  0.41892700  0.85046000  1
  C  1500  1  0.23213400  0.40821500  0.83480500  1
  C  1501  1  0.22316000  0.38736900  0.82856400  1
  C  1502  1  0.20310500  0.37695700  0.83837500  1
  C  1519  1  0.40574300  0.66247700  0.86638600  1
  C  1520  1  0.39833600  0.66628000  0.88559700  1
  C  1521  1  0.41301000  0.67916500  0.89829700  1
  C  1522  1  0.43433200  0.69104700  0.89138300  1
  C  1523  1  0.44082100  0.68936200  0.87149100  1
  C  1524  1  0.42735900  0.67433000  0.85919200  1
  C  1527  1  0.38919100  0.64821500  0.85519600  1
  C  1528  1  0.38171300  0.62643500  0.86091800  1
  C  1529  1  0.36160200  0.61531800  0.85069700  1
  C  1530  1  0.34977900  0.62551700  0.83434800  1
  C  1531  1  0.35700900  0.64716800  0.82910800  1
  C  1532  1  0.37604500  0.65824900  0.83963700  1
  C  1549  1  0.17610500  0.66427800  0.62754000  1
  C  1550  1  0.18398300  0.66820400  0.60846700  1
  C  1551  1  0.16912300  0.68075200  0.59545500  1
  C  1552  1  0.14708700  0.69224600  0.60200200  1
  C  1553  1  0.13995500  0.69021700  0.62172300  1
  C  1554  1  0.15356700  0.67543200  0.63428000  1
  C  1557  1  0.19302100  0.65061600  0.63909800  1
  C  1558  1  0.20192500  0.62918200  0.63340900  1
  C  1559  1  0.22237000  0.61875900  0.64387800  1
  C  1560  1  0.23332600  0.62905300  0.66040900  1
  C  1561  1  0.22363900  0.64987400  0.66628500  1
  C  1562  1  0.20432800  0.66052700  0.65542700  1
  C  1579  1  0.40358300  0.37208500  0.62907200  1
  C  1580  1  0.39547100  0.36837100  0.60992300  1
  C  1581  1  0.41017700  0.35592300  0.59691000  1
  C  1582  1  0.43222400  0.34428100  0.60347700  1
  C  1583  1  0.43952800  0.34604200  0.62325900  1
  C  1584  1  0.42614800  0.36077900  0.63584400  1
  C  1587  1  0.38695600  0.38573100  0.64070800  1
  C  1588  1  0.37801400  0.40725800  0.63519200  1
  C  1589  1  0.35825800  0.41784500  0.64605400  1
  C  1590  1  0.34831000  0.40775300  0.66291000  1
  C  1591  1  0.35740100  0.38651900  0.66824000  1
  C  1592  1  0.37593000  0.37569200  0.65696900  1
  C  1609  1  0.40701700  0.66132700  0.12916600  1
  C  1610  1  0.40035900  0.66462800  0.10963000  1
  C  1611  1  0.41532100  0.67738100  0.09720400  1
  C  1612  1  0.43724400  0.68842200  0.10434700  1
  C  1613  1  0.44299400  0.68731600  0.12445900  1
  C  1614  1  0.42865300  0.67305600  0.13673400  1
  C  1617  1  0.38967600  0.64774400  0.14013500  1
  C  1618  1  0.38160100  0.62615000  0.13436000  1
  C  1619  1  0.36027200  0.61599800  0.14355300  1
  C  1620  1  0.34733500  0.62697600  0.15886800  1
  C  1621  1  0.35628000  0.64783700  0.16509300  1
  C  1622  1  0.37658000  0.65808900  0.15543900  1
  C  1639  1  0.17450800  0.37298300  0.12796000  1
  C  1640  1  0.18075100  0.37006300  0.10838900  1
  C  1641  1  0.16587200  0.35702600  0.09595200  1
  C  1642  1  0.14432600  0.34560400  0.10305000  1
  C  1643  1  0.13884500  0.34664000  0.12314200  1
  C  1644  1  0.15324400  0.36094800  0.13549100  1
  C  1647  1  0.19167400  0.38678800  0.13902700  1
  C  1648  1  0.19813600  0.40900100  0.13399300  1
  C  1649  1  0.21871800  0.41990000  0.14380900  1
  C  1650  1  0.23082600  0.40962100  0.15998700  1
  C  1651  1  0.22425500  0.38768000  0.16482300  1
  C  1652  1  0.20559600  0.37642000  0.15403400  1
  C  1669  1  0.40481200  0.37280900  0.36649100  1
  C  1670  1  0.39761500  0.36907600  0.38576800  1
  C  1671  1  0.41270000  0.35630900  0.39845900  1
  C  1672  1  0.43503100  0.34544100  0.39170700  1
  C  1673  1  0.44132900  0.34712700  0.37181000  1
  C  1674  1  0.42711600  0.36161000  0.35937100  1
  C  1677  1  0.38750700  0.38631300  0.35509800  1
  C  1678  1  0.37872100  0.40781100  0.36069400  1
  C  1679  1  0.35811400  0.41813700  0.35033100  1
  C  1680  1  0.34696100  0.40773900  0.33392400  1
  C  1681  1  0.35653000  0.38685700  0.32811400  1
  C  1682  1  0.37590400  0.37625600  0.33895000  1
  C  1699  1  0.17703300  0.66489500  0.36519800  1
  C  1700  1  0.18477800  0.66882000  0.38441300  1
  C  1701  1  0.16979400  0.68135700  0.39717200  1
  C  1702  1  0.14706600  0.69190600  0.39052500  1
  C  1703  1  0.14024800  0.69014100  0.37065700  1
  C  1704  1  0.15433600  0.67580100  0.35817300  1
  C  1707  1  0.19402400  0.65137200  0.35374900  1
  C  1708  1  0.20305300  0.62989700  0.35933500  1
  C  1709  1  0.22295500  0.61938000  0.34857000  1
  C  1710  1  0.23294800  0.62946600  0.33172700  1
  C  1711  1  0.22376200  0.65064700  0.32632600  1
  C  1712  1  0.20513300  0.66143900  0.33752900  1
  C  1729  1  0.68584200  0.86330900  0.04670700  1
  C  1730  1  0.70103800  0.85117300  0.03369900  1
  C  1732  1  0.68135100  0.86898400  0.00661300  1
  C  1733  1  0.66565700  0.88192400  0.01891200  1
  C  1734  1  0.66823400  0.87884600  0.03897900  1
  C  1736  1  0.67942000  0.87150200  0.98646500  1
  C  1737  1  0.69320300  0.86071000  0.95508100  1
  C  1738  1  0.67640300  0.87605000  0.94626800  1
  C  1739  1  0.66083600  0.88926000  0.95822100  1
  C  1742  1  0.66194100  0.88712200  0.97845200  1
  C  1743  1  0.64633100  0.89991500  0.99076100  1
  C  1744  1  0.64814200  0.89730300  0.01086100  1
  C  1749  1  0.68825800  0.86022400  0.06635300  1
  C  1750  1  0.67455500  0.87825800  0.92658500  1
  C  1753  1  0.89315400  0.17269900  0.04782100  1
  C  1754  1  0.87854000  0.18554700  0.03479000  1
  C  1756  1  0.89715500  0.16729800  0.00771700  1
  C  1757  1  0.91220100  0.15362400  0.02004100  1
  C  1758  1  0.90988200  0.15657500  0.04011100  1
  C  1760  1  0.89891300  0.16496100  0.98756200  1
  C  1761  1  0.88566500  0.17665900  0.95614100  1
  C  1762  1  0.90165600  0.16081300  0.94734300  1
  C  1763  1  0.91653600  0.14687900  0.95933300  1
  C  1766  1  0.91556200  0.14879800  0.97957200  1
  C  1767  1  0.93051800  0.13526700  0.99190700  1
  C  1768  1  0.92888800  0.13769400  0.01201200  1
  C  1773  1  0.89116400  0.17578400  0.06746900  1
  C  1774  1  0.90332800  0.15872600  0.92765300  1
  C  1777  1  0.68970000  0.17236800  0.44614900  1
  C  1778  1  0.70477100  0.18445000  0.45928500  1
  C  1780  1  0.68467400  0.16740100  0.48621000  1
  C  1781  1  0.66911800  0.15451900  0.47377500  1
  C  1782  1  0.67196600  0.15723400  0.45372500  1
  C  1784  1  0.68242400  0.16527400  0.50634700  1
  C  1785  1  0.69576000  0.17637500  0.53786200  1
  C  1786  1  0.67877700  0.16148000  0.54654200  1
  C  1787  1  0.66334400  0.14834200  0.53444300  1
  C  1790  1  0.66476600  0.15010200  0.51421300  1
  C  1791  1  0.64930300  0.13735700  0.50176700  1
  C  1792  1  0.65142700  0.13958600  0.48167400  1
  C  1797  1  0.69212000  0.17527500  0.42652100  1
  C  1798  1  0.67667300  0.15955500  0.56621800  1
  C  1801  1  0.88932100  0.86096200  0.44721100  1
  C  1802  1  0.87460900  0.84824000  0.45994100  1
  C  1804  1  0.89265200  0.86632600  0.48738400  1
  C  1805  1  0.90778700  0.87986400  0.47537000  1
  C  1806  1  0.90580500  0.87693300  0.45525400  1
  C  1808  1  0.89405400  0.86864700  0.50757000  1
  C  1809  1  0.88042700  0.85700700  0.53870700  1
  C  1810  1  0.89614400  0.87270100  0.54783800  1
  C  1811  1  0.91108900  0.88653200  0.53616200  1
  C  1814  1  0.91043900  0.88466000  0.51590300  1
  C  1815  1  0.92549000  0.89806100  0.50387700  1
  C  1816  1  0.92420700  0.89565100  0.48374100  1
  C  1821  1  0.88757100  0.85797100  0.42752700  1
  C  1822  1  0.89778000  0.87454800  0.56756400  1
  C  1825  1  0.18765300  0.36017900  0.04703100  1
  C  1826  1  0.20231900  0.34740500  0.03414100  1
  C  1828  1  0.18332400  0.36541400  0.00687200  1
  C  1829  1  0.16819600  0.37899000  0.01905300  1
  C  1830  1  0.17068400  0.37612800  0.03914600  1
  C  1832  1  0.18146000  0.36773000  0.98669800  1
  C  1833  1  0.19476300  0.35621500  0.95537500  1
  C  1834  1  0.17860100  0.37196700  0.94644900  1
  C  1835  1  0.16357600  0.38573100  0.95832500  1
  C  1838  1  0.16461300  0.38377300  0.97856600  1
  C  1839  1  0.14955200  0.39718500  0.99076000  1
  C  1840  1  0.15129700  0.39478000  0.01087800  1
  C  1845  1  0.18991800  0.35732500  0.06671600  1
  C  1846  1  0.17688400  0.37421900  0.92675200  1
  C  1849  1  0.39352900  0.67380600  0.04801400  1
  C  1850  1  0.37799700  0.68588000  0.03501000  1
  C  1852  1  0.39835500  0.66918300  0.00788200  1
  C  1853  1  0.41440300  0.65632800  0.02017300  1
  C  1854  1  0.41163800  0.65885900  0.04025000  1
  C  1856  1  0.40047400  0.66718100  0.98772000  1
  C  1857  1  0.38647600  0.67828700  0.95630500  1
  C  1858  1  0.40384400  0.66357900  0.94746900  1
  C  1859  1  0.41980500  0.65053900  0.95946500  1
  C  1862  1  0.41851800  0.65218900  0.97970600  1
  C  1863  1  0.43447800  0.63948400  0.99201100  1
  C  1864  1  0.43245900  0.64156600  0.01212000  1
  C  1869  1  0.39101600  0.67637300  0.06768600  1
  C  1870  1  0.40584100  0.66164500  0.92776400  1
  C  1873  1  0.19237700  0.67722800  0.44609400  1
  C  1874  1  0.20681800  0.68982300  0.45925600  1
  C  1876  1  0.18737800  0.67213300  0.48615400  1
  C  1877  1  0.17249200  0.65872300  0.47368100  1
  C  1878  1  0.17532500  0.66150700  0.45364200  1
  C  1880  1  0.18512600  0.66991500  0.50628800  1
  C  1881  1  0.19780900  0.68137100  0.53786500  1
  C  1882  1  0.18148700  0.66588900  0.54648300  1
  C  1883  1  0.16670800  0.65229200  0.53430900  1
  C  1886  1  0.16813900  0.65414400  0.51408900  1
  C  1887  1  0.15333400  0.64088900  0.50160400  1
  C  1888  1  0.15546100  0.64319400  0.48152300  1
  C  1893  1  0.19478400  0.68007200  0.42645900  1
  C  1894  1  0.17940900  0.66371600  0.56615300  1
  C  1897  1  0.39046800  0.36023000  0.44730200  1
  C  1898  1  0.37472600  0.34856100  0.46010500  1
  C  1900  1  0.39469400  0.36527600  0.48747900  1
  C  1901  1  0.41095800  0.37771200  0.47539300  1
  C  1902  1  0.40849800  0.37497000  0.45528800  1
  C  1904  1  0.39646000  0.36752900  0.50765900  1
  C  1905  1  0.38191500  0.35704600  0.53888100  1
  C  1906  1  0.39911800  0.37162400  0.54792400  1
  C  1907  1  0.41529700  0.38426800  0.53614900  1
  C  1910  1  0.41436700  0.38236100  0.51590000  1
  C  1911  1  0.43056100  0.39463600  0.50380100  1
  C  1912  1  0.42889300  0.39230300  0.48367500  1
  C  1917  1  0.38809000  0.35760400  0.42760000  1
  C  1918  1  0.40095000  0.37359100  0.56764600  1
  C  1921  1  0.74337300  0.97597000  0.85422500  1
  C  1922  1  0.73908400  0.99730700  0.84659900  1
  C  1924  1  0.77841700  0.01121100  0.85967200  1
  C  1925  1  0.78391300  0.99034900  0.86808400  1
  C  1926  1  0.76620400  0.97300400  0.86518100  1
  C  1928  1  0.79598100  0.02879300  0.86162300  1
  C  1929  1  0.80728800  0.06616700  0.85474700  1
  C  1930  1  0.83078600  0.06444200  0.86496000  1
  C  1931  1  0.83621000  0.04389500  0.87379200  1
  C  1934  1  0.81920600  0.02583600  0.87218100  1
  C  1935  1  0.82442700  0.00508400  0.88067100  1
  C  1936  1  0.80705100  0.98755500  0.87859900  1
  C  1941  1  0.72749500  0.95850600  0.84861100  1
  C  1942  1  0.84707800  0.08244200  0.86744000  1
  C  1945  1  0.74477900  0.06136500  0.63946100  1
  C  1946  1  0.73806300  0.03940800  0.64373500  1
  C  1948  1  0.77987500  0.02560000  0.63596700  1
  C  1949  1  0.78791100  0.04713400  0.63098800  1
  C  1950  1  0.77005000  0.06474200  0.63274700  1
  C  1952  1  0.79752500  0.00776000  0.63570100  1
  C  1953  1  0.80660400  0.96977700  0.64228100  1
  C  1954  1  0.83295500  0.97216800  0.63817700  1
  C  1955  1  0.84097300  0.99325000  0.63213700  1
  C  1958  1  0.82353400  0.01123300  0.63067600  1
  C  1959  1  0.83120800  0.03258700  0.62516100  1
  C  1960  1  0.81358300  0.05032100  0.62526200  1
  C  1965  1  0.72830500  0.07872600  0.64446600  1
  C  1966  1  0.85079800  0.95558400  0.64246700  1
  C  1969  1  0.83440500  0.06158700  0.13828000  1
  C  1970  1  0.83942400  0.03968400  0.14424500  1
  C  1972  1  0.79835200  0.02700200  0.13340300  1
  C  1973  1  0.79207800  0.04850900  0.12669700  1
  C  1974  1  0.81034200  0.06548200  0.12921100  1
  C  1976  1  0.78009900  0.00985800  0.13217300  1
  C  1977  1  0.76839200  0.97252400  0.13887100  1
  C  1978  1  0.74299500  0.97563000  0.13196900  1
  C  1979  1  0.73710900  0.99679000  0.12444600  1
  C  1982  1  0.75527800  0.01405100  0.12436800  1
  C  1983  1  0.74940200  0.03536400  0.11730600  1
  C  1984  1  0.76758400  0.05236900  0.11843000  1
  C  1989  1  0.85078500  0.07864600  0.14399800  1
  C  1990  1  0.72384100  0.95957100  0.13355400  1
  C  1993  1  0.83287100  0.97291700  0.35491500  1
  C  1994  1  0.83979800  0.99485700  0.35077800  1
  C  1996  1  0.79797000  0.00882400  0.35827700  1
  C  1997  1  0.78971900  0.98730800  0.36310800  1
  C  1998  1  0.80748800  0.96962500  0.36141900  1
  C  2000  1  0.78043200  0.02674500  0.35846200  1
  C  2001  1  0.77170200  0.06479500  0.35193800  1
  C  2002  1  0.74527300  0.06250700  0.35580700  1
  C  2003  1  0.73702300  0.04144200  0.36170600  1
  C  2006  1  0.75432300  0.02337100  0.36325200  1
  C  2007  1  0.74642600  0.00203200  0.36862400  1
  C  2008  1  0.76394000  0.98421600  0.36860700  1
  C  2013  1  0.84925100  0.95549700  0.34991700  1
  C  2014  1  0.72761100  0.07919800  0.35143600  1
  C  2017  1  0.24496700  0.47432300  0.85676100  1
  C  2018  1  0.23995000  0.49625800  0.85087600  1
  C  2020  1  0.28106600  0.50888600  0.86167900  1
  C  2021  1  0.28734300  0.48734700  0.86830400  1
  C  2022  1  0.26906400  0.47038500  0.86576500  1
  C  2024  1  0.29931700  0.52603400  0.86296500  1
  C  2025  1  0.31102500  0.56342200  0.85645600  1
  C  2026  1  0.33638800  0.56031200  0.86342900  1
  C  2027  1  0.34226400  0.53909900  0.87085000  1
  C  2030  1  0.32412400  0.52181100  0.87078400  1
  C  2031  1  0.33001400  0.50045900  0.87774900  1
  C  2032  1  0.31184600  0.48344900  0.87654300  1
  C  2037  1  0.22851400  0.45731000  0.85103700  1
  C  2038  1  0.35550800  0.57645200  0.86212200  1
  C  2041  1  0.24651600  0.56286400  0.63805500  1
  C  2042  1  0.23952300  0.54090500  0.64205400  1
  C  2044  1  0.28138800  0.52692200  0.63469100  1
  C  2045  1  0.28971200  0.54845700  0.62999500  1
  C  2046  1  0.27196200  0.56615600  0.63168600  1
  C  2048  1  0.29889700  0.50897600  0.63450100  1
  C  2049  1  0.30753700  0.47088100  0.64091100  1
  C  2050  1  0.33399400  0.47315100  0.63713500  1
  C  2051  1  0.34230700  0.49424300  0.63135700  1
  C  2054  1  0.32504600  0.51234400  0.62982800  1
  C  2055  1  0.33302100  0.53370500  0.62459100  1
  C  2056  1  0.31554000  0.55154600  0.62462200  1
  C  2061  1  0.23011000  0.58026900  0.64306600  1
  C  2062  1  0.35162700  0.45644500  0.64155000  1
  C  2065  1  0.33588900  0.56012200  0.13830000  1
  C  2066  1  0.34045200  0.53874200  0.14574500  1
  C  2068  1  0.30115000  0.52469100  0.13275500  1
  C  2069  1  0.29538100  0.54559500  0.12452400  1
  C  2070  1  0.31294600  0.56303600  0.12747000  1
  C  2072  1  0.28373000  0.50700800  0.13077300  1
  C  2073  1  0.27281700  0.46950200  0.13745900  1
  C  2074  1  0.24920200  0.47117700  0.12739800  1
  C  2075  1  0.24351000  0.49176600  0.11873500  1
  C  2078  1  0.26037600  0.50991500  0.12036600  1
  C  2079  1  0.25488900  0.53070600  0.11204600  1
  C  2080  1  0.27212500  0.54833200  0.11414600  1
  C  2085  1  0.35160800  0.57764900  0.14400000  1
  C  2086  1  0.23299100  0.45312800  0.12494100  1
  C  2089  1  0.33421400  0.47409900  0.35614300  1
  C  2090  1  0.34129100  0.49604500  0.35216700  1
  C  2092  1  0.29952200  0.51013900  0.35967500  1
  C  2093  1  0.29112300  0.48861900  0.36434900  1
  C  2094  1  0.30878800  0.47086900  0.36257800  1
  C  2096  1  0.28208900  0.52813400  0.35993900  1
  C  2097  1  0.27358300  0.56626400  0.35360500  1
  C  2098  1  0.24712700  0.56405300  0.35740900  1
  C  2099  1  0.23874700  0.54297900  0.36317400  1
  C  2102  1  0.25594400  0.52483000  0.36465500  1
  C  2103  1  0.24790000  0.50348400  0.36987700  1
  C  2104  1  0.26530800  0.48559300  0.36977900  1
  C  2109  1  0.35052200  0.45665200  0.35108200  1
  C  2110  1  0.22954300  0.58078800  0.35299400  1
  C  2113  1  0.48604800  0.73267100  0.85911500  1
  C  2114  1  0.48593100  0.75477500  0.85262600  1
  C  2116  1  0.53098500  0.75917300  0.85857700  1
  C  2117  1  0.53265000  0.73698300  0.86508400  1
  C  2118  1  0.51008900  0.72408300  0.86523100  1
  C  2120  1  0.55295600  0.77285900  0.85892700  1
  C  2121  1  0.57233000  0.80827300  0.85396300  1
  C  2122  1  0.59665800  0.80086200  0.86049400  1
  C  2123  1  0.59824000  0.77847200  0.86622500  1
  C  2126  1  0.57680800  0.76430800  0.86568300  1
  C  2127  1  0.57835800  0.74218100  0.87198100  1
  C  2128  1  0.55653100  0.72869800  0.87172300  1
  C  2133  1  0.46292400  0.72144800  0.86184700  1
  C  2134  1  0.61817500  0.81440800  0.86287700  1
  C  2137  1  0.09179600  0.30410400  0.85865500  1
  C  2138  1  0.09132100  0.28209700  0.85194100  1
  C  2140  1  0.04660600  0.27790800  0.85885700  1
  C  2141  1  0.04554200  0.30001100  0.86563100  1
  C  2142  1  0.06821800  0.31276000  0.86540000  1
  C  2144  1  0.02454000  0.26436100  0.85956800  1
  C  2145  1  0.00453300  0.22916800  0.85462700  1
  C  2146  1  0.98067900  0.23664800  0.86176600  1
  C  2147  1  0.97966000  0.25894200  0.86780900  1
  C  2150  1  0.00119200  0.27296600  0.86695900  1
  C  2151  1  0.00023500  0.29500300  0.87352800  1
  C  2152  1  0.02215900  0.30834900  0.87290900  1
  C  2157  1  0.11518000  0.31508500  0.86113000  1
  C  2158  1  0.95910200  0.22326000  0.86425000  1
  C  2161  1  0.48612200  0.30334300  0.63555900  1
  C  2162  1  0.48689400  0.28126900  0.64207700  1
  C  2164  1  0.53174500  0.27730700  0.63555000  1
  C  2165  1  0.53254400  0.29949100  0.62903900  1
  C  2166  1  0.50961200  0.31218400  0.62917600  1
  C  2168  1  0.55402900  0.26378300  0.63491200  1
  C  2169  1  0.57432600  0.22848500  0.63967700  1
  C  2170  1  0.59815000  0.23603100  0.63285500  1
  C  2171  1  0.59908600  0.25838400  0.62708000  1
  C  2174  1  0.57735300  0.27246200  0.62786900  1
  C  2175  1  0.57807300  0.29459800  0.62158500  1
  C  2176  1  0.55589400  0.30795500  0.62212900  1
  C  2181  1  0.46261100  0.31436700  0.63317300  1
  C  2182  1  0.61983900  0.22258000  0.63054200  1
  C  2185  1  0.09304700  0.73233700  0.63437800  1
  C  2186  1  0.09201300  0.75408100  0.64167700  1
  C  2188  1  0.04709600  0.75794600  0.63481100  1
  C  2189  1  0.04658100  0.73609200  0.62746700  1
  C  2190  1  0.06966700  0.72361000  0.62739500  1
  C  2192  1  0.02461300  0.77126000  0.63447200  1
  C  2193  1  0.00377000  0.80605100  0.64042700  1
  C  2194  1  0.98002800  0.79856300  0.63313600  1
  C  2195  1  0.97942600  0.77652400  0.62646800  1
  C  2198  1  0.00139100  0.76268100  0.62688500  1
  C  2199  1  0.00097000  0.74087900  0.61973800  1
  C  2200  1  0.02333900  0.72774100  0.61999100  1
  C  2205  1  0.11665900  0.72156700  0.63194500  1
  C  2206  1  0.95806200  0.81180000  0.63122000  1
  C  2209  1  0.09359400  0.30341400  0.13545300  1
  C  2210  1  0.09356100  0.28137500  0.14209200  1
  C  2212  1  0.04851100  0.27712300  0.13601800  1
  C  2213  1  0.04701400  0.29925300  0.12934000  1
  C  2214  1  0.06964600  0.31205200  0.12918900  1
  C  2216  1  0.02646800  0.26352700  0.13565300  1
  C  2217  1  0.00687800  0.22822400  0.14071500  1
  C  2218  1  0.98266600  0.23566000  0.13396400  1
  C  2219  1  0.98124500  0.25800900  0.12809900  1
  C  2222  1  0.00273100  0.27210700  0.12869500  1
  C  2223  1  0.00135200  0.29417300  0.12222500  1
  C  2224  1  0.02324600  0.30757300  0.12251000  1
  C  2229  1  0.11676500  0.31448500  0.13256300  1
  C  2230  1  0.96117200  0.22213600  0.13138300  1
  C  2233  1  0.48817500  0.73087500  0.13642700  1
  C  2234  1  0.48803200  0.75316400  0.14240700  1
  C  2236  1  0.53295600  0.75754700  0.13643600  1
  C  2237  1  0.53465200  0.73517200  0.13046300  1
  C  2238  1  0.51216200  0.72218400  0.13057500  1
  C  2240  1  0.55480900  0.77133300  0.13572900  1
  C  2241  1  0.57395000  0.80702400  0.13972500  1
  C  2242  1  0.59817600  0.79956400  0.13329900  1
  C  2243  1  0.59985200  0.77699400  0.12817300  1
  C  2246  1  0.57857700  0.76270500  0.12914900  1
  C  2247  1  0.58017200  0.74038800  0.12341100  1
  C  2248  1  0.55845600  0.72679700  0.12402100  1
  C  2253  1  0.46506600  0.71960500  0.13361100  1
  C  2254  1  0.61943400  0.81321600  0.13041000  1
  C  2257  1  0.09324600  0.73239100  0.35824400  1
  C  2258  1  0.09223200  0.75433800  0.35142500  1
  C  2260  1  0.04743100  0.75815400  0.35819900  1
  C  2261  1  0.04689000  0.73608700  0.36502800  1
  C  2262  1  0.06991500  0.72352500  0.36491200  1
  C  2264  1  0.02506100  0.77157000  0.35883400  1
  C  2265  1  0.00445200  0.80668800  0.35379400  1
  C  2266  1  0.98079800  0.79914800  0.36094300  1
  C  2267  1  0.98010800  0.77688300  0.36700800  1
  C  2270  1  0.00191600  0.76289700  0.36620000  1
  C  2271  1  0.00144600  0.74087200  0.37279700  1
  C  2272  1  0.02371000  0.72762300  0.37225200  1
  C  2277  1  0.11685700  0.72159900  0.36077700  1
  C  2278  1  0.95909600  0.81255100  0.36339400  1
  C  2281  1  0.48709300  0.30424200  0.35894900  1
  C  2282  1  0.48743500  0.28219600  0.35235300  1
  C  2284  1  0.53255400  0.27804100  0.35819500  1
  C  2285  1  0.53376900  0.30018900  0.36476800  1
  C  2286  1  0.51091100  0.31296900  0.36501100  1
  C  2288  1  0.55478300  0.26442500  0.35848400  1
  C  2289  1  0.57464100  0.22904000  0.35342100  1
  C  2290  1  0.59878900  0.23644000  0.35999700  1
  C  2291  1  0.60011000  0.25879000  0.36576500  1
  C  2294  1  0.57845100  0.27297700  0.36524700  1
  C  2295  1  0.57958200  0.29508100  0.37158400  1
  C  2296  1  0.55746400  0.30853200  0.37138100  1
  C  2301  1  0.46377800  0.31535100  0.36174500  1
  C  2302  1  0.62039200  0.22282400  0.36232000  1
  C  2305  1  0.75183500  0.85749200  0.78928400  1
  C  2306  1  0.74531700  0.84603400  0.77228000  1
  C  2308  1  0.78527000  0.85487900  0.75760000  1
  C  2309  1  0.79328000  0.86637400  0.77436700  1
  C  2310  1  0.77640400  0.86719800  0.79015300  1
  C  2312  1  0.80118600  0.85418400  0.74126400  1
  C  2313  1  0.80744500  0.84301800  0.70859900  1
  C  2314  1  0.83103400  0.85410300  0.70770500  1
  C  2315  1  0.83980200  0.86499000  0.72446100  1
  C  2318  1  0.82508300  0.86523300  0.74145500  1
  C  2319  1  0.83300600  0.87654300  0.75823700  1
  C  2320  1  0.81727300  0.87701800  0.77461200  1
  C  2325  1  0.73417600  0.86011800  0.80400000  1
  C  2326  1  0.84371800  0.85618900  0.69044700  1
  C  2329  1  0.82429500  0.17851100  0.79002700  1
  C  2330  1  0.82973500  0.19132100  0.77362900  1
  C  2332  1  0.79121400  0.17996800  0.75773600  1
  C  2333  1  0.78428900  0.16702800  0.77387600  1
  C  2334  1  0.80095200  0.16677500  0.78998300  1
  C  2336  1  0.77554600  0.18018300  0.74108500  1
  C  2337  1  0.76853500  0.19244000  0.70873300  1
  C  2338  1  0.74629900  0.17956500  0.70691800  1
  C  2339  1  0.73853400  0.16720500  0.72306900  1
  C  2342  1  0.75298400  0.16726500  0.74035000  1
  C  2343  1  0.74610300  0.15453900  0.75652000  1
  C  2344  1  0.76159500  0.15449000  0.77320100  1
  C  2349  1  0.84189700  0.17659700  0.80504200  1
  C  2350  1  0.73387300  0.17756600  0.68941000  1
  C  2353  1  0.82616300  0.17918700  0.20450300  1
  C  2354  1  0.83279100  0.19046900  0.22157400  1
  C  2356  1  0.79310700  0.18117600  0.23644700  1
  C  2357  1  0.78498100  0.16985700  0.21961900  1
  C  2358  1  0.80166600  0.16934100  0.20370800  1
  C  2360  1  0.77740100  0.18155500  0.25290600  1
  C  2361  1  0.77145600  0.19229100  0.28571400  1
  C  2362  1  0.74795100  0.18108300  0.28666300  1
  C  2363  1  0.73907100  0.17033600  0.26986900  1
  C  2366  1  0.75358500  0.17037700  0.25277300  1
  C  2367  1  0.74553800  0.15925000  0.23592900  1
  C  2368  1  0.76106800  0.15907800  0.21943800  1
  C  2373  1  0.84369500  0.17682200  0.18966400  1
  C  2374  1  0.73538200  0.17887600  0.30395600  1
  C  2377  1  0.75384700  0.85779500  0.20373000  1
  C  2378  1  0.74806300  0.84492300  0.22002200  1
  C  2380  1  0.78654200  0.85579500  0.23623600  1
  C  2381  1  0.79380100  0.86880600  0.22022700  1
  C  2382  1  0.77732400  0.86933700  0.20401200  1
  C  2384  1  0.80204700  0.85525600  0.25296900  1
  C  2385  1  0.80862200  0.84257100  0.28524900  1
  C  2386  1  0.83103400  0.85518100  0.28727500  1
  C  2387  1  0.83909600  0.86764600  0.27127000  1
  C  2390  1  0.82478700  0.86792900  0.25392300  1
  C  2391  1  0.83198900  0.88074800  0.23789000  1
  C  2392  1  0.81665700  0.88111300  0.22112500  1
  C  2397  1  0.73647000  0.85985500  0.18857000  1
  C  2398  1  0.84336100  0.85687400  0.30485000  1
  C  2401  1  0.25260000  0.35772800  0.78911400  1
  C  2402  1  0.24616100  0.34635900  0.77205000  1
  C  2404  1  0.28597500  0.35565000  0.75737900  1
  C  2405  1  0.29391100  0.36706400  0.77420700  1
  C  2406  1  0.27706600  0.36762300  0.79001800  1
  C  2408  1  0.30185300  0.35520800  0.74102300  1
  C  2409  1  0.30813300  0.34432500  0.70829800  1
  C  2410  1  0.33161700  0.35557400  0.70743600  1
  C  2411  1  0.34032000  0.36641500  0.72423300  1
  C  2414  1  0.32564100  0.36642900  0.74124800  1
  C  2415  1  0.33350000  0.37765000  0.75809300  1
  C  2416  1  0.31780400  0.37787400  0.77449200  1
  C  2421  1  0.23499000  0.36002200  0.80389800  1
  C  2422  1  0.34428700  0.35774100  0.69018600  1
  C  2425  1  0.32602100  0.67685600  0.79003200  1
  C  2426  1  0.33150500  0.68992100  0.77379700  1
  C  2428  1  0.29296300  0.67891400  0.75775400  1
  C  2429  1  0.28601000  0.66569300  0.77370900  1
  C  2430  1  0.30266400  0.66513800  0.78981500  1
  C  2432  1  0.27726400  0.67950400  0.74113000  1
  C  2433  1  0.27023600  0.69243600  0.70898600  1
  C  2434  1  0.24792200  0.67968700  0.70701000  1
  C  2435  1  0.24013900  0.66702400  0.72297400  1
  C  2438  1  0.25463900  0.66666667  0.74022900  1
  C  2439  1  0.24774100  0.65364900  0.75620900  1
  C  2440  1  0.26326600  0.65323200  0.77287200  1
  C  2445  1  0.34349000  0.67490300  0.80513400  1
  C  2446  1  0.23550200  0.67803000  0.68947600  1
  C  2449  1  0.32718100  0.67773900  0.20457500  1
  C  2450  1  0.33377700  0.68938900  0.22146200  1
  C  2452  1  0.29413800  0.68030800  0.23648800  1
  C  2453  1  0.28605300  0.66859900  0.21985700  1
  C  2454  1  0.30273000  0.66779600  0.20395300  1
  C  2456  1  0.27842500  0.68102100  0.25293000  1
  C  2457  1  0.27244300  0.69247400  0.28554400  1
  C  2458  1  0.24900200  0.68119300  0.28669200  1
  C  2459  1  0.24014900  0.67006500  0.27008400  1
  C  2462  1  0.25465300  0.66977500  0.25298800  1
  C  2463  1  0.24665100  0.65825000  0.23633900  1
  C  2464  1  0.26218100  0.65775700  0.21985500  1
  C  2469  1  0.34464900  0.67524800  0.18971400  1
  C  2470  1  0.23652600  0.67924500  0.30404400  1
  C  2473  1  0.25569300  0.35802400  0.20368400  1
  C  2474  1  0.25011400  0.34507300  0.21996900  1
  C  2476  1  0.28828900  0.35656000  0.23624600  1
  C  2477  1  0.29534800  0.36965500  0.22023800  1
  C  2478  1  0.27892500  0.36991900  0.20399200  1
  C  2480  1  0.30371500  0.35630200  0.25301900  1
  C  2481  1  0.31036600  0.34379200  0.28533600  1
  C  2482  1  0.33247500  0.35677700  0.28741400  1
  C  2483  1  0.34038100  0.36931900  0.27140900  1
  C  2486  1  0.32617400  0.36933100  0.25401600  1
  C  2487  1  0.33319600  0.38221400  0.23797600  1
  C  2488  1  0.31794200  0.38230800  0.22117100  1
  C  2493  1  0.23834400  0.35982000  0.18849400  1
  C  2494  1  0.34469400  0.35861300  0.30501700  1
  C  2497  1  0.46128100  0.87511500  0.86469300  1
  C  2498  1  0.46814600  0.87272000  0.88428000  1
  C  2499  1  0.45324800  0.86072900  0.89732800  1
  C  2500  1  0.43201800  0.84846000  0.89056300  1
  C  2501  1  0.42614100  0.84852300  0.87043400  1
  C  2502  1  0.43993500  0.86260400  0.85763700  1
  C  2505  1  0.47836300  0.88849600  0.85328100  1
  C  2506  1  0.48640600  0.91024300  0.85866000  1
  C  2507  1  0.50776500  0.92019300  0.84934100  1
  C  2508  1  0.52067700  0.90891100  0.83418700  1
  C  2509  1  0.51171900  0.88793000  0.82829200  1
  C  2510  1  0.49146400  0.87784200  0.83813700  1
  C  2527  1  0.69487500  0.16223300  0.86573600  1
  C  2528  1  0.68834100  0.16417600  0.88533200  1
  C  2529  1  0.70312900  0.17637300  0.89848800  1
  C  2530  1  0.72400200  0.18903500  0.89185300  1
  C  2531  1  0.72966900  0.18915300  0.87175200  1
  C  2532  1  0.71586400  0.17508000  0.85880800  1
  C  2535  1  0.67802600  0.14865900  0.85415600  1
  C  2536  1  0.67156300  0.12631200  0.85876900  1
  C  2537  1  0.65095500  0.11564800  0.84879100  1
  C  2538  1  0.63889600  0.12627300  0.83277100  1
  C  2539  1  0.64549800  0.14831100  0.82831000  1
  C  2540  1  0.66411700  0.15935400  0.83931300  1
  C  2557  1  0.46326200  0.16236900  0.62784800  1
  C  2558  1  0.47069300  0.16519200  0.60851300  1
  C  2559  1  0.45581700  0.17736700  0.59525000  1
  C  2560  1  0.43429500  0.18963200  0.60167900  1
  C  2561  1  0.42778900  0.18889700  0.62159700  1
  C  2562  1  0.44131400  0.17445400  0.63450900  1
  C  2565  1  0.48024900  0.14901300  0.63966100  1
  C  2566  1  0.48894900  0.12735100  0.63444700  1
  C  2567  1  0.50959400  0.11722600  0.64491400  1
  C  2568  1  0.52078000  0.12793600  0.66114600  1
  C  2569  1  0.51123800  0.14894000  0.66666667  1
  C  2570  1  0.49190500  0.15937600  0.65564000  1
  C  2587  1  0.69230300  0.87153100  0.62917100  1
  C  2588  1  0.68429300  0.86865500  0.60988200  1
  C  2589  1  0.69899500  0.85676000  0.59648100  1
  C  2590  1  0.72089400  0.84471200  0.60275700  1
  C  2591  1  0.72793100  0.84536400  0.62265300  1
  C  2592  1  0.71459300  0.85961700  0.63568200  1
  C  2595  1  0.67571700  0.88491600  0.64109800  1
  C  2596  1  0.66686900  0.90660100  0.63595200  1
  C  2597  1  0.64698800  0.91693800  0.64686600  1
  C  2598  1  0.63697000  0.90651900  0.66353700  1
  C  2599  1  0.64601200  0.88516900  0.66855000  1
  C  2600  1  0.66451700  0.87452200  0.65712600  1
  C  2617  1  0.69589500  0.16204600  0.12921900  1
  C  2618  1  0.68962100  0.16447500  0.10951100  1
  C  2619  1  0.70486800  0.17658400  0.09679700  1
  C  2620  1  0.72665700  0.18791800  0.10377700  1
  C  2621  1  0.73177200  0.18804600  0.12400700  1
  C  2622  1  0.71720600  0.17435300  0.13662900  1
  C  2625  1  0.67845300  0.14872300  0.14038400  1
  C  2626  1  0.67046400  0.12699100  0.13492100  1
  C  2627  1  0.64901400  0.11703000  0.14410400  1
  C  2628  1  0.63604600  0.12819900  0.15929000  1
  C  2629  1  0.64488100  0.14919600  0.16523200  1
  C  2630  1  0.66514600  0.15935500  0.15544900  1
  C  2647  1  0.46234800  0.87393000  0.12794500  1
  C  2648  1  0.46872300  0.87119100  0.10836500  1
  C  2649  1  0.45358900  0.85876000  0.09563200  1
  C  2650  1  0.43202000  0.84724300  0.10254300  1
  C  2651  1  0.42694700  0.84737100  0.12272000  1
  C  2652  1  0.44125700  0.86149200  0.13530000  1
  C  2655  1  0.47940800  0.88771500  0.13921100  1
  C  2656  1  0.48669900  0.90971200  0.13398000  1
  C  2657  1  0.50720400  0.92043200  0.14408100  1
  C  2658  1  0.51939500  0.90975000  0.16003500  1
  C  2659  1  0.51225700  0.88795700  0.16488100  1
  C  2660  1  0.49305700  0.87716700  0.15427600  1
  C  2677  1  0.69335800  0.87207200  0.36621900  1
  C  2678  1  0.68651600  0.86924500  0.38569700  1
  C  2679  1  0.70174900  0.85700000  0.39867000  1
  C  2680  1  0.72388000  0.84572500  0.39208000  1
  C  2681  1  0.72965700  0.84625200  0.37203700  1
  C  2682  1  0.71530900  0.86022500  0.35923400  1
  C  2685  1  0.67593700  0.88528700  0.35462600  1
  C  2686  1  0.66728000  0.90695300  0.35987000  1
  C  2687  1  0.64641400  0.91700000  0.34959600  1
  C  2688  1  0.63500100  0.90624800  0.33347600  1
  C  2689  1  0.64453500  0.88526900  0.32790700  1
  C  2690  1  0.66401800  0.87486100  0.33878100  1
  C  2707  1  0.46443500  0.16310700  0.36467600  1
  C  2708  1  0.47168900  0.16579000  0.38417000  1
  C  2709  1  0.45661700  0.17780000  0.39724500  1
  C  2710  1  0.43438300  0.18917100  0.39071200  1
  C  2711  1  0.42829300  0.18891700  0.37065200  1
  C  2712  1  0.44235700  0.17503700  0.35776300  1
  C  2715  1  0.48146900  0.14988300  0.35295500  1
  C  2716  1  0.49016800  0.12813300  0.35801900  1
  C  2717  1  0.51028300  0.11790200  0.34726900  1
  C  2718  1  0.52061700  0.12844800  0.33077200  1
  C  2719  1  0.51168500  0.14984100  0.32580200  1
  C  2720  1  0.49304300  0.16042300  0.33714700  1
  C  2737  1  0.96285700  0.37326800  0.86516100  1
  C  2738  1  0.97033800  0.36973800  0.88448500  1
  C  2739  1  0.95564200  0.35723400  0.89730200  1
  C  2740  1  0.93402200  0.34553800  0.89041800  1
  C  2741  1  0.92730900  0.34699900  0.87047400  1
  C  2742  1  0.94093600  0.36159900  0.85802800  1
  C  2745  1  0.97968900  0.38707900  0.85397100  1
  C  2746  1  0.98791300  0.40858400  0.85988600  1
  C  2747  1  0.00893000  0.41892700  0.85046000  1
  C  2748  1  0.02142700  0.40821500  0.83480500  1
  C  2749  1  0.01245300  0.38736900  0.82856400  1
  C  2750  1  0.99239804  0.37695700  0.83837500  1
  C  2767  1  0.19503600  0.66247700  0.86638600  1
  C  2768  1  0.18762900  0.66628000  0.88559700  1
  C  2769  1  0.20230300  0.67916500  0.89829700  1
  C  2770  1  0.22362500  0.69104700  0.89138300  1
  C  2771  1  0.23011400  0.68936200  0.87149100  1
  C  2772  1  0.21665200  0.67433000  0.85919200  1
  C  2775  1  0.17848400  0.64821500  0.85519600  1
  C  2776  1  0.17100600  0.62643500  0.86091800  1
  C  2777  1  0.15089500  0.61531800  0.85069700  1
  C  2778  1  0.13907200  0.62551700  0.83434800  1
  C  2779  1  0.14630200  0.64716800  0.82910800  1
  C  2780  1  0.16533800  0.65824900  0.83963700  1
  C  2797  1  0.96539800  0.66427800  0.62754000  1
  C  2798  1  0.97327600  0.66820400  0.60846700  1
  C  2799  1  0.95841600  0.68075200  0.59545500  1
  C  2800  1  0.93638000  0.69224600  0.60200200  1
  C  2801  1  0.92924800  0.69021700  0.62172300  1
  C  2802  1  0.94286000  0.67543200  0.63428000  1
  C  2805  1  0.98231400  0.65061600  0.63909800  1
  C  2806  1  0.99121804  0.62918200  0.63340900  1
  C  2807  1  0.01166300  0.61875900  0.64387800  1
  C  2808  1  0.02261900  0.62905300  0.66040900  1
  C  2809  1  0.01293200  0.64987400  0.66628500  1
  C  2810  1  0.99362104  0.66052700  0.65542700  1
  C  2827  1  0.19287600  0.37208500  0.62907200  1
  C  2828  1  0.18476400  0.36837100  0.60992300  1
  C  2829  1  0.19947000  0.35592300  0.59691000  1
  C  2830  1  0.22151700  0.34428100  0.60347700  1
  C  2831  1  0.22882100  0.34604200  0.62325900  1
  C  2832  1  0.21544100  0.36077900  0.63584400  1
  C  2835  1  0.17624900  0.38573100  0.64070800  1
  C  2836  1  0.16730700  0.40725800  0.63519200  1
  C  2837  1  0.14755100  0.41784500  0.64605400  1
  C  2838  1  0.13760300  0.40775300  0.66291000  1
  C  2839  1  0.14669400  0.38651900  0.66824000  1
  C  2840  1  0.16522300  0.37569200  0.65696900  1
  C  2857  1  0.19631000  0.66132700  0.12916600  1
  C  2858  1  0.18965200  0.66462800  0.10963000  1
  C  2859  1  0.20461400  0.67738100  0.09720400  1
  C  2860  1  0.22653700  0.68842200  0.10434700  1
  C  2861  1  0.23228700  0.68731600  0.12445900  1
  C  2862  1  0.21794600  0.67305600  0.13673400  1
  C  2865  1  0.17896900  0.64774400  0.14013500  1
  C  2866  1  0.17089400  0.62615000  0.13436000  1
  C  2867  1  0.14956500  0.61599800  0.14355300  1
  C  2868  1  0.13662800  0.62697600  0.15886800  1
  C  2869  1  0.14557300  0.64783700  0.16509300  1
  C  2870  1  0.16587300  0.65808900  0.15543900  1
  C  2887  1  0.96380100  0.37298300  0.12796000  1
  C  2888  1  0.97004400  0.37006300  0.10838900  1
  C  2889  1  0.95516500  0.35702600  0.09595200  1
  C  2890  1  0.93361900  0.34560400  0.10305000  1
  C  2891  1  0.92813800  0.34664000  0.12314200  1
  C  2892  1  0.94253700  0.36094800  0.13549100  1
  C  2895  1  0.98096700  0.38678800  0.13902700  1
  C  2896  1  0.98742900  0.40900100  0.13399300  1
  C  2897  1  0.00801100  0.41990000  0.14380900  1
  C  2898  1  0.02011900  0.40962100  0.15998700  1
  C  2899  1  0.01354800  0.38768000  0.16482300  1
  C  2900  1  0.99488904  0.37642000  0.15403400  1
  C  2917  1  0.19410500  0.37280900  0.36649100  1
  C  2918  1  0.18690800  0.36907600  0.38576800  1
  C  2919  1  0.20199300  0.35630900  0.39845900  1
  C  2920  1  0.22432400  0.34544100  0.39170700  1
  C  2921  1  0.23062200  0.34712700  0.37181000  1
  C  2922  1  0.21640900  0.36161000  0.35937100  1
  C  2925  1  0.17680000  0.38631300  0.35509800  1
  C  2926  1  0.16801400  0.40781100  0.36069400  1
  C  2927  1  0.14740700  0.41813700  0.35033100  1
  C  2928  1  0.13625400  0.40773900  0.33392400  1
  C  2929  1  0.14582300  0.38685700  0.32811400  1
  C  2930  1  0.16519700  0.37625600  0.33895000  1
  C  2947  1  0.96632600  0.66489500  0.36519800  1
  C  2948  1  0.97407100  0.66882000  0.38441300  1
  C  2949  1  0.95908700  0.68135700  0.39717200  1
  C  2950  1  0.93635900  0.69190600  0.39052500  1
  C  2951  1  0.92954100  0.69014100  0.37065700  1
  C  2952  1  0.94362900  0.67580100  0.35817300  1
  C  2955  1  0.98331700  0.65137200  0.35374900  1
  C  2956  1  0.99234604  0.62989700  0.35933500  1
  C  2957  1  0.01224800  0.61938000  0.34857000  1
  C  2958  1  0.02224100  0.62946600  0.33172700  1
  C  2959  1  0.01305500  0.65064700  0.32632600  1
  C  2960  1  0.99442604  0.66143900  0.33752900  1
  C  2977  1  0.47513500  0.86330900  0.04670700  1
  C  2978  1  0.49033100  0.85117300  0.03369900  1
  C  2980  1  0.47064400  0.86898400  0.00661300  1
  C  2981  1  0.45495000  0.88192400  0.01891200  1
  C  2982  1  0.45752700  0.87884600  0.03897900  1
  C  2984  1  0.46871300  0.87150200  0.98646500  1
  C  2985  1  0.48249600  0.86071000  0.95508100  1
  C  2986  1  0.46569600  0.87605000  0.94626800  1
  C  2987  1  0.45012900  0.88926000  0.95822100  1
  C  2990  1  0.45123400  0.88712200  0.97845200  1
  C  2991  1  0.43562400  0.89991500  0.99076100  1
  C  2992  1  0.43743500  0.89730300  0.01086100  1
  C  2997  1  0.47755100  0.86022400  0.06635300  1
  C  2998  1  0.46384800  0.87825800  0.92658500  1
  C  3001  1  0.68244700  0.17269900  0.04782100  1
  C  3002  1  0.66783300  0.18554700  0.03479000  1
  C  3004  1  0.68644800  0.16729800  0.00771700  1
  C  3005  1  0.70149400  0.15362400  0.02004100  1
  C  3006  1  0.69917500  0.15657500  0.04011100  1
  C  3008  1  0.68820600  0.16496100  0.98756200  1
  C  3009  1  0.67495800  0.17665900  0.95614100  1
  C  3010  1  0.69094900  0.16081300  0.94734300  1
  C  3011  1  0.70582900  0.14687900  0.95933300  1
  C  3014  1  0.70485500  0.14879800  0.97957200  1
  C  3015  1  0.71981100  0.13526700  0.99190700  1
  C  3016  1  0.71818100  0.13769400  0.01201200  1
  C  3021  1  0.68045700  0.17578400  0.06746900  1
  C  3022  1  0.69262100  0.15872600  0.92765300  1
  C  3025  1  0.47899300  0.17236800  0.44614900  1
  C  3026  1  0.49406400  0.18445000  0.45928500  1
  C  3028  1  0.47396700  0.16740100  0.48621000  1
  C  3029  1  0.45841100  0.15451900  0.47377500  1
  C  3030  1  0.46125900  0.15723400  0.45372500  1
  C  3032  1  0.47171700  0.16527400  0.50634700  1
  C  3033  1  0.48505300  0.17637500  0.53786200  1
  C  3034  1  0.46807000  0.16148000  0.54654200  1
  C  3035  1  0.45263700  0.14834200  0.53444300  1
  C  3038  1  0.45405900  0.15010200  0.51421300  1
  C  3039  1  0.43859600  0.13735700  0.50176700  1
  C  3040  1  0.44072000  0.13958600  0.48167400  1
  C  3045  1  0.48141300  0.17527500  0.42652100  1
  C  3046  1  0.46596600  0.15955500  0.56621800  1
  C  3049  1  0.67861400  0.86096200  0.44721100  1
  C  3050  1  0.66390200  0.84824000  0.45994100  1
  C  3052  1  0.68194500  0.86632600  0.48738400  1
  C  3053  1  0.69708000  0.87986400  0.47537000  1
  C  3054  1  0.69509800  0.87693300  0.45525400  1
  C  3056  1  0.68334700  0.86864700  0.50757000  1
  C  3057  1  0.66972000  0.85700700  0.53870700  1
  C  3058  1  0.68543700  0.87270100  0.54783800  1
  C  3059  1  0.70038200  0.88653200  0.53616200  1
  C  3062  1  0.69973200  0.88466000  0.51590300  1
  C  3063  1  0.71478300  0.89806100  0.50387700  1
  C  3064  1  0.71350000  0.89565100  0.48374100  1
  C  3069  1  0.67686400  0.85797100  0.42752700  1
  C  3070  1  0.68707300  0.87454800  0.56756400  1
  C  3073  1  0.97694600  0.36017900  0.04703100  1
  C  3074  1  0.99161204  0.34740500  0.03414100  1
  C  3076  1  0.97261700  0.36541400  0.00687200  1
  C  3077  1  0.95748900  0.37899000  0.01905300  1
  C  3078  1  0.95997700  0.37612800  0.03914600  1
  C  3080  1  0.97075300  0.36773000  0.98669800  1
  C  3081  1  0.98405600  0.35621500  0.95537500  1
  C  3082  1  0.96789400  0.37196700  0.94644900  1
  C  3083  1  0.95286900  0.38573100  0.95832500  1
  C  3086  1  0.95390600  0.38377300  0.97856600  1
  C  3087  1  0.93884500  0.39718500  0.99076000  1
  C  3088  1  0.94059000  0.39478000  0.01087800  1
  C  3093  1  0.97921100  0.35732500  0.06671600  1
  C  3094  1  0.96617700  0.37421900  0.92675200  1
  C  3097  1  0.18282200  0.67380600  0.04801400  1
  C  3098  1  0.16729000  0.68588000  0.03501000  1
  C  3100  1  0.18764800  0.66918300  0.00788200  1
  C  3101  1  0.20369600  0.65632800  0.02017300  1
  C  3102  1  0.20093100  0.65885900  0.04025000  1
  C  3104  1  0.18976700  0.66718100  0.98772000  1
  C  3105  1  0.17576900  0.67828700  0.95630500  1
  C  3106  1  0.19313700  0.66357900  0.94746900  1
  C  3107  1  0.20909800  0.65053900  0.95946500  1
  C  3110  1  0.20781100  0.65218900  0.97970600  1
  C  3111  1  0.22377100  0.63948400  0.99201100  1
  C  3112  1  0.22175200  0.64156600  0.01212000  1
  C  3117  1  0.18030900  0.67637300  0.06768600  1
  C  3118  1  0.19513400  0.66164500  0.92776400  1
  C  3121  1  0.98167000  0.67722800  0.44609400  1
  C  3122  1  0.99611104  0.68982300  0.45925600  1
  C  3124  1  0.97667100  0.67213300  0.48615400  1
  C  3125  1  0.96178500  0.65872300  0.47368100  1
  C  3126  1  0.96461800  0.66150700  0.45364200  1
  C  3128  1  0.97441900  0.66991500  0.50628800  1
  C  3129  1  0.98710200  0.68137100  0.53786500  1
  C  3130  1  0.97078000  0.66588900  0.54648300  1
  C  3131  1  0.95600100  0.65229200  0.53430900  1
  C  3134  1  0.95743200  0.65414400  0.51408900  1
  C  3135  1  0.94262700  0.64088900  0.50160400  1
  C  3136  1  0.94475400  0.64319400  0.48152300  1
  C  3141  1  0.98407700  0.68007200  0.42645900  1
  C  3142  1  0.96870200  0.66371600  0.56615300  1
  C  3145  1  0.17976100  0.36023000  0.44730200  1
  C  3146  1  0.16401900  0.34856100  0.46010500  1
  C  3148  1  0.18398700  0.36527600  0.48747900  1
  C  3149  1  0.20025100  0.37771200  0.47539300  1
  C  3150  1  0.19779100  0.37497000  0.45528800  1
  C  3152  1  0.18575300  0.36752900  0.50765900  1
  C  3153  1  0.17120800  0.35704600  0.53888100  1
  C  3154  1  0.18841100  0.37162400  0.54792400  1
  C  3155  1  0.20459000  0.38426800  0.53614900  1
  C  3158  1  0.20366000  0.38236100  0.51590000  1
  C  3159  1  0.21985400  0.39463600  0.50380100  1
  C  3160  1  0.21818600  0.39230300  0.48367500  1
  C  3165  1  0.17738300  0.35760400  0.42760000  1
  C  3166  1  0.19024300  0.37359100  0.56764600  1
  C  3169  1  0.53266600  0.97597000  0.85422500  1
  C  3170  1  0.52837700  0.99730700  0.84659900  1
  C  3172  1  0.56771000  0.01121100  0.85967200  1
  C  3173  1  0.57320600  0.99034900  0.86808400  1
  C  3174  1  0.55549700  0.97300400  0.86518100  1
  C  3176  1  0.58527400  0.02879300  0.86162300  1
  C  3177  1  0.59658100  0.06616700  0.85474700  1
  C  3178  1  0.62007900  0.06444200  0.86496000  1
  C  3179  1  0.62550300  0.04389500  0.87379200  1
  C  3182  1  0.60849900  0.02583600  0.87218100  1
  C  3183  1  0.61372000  0.00508400  0.88067100  1
  C  3184  1  0.59634400  0.98755500  0.87859900  1
  C  3189  1  0.51678800  0.95850600  0.84861100  1
  C  3190  1  0.63637100  0.08244200  0.86744000  1
  C  3193  1  0.53407200  0.06136500  0.63946100  1
  C  3194  1  0.52735600  0.03940800  0.64373500  1
  C  3196  1  0.56916800  0.02560000  0.63596700  1
  C  3197  1  0.57720400  0.04713400  0.63098800  1
  C  3198  1  0.55934300  0.06474200  0.63274700  1
  C  3200  1  0.58681800  0.00776000  0.63570100  1
  C  3201  1  0.59589700  0.96977700  0.64228100  1
  C  3202  1  0.62224800  0.97216800  0.63817700  1
  C  3203  1  0.63026600  0.99325000  0.63213700  1
  C  3206  1  0.61282700  0.01123300  0.63067600  1
  C  3207  1  0.62050100  0.03258700  0.62516100  1
  C  3208  1  0.60287600  0.05032100  0.62526200  1
  C  3213  1  0.51759800  0.07872600  0.64446600  1
  C  3214  1  0.64009100  0.95558400  0.64246700  1
  C  3217  1  0.62369800  0.06158700  0.13828000  1
  C  3218  1  0.62871700  0.03968400  0.14424500  1
  C  3220  1  0.58764500  0.02700200  0.13340300  1
  C  3221  1  0.58137100  0.04850900  0.12669700  1
  C  3222  1  0.59963500  0.06548200  0.12921100  1
  C  3224  1  0.56939200  0.00985800  0.13217300  1
  C  3225  1  0.55768500  0.97252400  0.13887100  1
  C  3226  1  0.53228800  0.97563000  0.13196900  1
  C  3227  1  0.52640200  0.99679000  0.12444600  1
  C  3230  1  0.54457100  0.01405100  0.12436800  1
  C  3231  1  0.53869500  0.03536400  0.11730600  1
  C  3232  1  0.55687700  0.05236900  0.11843000  1
  C  3237  1  0.64007800  0.07864600  0.14399800  1
  C  3238  1  0.51313400  0.95957100  0.13355400  1
  C  3241  1  0.62216400  0.97291700  0.35491500  1
  C  3242  1  0.62909100  0.99485700  0.35077800  1
  C  3244  1  0.58726300  0.00882400  0.35827700  1
  C  3245  1  0.57901200  0.98730800  0.36310800  1
  C  3246  1  0.59678100  0.96962500  0.36141900  1
  C  3248  1  0.56972500  0.02674500  0.35846200  1
  C  3249  1  0.56099500  0.06479500  0.35193800  1
  C  3250  1  0.53456600  0.06250700  0.35580700  1
  C  3251  1  0.52631600  0.04144200  0.36170600  1
  C  3254  1  0.54361600  0.02337100  0.36325200  1
  C  3255  1  0.53571900  0.00203200  0.36862400  1
  C  3256  1  0.55323300  0.98421600  0.36860700  1
  C  3261  1  0.63854400  0.95549700  0.34991700  1
  C  3262  1  0.51690400  0.07919800  0.35143600  1
  C  3265  1  0.03426000  0.47432300  0.85676100  1
  C  3266  1  0.02924300  0.49625800  0.85087600  1
  C  3268  1  0.07035900  0.50888600  0.86167900  1
  C  3269  1  0.07663600  0.48734700  0.86830400  1
  C  3270  1  0.05835700  0.47038500  0.86576500  1
  C  3272  1  0.08861000  0.52603400  0.86296500  1
  C  3273  1  0.10031800  0.56342200  0.85645600  1
  C  3274  1  0.12568100  0.56031200  0.86342900  1
  C  3275  1  0.13155700  0.53909900  0.87085000  1
  C  3278  1  0.11341700  0.52181100  0.87078400  1
  C  3279  1  0.11930700  0.50045900  0.87774900  1
  C  3280  1  0.10113900  0.48344900  0.87654300  1
  C  3285  1  0.01780700  0.45731000  0.85103700  1
  C  3286  1  0.14480100  0.57645200  0.86212200  1
  C  3289  1  0.03580900  0.56286400  0.63805500  1
  C  3290  1  0.02881600  0.54090500  0.64205400  1
  C  3292  1  0.07068100  0.52692200  0.63469100  1
  C  3293  1  0.07900500  0.54845700  0.62999500  1
  C  3294  1  0.06125500  0.56615600  0.63168600  1
  C  3296  1  0.08819000  0.50897600  0.63450100  1
  C  3297  1  0.09683000  0.47088100  0.64091100  1
  C  3298  1  0.12328700  0.47315100  0.63713500  1
  C  3299  1  0.13160000  0.49424300  0.63135700  1
  C  3302  1  0.11433900  0.51234400  0.62982800  1
  C  3303  1  0.12231400  0.53370500  0.62459100  1
  C  3304  1  0.10483300  0.55154600  0.62462200  1
  C  3309  1  0.01940300  0.58026900  0.64306600  1
  C  3310  1  0.14092000  0.45644500  0.64155000  1
  C  3313  1  0.12518200  0.56012200  0.13830000  1
  C  3314  1  0.12974500  0.53874200  0.14574500  1
  C  3316  1  0.09044300  0.52469100  0.13275500  1
  C  3317  1  0.08467400  0.54559500  0.12452400  1
  C  3318  1  0.10223900  0.56303600  0.12747000  1
  C  3320  1  0.07302300  0.50700800  0.13077300  1
  C  3321  1  0.06211000  0.46950200  0.13745900  1
  C  3322  1  0.03849500  0.47117700  0.12739800  1
  C  3323  1  0.03280300  0.49176600  0.11873500  1
  C  3326  1  0.04966900  0.50991500  0.12036600  1
  C  3327  1  0.04418200  0.53070600  0.11204600  1
  C  3328  1  0.06141800  0.54833200  0.11414600  1
  C  3333  1  0.14090100  0.57764900  0.14400000  1
  C  3334  1  0.02228400  0.45312800  0.12494100  1
  C  3337  1  0.12350700  0.47409900  0.35614300  1
  C  3338  1  0.13058400  0.49604500  0.35216700  1
  C  3340  1  0.08881500  0.51013900  0.35967500  1
  C  3341  1  0.08041600  0.48861900  0.36434900  1
  C  3342  1  0.09808100  0.47086900  0.36257800  1
  C  3344  1  0.07138200  0.52813400  0.35993900  1
  C  3345  1  0.06287600  0.56626400  0.35360500  1
  C  3346  1  0.03642000  0.56405300  0.35740900  1
  C  3347  1  0.02804000  0.54297900  0.36317400  1
  C  3350  1  0.04523700  0.52483000  0.36465500  1
  C  3351  1  0.03719300  0.50348400  0.36987700  1
  C  3352  1  0.05460100  0.48559300  0.36977900  1
  C  3357  1  0.13981500  0.45665200  0.35108200  1
  C  3358  1  0.01883600  0.58078800  0.35299400  1
  C  3361  1  0.27534100  0.73267100  0.85911500  1
  C  3362  1  0.27522400  0.75477500  0.85262600  1
  C  3364  1  0.32027800  0.75917300  0.85857700  1
  C  3365  1  0.32194300  0.73698300  0.86508400  1
  C  3366  1  0.29938200  0.72408300  0.86523100  1
  C  3368  1  0.34224900  0.77285900  0.85892700  1
  C  3369  1  0.36162300  0.80827300  0.85396300  1
  C  3370  1  0.38595100  0.80086200  0.86049400  1
  C  3371  1  0.38753300  0.77847200  0.86622500  1
  C  3374  1  0.36610100  0.76430800  0.86568300  1
  C  3375  1  0.36765100  0.74218100  0.87198100  1
  C  3376  1  0.34582400  0.72869800  0.87172300  1
  C  3381  1  0.25221700  0.72144800  0.86184700  1
  C  3382  1  0.40746800  0.81440800  0.86287700  1
  C  3385  1  0.88108900  0.30410400  0.85865500  1
  C  3386  1  0.88061400  0.28209700  0.85194100  1
  C  3388  1  0.83589900  0.27790800  0.85885700  1
  C  3389  1  0.83483500  0.30001100  0.86563100  1
  C  3390  1  0.85751100  0.31276000  0.86540000  1
  C  3392  1  0.81383300  0.26436100  0.85956800  1
  C  3393  1  0.79382600  0.22916800  0.85462700  1
  C  3394  1  0.76997200  0.23664800  0.86176600  1
  C  3395  1  0.76895300  0.25894200  0.86780900  1
  C  3398  1  0.79048500  0.27296600  0.86695900  1
  C  3399  1  0.78952800  0.29500300  0.87352800  1
  C  3400  1  0.81145200  0.30834900  0.87290900  1
  C  3405  1  0.90447300  0.31508500  0.86113000  1
  C  3406  1  0.74839500  0.22326000  0.86425000  1
  C  3409  1  0.27541500  0.30334300  0.63555900  1
  C  3410  1  0.27618700  0.28126900  0.64207700  1
  C  3412  1  0.32103800  0.27730700  0.63555000  1
  C  3413  1  0.32183700  0.29949100  0.62903900  1
  C  3414  1  0.29890500  0.31218400  0.62917600  1
  C  3416  1  0.34332200  0.26378300  0.63491200  1
  C  3417  1  0.36361900  0.22848500  0.63967700  1
  C  3418  1  0.38744300  0.23603100  0.63285500  1
  C  3419  1  0.38837900  0.25838400  0.62708000  1
  C  3422  1  0.36664600  0.27246200  0.62786900  1
  C  3423  1  0.36736600  0.29459800  0.62158500  1
  C  3424  1  0.34518700  0.30795500  0.62212900  1
  C  3429  1  0.25190400  0.31436700  0.63317300  1
  C  3430  1  0.40913200  0.22258000  0.63054200  1
  C  3433  1  0.88234000  0.73233700  0.63437800  1
  C  3434  1  0.88130600  0.75408100  0.64167700  1
  C  3436  1  0.83638900  0.75794600  0.63481100  1
  C  3437  1  0.83587400  0.73609200  0.62746700  1
  C  3438  1  0.85896000  0.72361000  0.62739500  1
  C  3440  1  0.81390600  0.77126000  0.63447200  1
  C  3441  1  0.79306300  0.80605100  0.64042700  1
  C  3442  1  0.76932100  0.79856300  0.63313600  1
  C  3443  1  0.76871900  0.77652400  0.62646800  1
  C  3446  1  0.79068400  0.76268100  0.62688500  1
  C  3447  1  0.79026300  0.74087900  0.61973800  1
  C  3448  1  0.81263200  0.72774100  0.61999100  1
  C  3453  1  0.90595200  0.72156700  0.63194500  1
  C  3454  1  0.74735500  0.81180000  0.63122000  1
  C  3457  1  0.88288700  0.30341400  0.13545300  1
  C  3458  1  0.88285400  0.28137500  0.14209200  1
  C  3460  1  0.83780400  0.27712300  0.13601800  1
  C  3461  1  0.83630700  0.29925300  0.12934000  1
  C  3462  1  0.85893900  0.31205200  0.12918900  1
  C  3464  1  0.81576100  0.26352700  0.13565300  1
  C  3465  1  0.79617100  0.22822400  0.14071500  1
  C  3466  1  0.77195900  0.23566000  0.13396400  1
  C  3467  1  0.77053800  0.25800900  0.12809900  1
  C  3470  1  0.79202400  0.27210700  0.12869500  1
  C  3471  1  0.79064500  0.29417300  0.12222500  1
  C  3472  1  0.81253900  0.30757300  0.12251000  1
  C  3477  1  0.90605800  0.31448500  0.13256300  1
  C  3478  1  0.75046500  0.22213600  0.13138300  1
  C  3481  1  0.27746800  0.73087500  0.13642700  1
  C  3482  1  0.27732500  0.75316400  0.14240700  1
  C  3484  1  0.32224900  0.75754700  0.13643600  1
  C  3485  1  0.32394500  0.73517200  0.13046300  1
  C  3486  1  0.30145500  0.72218400  0.13057500  1
  C  3488  1  0.34410200  0.77133300  0.13572900  1
  C  3489  1  0.36324300  0.80702400  0.13972500  1
  C  3490  1  0.38746900  0.79956400  0.13329900  1
  C  3491  1  0.38914500  0.77699400  0.12817300  1
  C  3494  1  0.36787000  0.76270500  0.12914900  1
  C  3495  1  0.36946500  0.74038800  0.12341100  1
  C  3496  1  0.34774900  0.72679700  0.12402100  1
  C  3501  1  0.25435900  0.71960500  0.13361100  1
  C  3502  1  0.40872700  0.81321600  0.13041000  1
  C  3505  1  0.88253900  0.73239100  0.35824400  1
  C  3506  1  0.88152500  0.75433800  0.35142500  1
  C  3508  1  0.83672400  0.75815400  0.35819900  1
  C  3509  1  0.83618300  0.73608700  0.36502800  1
  C  3510  1  0.85920800  0.72352500  0.36491200  1
  C  3512  1  0.81435400  0.77157000  0.35883400  1
  C  3513  1  0.79374500  0.80668800  0.35379400  1
  C  3514  1  0.77009100  0.79914800  0.36094300  1
  C  3515  1  0.76940100  0.77688300  0.36700800  1
  C  3518  1  0.79120900  0.76289700  0.36620000  1
  C  3519  1  0.79073900  0.74087200  0.37279700  1
  C  3520  1  0.81300300  0.72762300  0.37225200  1
  C  3525  1  0.90615000  0.72159900  0.36077700  1
  C  3526  1  0.74838900  0.81255100  0.36339400  1
  C  3529  1  0.27638600  0.30424200  0.35894900  1
  C  3530  1  0.27672800  0.28219600  0.35235300  1
  C  3532  1  0.32184700  0.27804100  0.35819500  1
  C  3533  1  0.32306200  0.30018900  0.36476800  1
  C  3534  1  0.30020400  0.31296900  0.36501100  1
  C  3536  1  0.34407600  0.26442500  0.35848400  1
  C  3537  1  0.36393400  0.22904000  0.35342100  1
  C  3538  1  0.38808200  0.23644000  0.35999700  1
  C  3539  1  0.38940300  0.25879000  0.36576500  1
  C  3542  1  0.36774400  0.27297700  0.36524700  1
  C  3543  1  0.36887500  0.29508100  0.37158400  1
  C  3544  1  0.34675700  0.30853200  0.37138100  1
  C  3549  1  0.25307100  0.31535100  0.36174500  1
  C  3550  1  0.40968500  0.22282400  0.36232000  1
  C  3553  1  0.54112800  0.85749200  0.78928400  1
  C  3554  1  0.53461000  0.84603400  0.77228000  1
  C  3556  1  0.57456300  0.85487900  0.75760000  1
  C  3557  1  0.58257300  0.86637400  0.77436700  1
  C  3558  1  0.56569700  0.86719800  0.79015300  1
  C  3560  1  0.59047900  0.85418400  0.74126400  1
  C  3561  1  0.59673800  0.84301800  0.70859900  1
  C  3562  1  0.62032700  0.85410300  0.70770500  1
  C  3563  1  0.62909500  0.86499000  0.72446100  1
  C  3566  1  0.61437600  0.86523300  0.74145500  1
  C  3567  1  0.62229900  0.87654300  0.75823700  1
  C  3568  1  0.60656600  0.87701800  0.77461200  1
  C  3573  1  0.52346900  0.86011800  0.80400000  1
  C  3574  1  0.63301100  0.85618900  0.69044700  1
  C  3577  1  0.61358800  0.17851100  0.79002700  1
  C  3578  1  0.61902800  0.19132100  0.77362900  1
  C  3580  1  0.58050700  0.17996800  0.75773600  1
  C  3581  1  0.57358200  0.16702800  0.77387600  1
  C  3582  1  0.59024500  0.16677500  0.78998300  1
  C  3584  1  0.56483900  0.18018300  0.74108500  1
  C  3585  1  0.55782800  0.19244000  0.70873300  1
  C  3586  1  0.53559200  0.17956500  0.70691800  1
  C  3587  1  0.52782700  0.16720500  0.72306900  1
  C  3590  1  0.54227700  0.16726500  0.74035000  1
  C  3591  1  0.53539600  0.15453900  0.75652000  1
  C  3592  1  0.55088800  0.15449000  0.77320100  1
  C  3597  1  0.63119000  0.17659700  0.80504200  1
  C  3598  1  0.52316600  0.17756600  0.68941000  1
  C  3601  1  0.61545600  0.17918700  0.20450300  1
  C  3602  1  0.62208400  0.19046900  0.22157400  1
  C  3604  1  0.58240000  0.18117600  0.23644700  1
  C  3605  1  0.57427400  0.16985700  0.21961900  1
  C  3606  1  0.59095900  0.16934100  0.20370800  1
  C  3608  1  0.56669400  0.18155500  0.25290600  1
  C  3609  1  0.56074900  0.19229100  0.28571400  1
  C  3610  1  0.53724400  0.18108300  0.28666300  1
  C  3611  1  0.52836400  0.17033600  0.26986900  1
  C  3614  1  0.54287800  0.17037700  0.25277300  1
  C  3615  1  0.53483100  0.15925000  0.23592900  1
  C  3616  1  0.55036100  0.15907800  0.21943800  1
  C  3621  1  0.63298800  0.17682200  0.18966400  1
  C  3622  1  0.52467500  0.17887600  0.30395600  1
  C  3625  1  0.54314000  0.85779500  0.20373000  1
  C  3626  1  0.53735600  0.84492300  0.22002200  1
  C  3628  1  0.57583500  0.85579500  0.23623600  1
  C  3629  1  0.58309400  0.86880600  0.22022700  1
  C  3630  1  0.56661700  0.86933700  0.20401200  1
  C  3632  1  0.59134000  0.85525600  0.25296900  1
  C  3633  1  0.59791500  0.84257100  0.28524900  1
  C  3634  1  0.62032700  0.85518100  0.28727500  1
  C  3635  1  0.62838900  0.86764600  0.27127000  1
  C  3638  1  0.61408000  0.86792900  0.25392300  1
  C  3639  1  0.62128200  0.88074800  0.23789000  1
  C  3640  1  0.60595000  0.88111300  0.22112500  1
  C  3645  1  0.52576300  0.85985500  0.18857000  1
  C  3646  1  0.63265400  0.85687400  0.30485000  1
  C  3649  1  0.04189300  0.35772800  0.78911400  1
  C  3650  1  0.03545400  0.34635900  0.77205000  1
  C  3652  1  0.07526800  0.35565000  0.75737900  1
  C  3653  1  0.08320400  0.36706400  0.77420700  1
  C  3654  1  0.06635900  0.36762300  0.79001800  1
  C  3656  1  0.09114600  0.35520800  0.74102300  1
  C  3657  1  0.09742600  0.34432500  0.70829800  1
  C  3658  1  0.12091000  0.35557400  0.70743600  1
  C  3659  1  0.12961300  0.36641500  0.72423300  1
  C  3662  1  0.11493400  0.36642900  0.74124800  1
  C  3663  1  0.12279300  0.37765000  0.75809300  1
  C  3664  1  0.10709700  0.37787400  0.77449200  1
  C  3669  1  0.02428300  0.36002200  0.80389800  1
  C  3670  1  0.13358000  0.35774100  0.69018600  1
  C  3673  1  0.11531400  0.67685600  0.79003200  1
  C  3674  1  0.12079800  0.68992100  0.77379700  1
  C  3676  1  0.08225600  0.67891400  0.75775400  1
  C  3677  1  0.07530300  0.66569300  0.77370900  1
  C  3678  1  0.09195700  0.66513800  0.78981500  1
  C  3680  1  0.06655700  0.67950400  0.74113000  1
  C  3681  1  0.05952900  0.69243600  0.70898600  1
  C  3682  1  0.03721500  0.67968700  0.70701000  1
  C  3683  1  0.02943200  0.66702400  0.72297400  1
  C  3686  1  0.04393200  0.66666667  0.74022900  1
  C  3687  1  0.03703400  0.65364900  0.75620900  1
  C  3688  1  0.05255900  0.65323200  0.77287200  1
  C  3693  1  0.13278300  0.67490300  0.80513400  1
  C  3694  1  0.02479500  0.67803000  0.68947600  1
  C  3697  1  0.11647400  0.67773900  0.20457500  1
  C  3698  1  0.12307000  0.68938900  0.22146200  1
  C  3700  1  0.08343100  0.68030800  0.23648800  1
  C  3701  1  0.07534600  0.66859900  0.21985700  1
  C  3702  1  0.09202300  0.66779600  0.20395300  1
  C  3704  1  0.06771800  0.68102100  0.25293000  1
  C  3705  1  0.06173600  0.69247400  0.28554400  1
  C  3706  1  0.03829500  0.68119300  0.28669200  1
  C  3707  1  0.02944200  0.67006500  0.27008400  1
  C  3710  1  0.04394600  0.66977500  0.25298800  1
  C  3711  1  0.03594400  0.65825000  0.23633900  1
  C  3712  1  0.05147400  0.65775700  0.21985500  1
  C  3717  1  0.13394200  0.67524800  0.18971400  1
  C  3718  1  0.02581900  0.67924500  0.30404400  1
  C  3721  1  0.04498600  0.35802400  0.20368400  1
  C  3722  1  0.03940700  0.34507300  0.21996900  1
  C  3724  1  0.07758200  0.35656000  0.23624600  1
  C  3725  1  0.08464100  0.36965500  0.22023800  1
  C  3726  1  0.06821800  0.36991900  0.20399200  1
  C  3728  1  0.09300800  0.35630200  0.25301900  1
  C  3729  1  0.09965900  0.34379200  0.28533600  1
  C  3730  1  0.12176800  0.35677700  0.28741400  1
  C  3731  1  0.12967400  0.36931900  0.27140900  1
  C  3734  1  0.11546700  0.36933100  0.25401600  1
  C  3735  1  0.12248900  0.38221400  0.23797600  1
  C  3736  1  0.10723500  0.38230800  0.22117100  1
  C  3741  1  0.02763700  0.35982000  0.18849400  1
  C  3742  1  0.13398700  0.35861300  0.30501700  1
  C  3745  1  0.25057400  0.87511500  0.86469300  1
  C  3746  1  0.25743900  0.87272000  0.88428000  1
  C  3747  1  0.24254100  0.86072900  0.89732800  1
  C  3748  1  0.22131100  0.84846000  0.89056300  1
  C  3749  1  0.21543400  0.84852300  0.87043400  1
  C  3750  1  0.22922800  0.86260400  0.85763700  1
  C  3753  1  0.26765600  0.88849600  0.85328100  1
  C  3754  1  0.27569900  0.91024300  0.85866000  1
  C  3755  1  0.29705800  0.92019300  0.84934100  1
  C  3756  1  0.30997000  0.90891100  0.83418700  1
  C  3757  1  0.30101200  0.88793000  0.82829200  1
  C  3758  1  0.28075700  0.87784200  0.83813700  1
  C  3775  1  0.48416800  0.16223300  0.86573600  1
  C  3776  1  0.47763400  0.16417600  0.88533200  1
  C  3777  1  0.49242200  0.17637300  0.89848800  1
  C  3778  1  0.51329500  0.18903500  0.89185300  1
  C  3779  1  0.51896200  0.18915300  0.87175200  1
  C  3780  1  0.50515700  0.17508000  0.85880800  1
  C  3783  1  0.46731900  0.14865900  0.85415600  1
  C  3784  1  0.46085600  0.12631200  0.85876900  1
  C  3785  1  0.44024800  0.11564800  0.84879100  1
  C  3786  1  0.42818900  0.12627300  0.83277100  1
  C  3787  1  0.43479100  0.14831100  0.82831000  1
  C  3788  1  0.45341000  0.15935400  0.83931300  1
  C  3805  1  0.25255500  0.16236900  0.62784800  1
  C  3806  1  0.25998600  0.16519200  0.60851300  1
  C  3807  1  0.24511000  0.17736700  0.59525000  1
  C  3808  1  0.22358800  0.18963200  0.60167900  1
  C  3809  1  0.21708200  0.18889700  0.62159700  1
  C  3810  1  0.23060700  0.17445400  0.63450900  1
  C  3813  1  0.26954200  0.14901300  0.63966100  1
  C  3814  1  0.27824200  0.12735100  0.63444700  1
  C  3815  1  0.29888700  0.11722600  0.64491400  1
  C  3816  1  0.31007300  0.12793600  0.66114600  1
  C  3817  1  0.30053100  0.14894000  0.66666667  1
  C  3818  1  0.28119800  0.15937600  0.65564000  1
  C  3835  1  0.48159600  0.87153100  0.62917100  1
  C  3836  1  0.47358600  0.86865500  0.60988200  1
  C  3837  1  0.48828800  0.85676000  0.59648100  1
  C  3838  1  0.51018700  0.84471200  0.60275700  1
  C  3839  1  0.51722400  0.84536400  0.62265300  1
  C  3840  1  0.50388600  0.85961700  0.63568200  1
  C  3843  1  0.46501000  0.88491600  0.64109800  1
  C  3844  1  0.45616200  0.90660100  0.63595200  1
  C  3845  1  0.43628100  0.91693800  0.64686600  1
  C  3846  1  0.42626300  0.90651900  0.66353700  1
  C  3847  1  0.43530500  0.88516900  0.66855000  1
  C  3848  1  0.45381000  0.87452200  0.65712600  1
  C  3865  1  0.48518800  0.16204600  0.12921900  1
  C  3866  1  0.47891400  0.16447500  0.10951100  1
  C  3867  1  0.49416100  0.17658400  0.09679700  1
  C  3868  1  0.51595000  0.18791800  0.10377700  1
  C  3869  1  0.52106500  0.18804600  0.12400700  1
  C  3870  1  0.50649900  0.17435300  0.13662900  1
  C  3873  1  0.46774600  0.14872300  0.14038400  1
  C  3874  1  0.45975700  0.12699100  0.13492100  1
  C  3875  1  0.43830700  0.11703000  0.14410400  1
  C  3876  1  0.42533900  0.12819900  0.15929000  1
  C  3877  1  0.43417400  0.14919600  0.16523200  1
  C  3878  1  0.45443900  0.15935500  0.15544900  1
  C  3895  1  0.25164100  0.87393000  0.12794500  1
  C  3896  1  0.25801600  0.87119100  0.10836500  1
  C  3897  1  0.24288200  0.85876000  0.09563200  1
  C  3898  1  0.22131300  0.84724300  0.10254300  1
  C  3899  1  0.21624000  0.84737100  0.12272000  1
  C  3900  1  0.23055000  0.86149200  0.13530000  1
  C  3903  1  0.26870100  0.88771500  0.13921100  1
  C  3904  1  0.27599200  0.90971200  0.13398000  1
  C  3905  1  0.29649700  0.92043200  0.14408100  1
  C  3906  1  0.30868800  0.90975000  0.16003500  1
  C  3907  1  0.30155000  0.88795700  0.16488100  1
  C  3908  1  0.28235000  0.87716700  0.15427600  1
  C  3925  1  0.48265100  0.87207200  0.36621900  1
  C  3926  1  0.47580900  0.86924500  0.38569700  1
  C  3927  1  0.49104200  0.85700000  0.39867000  1
  C  3928  1  0.51317300  0.84572500  0.39208000  1
  C  3929  1  0.51895000  0.84625200  0.37203700  1
  C  3930  1  0.50460200  0.86022500  0.35923400  1
  C  3933  1  0.46523000  0.88528700  0.35462600  1
  C  3934  1  0.45657300  0.90695300  0.35987000  1
  C  3935  1  0.43570700  0.91700000  0.34959600  1
  C  3936  1  0.42429400  0.90624800  0.33347600  1
  C  3937  1  0.43382800  0.88526900  0.32790700  1
  C  3938  1  0.45331100  0.87486100  0.33878100  1
  C  3955  1  0.25372800  0.16310700  0.36467600  1
  C  3956  1  0.26098200  0.16579000  0.38417000  1
  C  3957  1  0.24591000  0.17780000  0.39724500  1
  C  3958  1  0.22367600  0.18917100  0.39071200  1
  C  3959  1  0.21758600  0.18891700  0.37065200  1
  C  3960  1  0.23165000  0.17503700  0.35776300  1
  C  3963  1  0.27076200  0.14988300  0.35295500  1
  C  3964  1  0.27946100  0.12813300  0.35801900  1
  C  3965  1  0.29957600  0.11790200  0.34726900  1
  C  3966  1  0.30991000  0.12844800  0.33077200  1
  C  3967  1  0.30097800  0.14984100  0.32580200  1
  C  3968  1  0.28233600  0.16042300  0.33714700  1
  C  3985  1  0.75215000  0.37326800  0.86516100  1
  C  3986  1  0.75963100  0.36973800  0.88448500  1
  C  3987  1  0.74493500  0.35723400  0.89730200  1
  C  3988  1  0.72331500  0.34553800  0.89041800  1
  C  3989  1  0.71660200  0.34699900  0.87047400  1
  C  3990  1  0.73022900  0.36159900  0.85802800  1
  C  3993  1  0.76898200  0.38707900  0.85397100  1
  C  3994  1  0.77720600  0.40858400  0.85988600  1
  C  3995  1  0.79822300  0.41892700  0.85046000  1
  C  3996  1  0.81072000  0.40821500  0.83480500  1
  C  3997  1  0.80174600  0.38736900  0.82856400  1
  C  3998  1  0.78169100  0.37695700  0.83837500  1
  C  4015  1  0.98432910  0.66247700  0.86638600  1
  C  4016  1  0.97692210  0.66628000  0.88559700  1
  C  4017  1  0.99159606  0.67916500  0.89829700  1
  C  4018  1  0.01291800  0.69104700  0.89138300  1
  C  4019  1  0.01940700  0.68936200  0.87149100  1
  C  4020  1  0.00594500  0.67433000  0.85919200  1
  C  4023  1  0.96777710  0.64821500  0.85519600  1
  C  4024  1  0.96029910  0.62643500  0.86091800  1
  C  4025  1  0.94018810  0.61531800  0.85069700  1
  C  4026  1  0.92836510  0.62551700  0.83434800  1
  C  4027  1  0.93559510  0.64716800  0.82910800  1
  C  4028  1  0.95463110  0.65824900  0.83963700  1
  C  4045  1  0.75469100  0.66427800  0.62754000  1
  C  4046  1  0.76256900  0.66820400  0.60846700  1
  C  4047  1  0.74770900  0.68075200  0.59545500  1
  C  4048  1  0.72567300  0.69224600  0.60200200  1
  C  4049  1  0.71854100  0.69021700  0.62172300  1
  C  4050  1  0.73215300  0.67543200  0.63428000  1
  C  4053  1  0.77160700  0.65061600  0.63909800  1
  C  4054  1  0.78051100  0.62918200  0.63340900  1
  C  4055  1  0.80095600  0.61875900  0.64387800  1
  C  4056  1  0.81191200  0.62905300  0.66040900  1
  C  4057  1  0.80222500  0.64987400  0.66628500  1
  C  4058  1  0.78291400  0.66052700  0.65542700  1
  C  4075  1  0.98216910  0.37208500  0.62907200  1
  C  4076  1  0.97405710  0.36837100  0.60992300  1
  C  4077  1  0.98876310  0.35592300  0.59691000  1
  C  4078  1  0.01081000  0.34428100  0.60347700  1
  C  4079  1  0.01811400  0.34604200  0.62325900  1
  C  4080  1  0.00473400  0.36077900  0.63584400  1
  C  4083  1  0.96554210  0.38573100  0.64070800  1
  C  4084  1  0.95660010  0.40725800  0.63519200  1
  C  4085  1  0.93684410  0.41784500  0.64605400  1
  C  4086  1  0.92689610  0.40775300  0.66291000  1
  C  4087  1  0.93598710  0.38651900  0.66824000  1
  C  4088  1  0.95451610  0.37569200  0.65696900  1
  C  4105  1  0.98560310  0.66132700  0.12916600  1
  C  4106  1  0.97894510  0.66462800  0.10963000  1
  C  4107  1  0.99390706  0.67738100  0.09720400  1
  C  4108  1  0.01583000  0.68842200  0.10434700  1
  C  4109  1  0.02158000  0.68731600  0.12445900  1
  C  4110  1  0.00723900  0.67305600  0.13673400  1
  C  4113  1  0.96826210  0.64774400  0.14013500  1
  C  4114  1  0.96018710  0.62615000  0.13436000  1
  C  4115  1  0.93885810  0.61599800  0.14355300  1
  C  4116  1  0.92592110  0.62697600  0.15886800  1
  C  4117  1  0.93486610  0.64783700  0.16509300  1
  C  4118  1  0.95516610  0.65808900  0.15543900  1
  C  4135  1  0.75309400  0.37298300  0.12796000  1
  C  4136  1  0.75933700  0.37006300  0.10838900  1
  C  4137  1  0.74445800  0.35702600  0.09595200  1
  C  4138  1  0.72291200  0.34560400  0.10305000  1
  C  4139  1  0.71743100  0.34664000  0.12314200  1
  C  4140  1  0.73183000  0.36094800  0.13549100  1
  C  4143  1  0.77026000  0.38678800  0.13902700  1
  C  4144  1  0.77672200  0.40900100  0.13399300  1
  C  4145  1  0.79730400  0.41990000  0.14380900  1
  C  4146  1  0.80941200  0.40962100  0.15998700  1
  C  4147  1  0.80284100  0.38768000  0.16482300  1
  C  4148  1  0.78418200  0.37642000  0.15403400  1
  C  4165  1  0.98339810  0.37280900  0.36649100  1
  C  4166  1  0.97620110  0.36907600  0.38576800  1
  C  4167  1  0.99128606  0.35630900  0.39845900  1
  C  4168  1  0.01361700  0.34544100  0.39170700  1
  C  4169  1  0.01991500  0.34712700  0.37181000  1
  C  4170  1  0.00570200  0.36161000  0.35937100  1
  C  4173  1  0.96609310  0.38631300  0.35509800  1
  C  4174  1  0.95730710  0.40781100  0.36069400  1
  C  4175  1  0.93670010  0.41813700  0.35033100  1
  C  4176  1  0.92554710  0.40773900  0.33392400  1
  C  4177  1  0.93511610  0.38685700  0.32811400  1
  C  4178  1  0.95449010  0.37625600  0.33895000  1
  C  4195  1  0.75561900  0.66489500  0.36519800  1
  C  4196  1  0.76336400  0.66882000  0.38441300  1
  C  4197  1  0.74838000  0.68135700  0.39717200  1
  C  4198  1  0.72565200  0.69190600  0.39052500  1
  C  4199  1  0.71883400  0.69014100  0.37065700  1
  C  4200  1  0.73292200  0.67580100  0.35817300  1
  C  4203  1  0.77261000  0.65137200  0.35374900  1
  C  4204  1  0.78163900  0.62989700  0.35933500  1
  C  4205  1  0.80154100  0.61938000  0.34857000  1
  C  4206  1  0.81153400  0.62946600  0.33172700  1
  C  4207  1  0.80234800  0.65064700  0.32632600  1
  C  4208  1  0.78371900  0.66143900  0.33752900  1
  C  4225  1  0.26442800  0.86330900  0.04670700  1
  C  4226  1  0.27962400  0.85117300  0.03369900  1
  C  4228  1  0.25993700  0.86898400  0.00661300  1
  C  4229  1  0.24424300  0.88192400  0.01891200  1
  C  4230  1  0.24682000  0.87884600  0.03897900  1
  C  4232  1  0.25800600  0.87150200  0.98646500  1
  C  4233  1  0.27178900  0.86071000  0.95508100  1
  C  4234  1  0.25498900  0.87605000  0.94626800  1
  C  4235  1  0.23942200  0.88926000  0.95822100  1
  C  4238  1  0.24052700  0.88712200  0.97845200  1
  C  4239  1  0.22491700  0.89991500  0.99076100  1
  C  4240  1  0.22672800  0.89730300  0.01086100  1
  C  4245  1  0.26684400  0.86022400  0.06635300  1
  C  4246  1  0.25314100  0.87825800  0.92658500  1
  C  4249  1  0.47174000  0.17269900  0.04782100  1
  C  4250  1  0.45712600  0.18554700  0.03479000  1
  C  4252  1  0.47574100  0.16729800  0.00771700  1
  C  4253  1  0.49078700  0.15362400  0.02004100  1
  C  4254  1  0.48846800  0.15657500  0.04011100  1
  C  4256  1  0.47749900  0.16496100  0.98756200  1
  C  4257  1  0.46425100  0.17665900  0.95614100  1
  C  4258  1  0.48024200  0.16081300  0.94734300  1
  C  4259  1  0.49512200  0.14687900  0.95933300  1
  C  4262  1  0.49414800  0.14879800  0.97957200  1
  C  4263  1  0.50910400  0.13526700  0.99190700  1
  C  4264  1  0.50747400  0.13769400  0.01201200  1
  C  4269  1  0.46975000  0.17578400  0.06746900  1
  C  4270  1  0.48191400  0.15872600  0.92765300  1
  C  4273  1  0.26828600  0.17236800  0.44614900  1
  C  4274  1  0.28335700  0.18445000  0.45928500  1
  C  4276  1  0.26326000  0.16740100  0.48621000  1
  C  4277  1  0.24770400  0.15451900  0.47377500  1
  C  4278  1  0.25055200  0.15723400  0.45372500  1
  C  4280  1  0.26101000  0.16527400  0.50634700  1
  C  4281  1  0.27434600  0.17637500  0.53786200  1
  C  4282  1  0.25736300  0.16148000  0.54654200  1
  C  4283  1  0.24193000  0.14834200  0.53444300  1
  C  4286  1  0.24335200  0.15010200  0.51421300  1
  C  4287  1  0.22788900  0.13735700  0.50176700  1
  C  4288  1  0.23001300  0.13958600  0.48167400  1
  C  4293  1  0.27070600  0.17527500  0.42652100  1
  C  4294  1  0.25525900  0.15955500  0.56621800  1
  C  4297  1  0.46790700  0.86096200  0.44721100  1
  C  4298  1  0.45319500  0.84824000  0.45994100  1
  C  4300  1  0.47123800  0.86632600  0.48738400  1
  C  4301  1  0.48637300  0.87986400  0.47537000  1
  C  4302  1  0.48439100  0.87693300  0.45525400  1
  C  4304  1  0.47264000  0.86864700  0.50757000  1
  C  4305  1  0.45901300  0.85700700  0.53870700  1
  C  4306  1  0.47473000  0.87270100  0.54783800  1
  C  4307  1  0.48967500  0.88653200  0.53616200  1
  C  4310  1  0.48902500  0.88466000  0.51590300  1
  C  4311  1  0.50407600  0.89806100  0.50387700  1
  C  4312  1  0.50279300  0.89565100  0.48374100  1
  C  4317  1  0.46615700  0.85797100  0.42752700  1
  C  4318  1  0.47636600  0.87454800  0.56756400  1
  C  4321  1  0.76623900  0.36017900  0.04703100  1
  C  4322  1  0.78090500  0.34740500  0.03414100  1
  C  4324  1  0.76191000  0.36541400  0.00687200  1
  C  4325  1  0.74678200  0.37899000  0.01905300  1
  C  4326  1  0.74927000  0.37612800  0.03914600  1
  C  4328  1  0.76004600  0.36773000  0.98669800  1
  C  4329  1  0.77334900  0.35621500  0.95537500  1
  C  4330  1  0.75718700  0.37196700  0.94644900  1
  C  4331  1  0.74216200  0.38573100  0.95832500  1
  C  4334  1  0.74319900  0.38377300  0.97856600  1
  C  4335  1  0.72813800  0.39718500  0.99076000  1
  C  4336  1  0.72988300  0.39478000  0.01087800  1
  C  4341  1  0.76850400  0.35732500  0.06671600  1
  C  4342  1  0.75547000  0.37421900  0.92675200  1
  C  4345  1  0.97211510  0.67380600  0.04801400  1
  C  4346  1  0.95658310  0.68588000  0.03501000  1
  C  4348  1  0.97694110  0.66918300  0.00788200  1
  C  4349  1  0.99298906  0.65632800  0.02017300  1
  C  4350  1  0.99022406  0.65885900  0.04025000  1
  C  4352  1  0.97906010  0.66718100  0.98772000  1
  C  4353  1  0.96506210  0.67828700  0.95630500  1
  C  4354  1  0.98243010  0.66357900  0.94746900  1
  C  4355  1  0.99839106  0.65053900  0.95946500  1
  C  4358  1  0.99710406  0.65218900  0.97970600  1
  C  4359  1  0.01306400  0.63948400  0.99201100  1
  C  4360  1  0.01104500  0.64156600  0.01212000  1
  C  4365  1  0.96960210  0.67637300  0.06768600  1
  C  4366  1  0.98442710  0.66164500  0.92776400  1
  C  4369  1  0.77096300  0.67722800  0.44609400  1
  C  4370  1  0.78540400  0.68982300  0.45925600  1
  C  4372  1  0.76596400  0.67213300  0.48615400  1
  C  4373  1  0.75107800  0.65872300  0.47368100  1
  C  4374  1  0.75391100  0.66150700  0.45364200  1
  C  4376  1  0.76371200  0.66991500  0.50628800  1
  C  4377  1  0.77639500  0.68137100  0.53786500  1
  C  4378  1  0.76007300  0.66588900  0.54648300  1
  C  4379  1  0.74529400  0.65229200  0.53430900  1
  C  4382  1  0.74672500  0.65414400  0.51408900  1
  C  4383  1  0.73192000  0.64088900  0.50160400  1
  C  4384  1  0.73404700  0.64319400  0.48152300  1
  C  4389  1  0.77337000  0.68007200  0.42645900  1
  C  4390  1  0.75799500  0.66371600  0.56615300  1
  C  4393  1  0.96905410  0.36023000  0.44730200  1
  C  4394  1  0.95331210  0.34856100  0.46010500  1
  C  4396  1  0.97328010  0.36527600  0.48747900  1
  C  4397  1  0.98954410  0.37771200  0.47539300  1
  C  4398  1  0.98708410  0.37497000  0.45528800  1
  C  4400  1  0.97504610  0.36752900  0.50765900  1
  C  4401  1  0.96050110  0.35704600  0.53888100  1
  C  4402  1  0.97770410  0.37162400  0.54792400  1
  C  4403  1  0.99388306  0.38426800  0.53614900  1
  C  4406  1  0.99295306  0.38236100  0.51590000  1
  C  4407  1  0.00914700  0.39463600  0.50380100  1
  C  4408  1  0.00747900  0.39230300  0.48367500  1
  C  4413  1  0.96667610  0.35760400  0.42760000  1
  C  4414  1  0.97953610  0.37359100  0.56764600  1
  C  4417  1  0.32195900  0.97597000  0.85422500  1
  C  4418  1  0.31767000  0.99730700  0.84659900  1
  C  4420  1  0.35700300  0.01121100  0.85967200  1
  C  4421  1  0.36249900  0.99034900  0.86808400  1
  C  4422  1  0.34479000  0.97300400  0.86518100  1
  C  4424  1  0.37456700  0.02879300  0.86162300  1
  C  4425  1  0.38587400  0.06616700  0.85474700  1
  C  4426  1  0.40937200  0.06444200  0.86496000  1
  C  4427  1  0.41479600  0.04389500  0.87379200  1
  C  4430  1  0.39779200  0.02583600  0.87218100  1
  C  4431  1  0.40301300  0.00508400  0.88067100  1
  C  4432  1  0.38563700  0.98755500  0.87859900  1
  C  4437  1  0.30608100  0.95850600  0.84861100  1
  C  4438  1  0.42566400  0.08244200  0.86744000  1
  C  4441  1  0.32336500  0.06136500  0.63946100  1
  C  4442  1  0.31664900  0.03940800  0.64373500  1
  C  4444  1  0.35846100  0.02560000  0.63596700  1
  C  4445  1  0.36649700  0.04713400  0.63098800  1
  C  4446  1  0.34863600  0.06474200  0.63274700  1
  C  4448  1  0.37611100  0.00776000  0.63570100  1
  C  4449  1  0.38519000  0.96977700  0.64228100  1
  C  4450  1  0.41154100  0.97216800  0.63817700  1
  C  4451  1  0.41955900  0.99325000  0.63213700  1
  C  4454  1  0.40212000  0.01123300  0.63067600  1
  C  4455  1  0.40979400  0.03258700  0.62516100  1
  C  4456  1  0.39216900  0.05032100  0.62526200  1
  C  4461  1  0.30689100  0.07872600  0.64446600  1
  C  4462  1  0.42938400  0.95558400  0.64246700  1
  C  4465  1  0.41299100  0.06158700  0.13828000  1
  C  4466  1  0.41801000  0.03968400  0.14424500  1
  C  4468  1  0.37693800  0.02700200  0.13340300  1
  C  4469  1  0.37066400  0.04850900  0.12669700  1
  C  4470  1  0.38892800  0.06548200  0.12921100  1
  C  4472  1  0.35868500  0.00985800  0.13217300  1
  C  4473  1  0.34697800  0.97252400  0.13887100  1
  C  4474  1  0.32158100  0.97563000  0.13196900  1
  C  4475  1  0.31569500  0.99679000  0.12444600  1
  C  4478  1  0.33386400  0.01405100  0.12436800  1
  C  4479  1  0.32798800  0.03536400  0.11730600  1
  C  4480  1  0.34617000  0.05236900  0.11843000  1
  C  4485  1  0.42937100  0.07864600  0.14399800  1
  C  4486  1  0.30242700  0.95957100  0.13355400  1
  C  4489  1  0.41145700  0.97291700  0.35491500  1
  C  4490  1  0.41838400  0.99485700  0.35077800  1
  C  4492  1  0.37655600  0.00882400  0.35827700  1
  C  4493  1  0.36830500  0.98730800  0.36310800  1
  C  4494  1  0.38607400  0.96962500  0.36141900  1
  C  4496  1  0.35901800  0.02674500  0.35846200  1
  C  4497  1  0.35028800  0.06479500  0.35193800  1
  C  4498  1  0.32385900  0.06250700  0.35580700  1
  C  4499  1  0.31560900  0.04144200  0.36170600  1
  C  4502  1  0.33290900  0.02337100  0.36325200  1
  C  4503  1  0.32501200  0.00203200  0.36862400  1
  C  4504  1  0.34252600  0.98421600  0.36860700  1
  C  4509  1  0.42783700  0.95549700  0.34991700  1
  C  4510  1  0.30619700  0.07919800  0.35143600  1
  C  4513  1  0.82355300  0.47432300  0.85676100  1
  C  4514  1  0.81853600  0.49625800  0.85087600  1
  C  4516  1  0.85965200  0.50888600  0.86167900  1
  C  4517  1  0.86592900  0.48734700  0.86830400  1
  C  4518  1  0.84765000  0.47038500  0.86576500  1
  C  4520  1  0.87790300  0.52603400  0.86296500  1
  C  4521  1  0.88961100  0.56342200  0.85645600  1
  C  4522  1  0.91497410  0.56031200  0.86342900  1
  C  4523  1  0.92085010  0.53909900  0.87085000  1
  C  4526  1  0.90271010  0.52181100  0.87078400  1
  C  4527  1  0.90860010  0.50045900  0.87774900  1
  C  4528  1  0.89043200  0.48344900  0.87654300  1
  C  4533  1  0.80710000  0.45731000  0.85103700  1
  C  4534  1  0.93409410  0.57645200  0.86212200  1
  C  4537  1  0.82510200  0.56286400  0.63805500  1
  C  4538  1  0.81810900  0.54090500  0.64205400  1
  C  4540  1  0.85997400  0.52692200  0.63469100  1
  C  4541  1  0.86829800  0.54845700  0.62999500  1
  C  4542  1  0.85054800  0.56615600  0.63168600  1
  C  4544  1  0.87748300  0.50897600  0.63450100  1
  C  4545  1  0.88612300  0.47088100  0.64091100  1
  C  4546  1  0.91258010  0.47315100  0.63713500  1
  C  4547  1  0.92089310  0.49424300  0.63135700  1
  C  4550  1  0.90363210  0.51234400  0.62982800  1
  C  4551  1  0.91160710  0.53370500  0.62459100  1
  C  4552  1  0.89412600  0.55154600  0.62462200  1
  C  4557  1  0.80869600  0.58026900  0.64306600  1
  C  4558  1  0.93021310  0.45644500  0.64155000  1
  C  4561  1  0.91447510  0.56012200  0.13830000  1
  C  4562  1  0.91903810  0.53874200  0.14574500  1
  C  4564  1  0.87973600  0.52469100  0.13275500  1
  C  4565  1  0.87396700  0.54559500  0.12452400  1
  C  4566  1  0.89153200  0.56303600  0.12747000  1
  C  4568  1  0.86231600  0.50700800  0.13077300  1
  C  4569  1  0.85140300  0.46950200  0.13745900  1
  C  4570  1  0.82778800  0.47117700  0.12739800  1
  C  4571  1  0.82209600  0.49176600  0.11873500  1
  C  4574  1  0.83896200  0.50991500  0.12036600  1
  C  4575  1  0.83347500  0.53070600  0.11204600  1
  C  4576  1  0.85071100  0.54833200  0.11414600  1
  C  4581  1  0.93019410  0.57764900  0.14400000  1
  C  4582  1  0.81157700  0.45312800  0.12494100  1
  C  4585  1  0.91280010  0.47409900  0.35614300  1
  C  4586  1  0.91987710  0.49604500  0.35216700  1
  C  4588  1  0.87810800  0.51013900  0.35967500  1
  C  4589  1  0.86970900  0.48861900  0.36434900  1
  C  4590  1  0.88737400  0.47086900  0.36257800  1
  C  4592  1  0.86067500  0.52813400  0.35993900  1
  C  4593  1  0.85216900  0.56626400  0.35360500  1
  C  4594  1  0.82571300  0.56405300  0.35740900  1
  C  4595  1  0.81733300  0.54297900  0.36317400  1
  C  4598  1  0.83453000  0.52483000  0.36465500  1
  C  4599  1  0.82648600  0.50348400  0.36987700  1
  C  4600  1  0.84389400  0.48559300  0.36977900  1
  C  4605  1  0.92910810  0.45665200  0.35108200  1
  C  4606  1  0.80812900  0.58078800  0.35299400  1
  C  4609  1  0.06463400  0.73267100  0.85911500  1
  C  4610  1  0.06451700  0.75477500  0.85262600  1
  C  4612  1  0.10957100  0.75917300  0.85857700  1
  C  4613  1  0.11123600  0.73698300  0.86508400  1
  C  4614  1  0.08867500  0.72408300  0.86523100  1
  C  4616  1  0.13154200  0.77285900  0.85892700  1
  C  4617  1  0.15091600  0.80827300  0.85396300  1
  C  4618  1  0.17524400  0.80086200  0.86049400  1
  C  4619  1  0.17682600  0.77847200  0.86622500  1
  C  4622  1  0.15539400  0.76430800  0.86568300  1
  C  4623  1  0.15694400  0.74218100  0.87198100  1
  C  4624  1  0.13511700  0.72869800  0.87172300  1
  C  4629  1  0.04151000  0.72144800  0.86184700  1
  C  4630  1  0.19676100  0.81440800  0.86287700  1
  C  4633  1  0.67038200  0.30410400  0.85865500  1
  C  4634  1  0.66990700  0.28209700  0.85194100  1
  C  4636  1  0.62519200  0.27790800  0.85885700  1
  C  4637  1  0.62412800  0.30001100  0.86563100  1
  C  4638  1  0.64680400  0.31276000  0.86540000  1
  C  4640  1  0.60312600  0.26436100  0.85956800  1
  C  4641  1  0.58311900  0.22916800  0.85462700  1
  C  4642  1  0.55926500  0.23664800  0.86176600  1
  C  4643  1  0.55824600  0.25894200  0.86780900  1
  C  4646  1  0.57977800  0.27296600  0.86695900  1
  C  4647  1  0.57882100  0.29500300  0.87352800  1
  C  4648  1  0.60074500  0.30834900  0.87290900  1
  C  4653  1  0.69376600  0.31508500  0.86113000  1
  C  4654  1  0.53768800  0.22326000  0.86425000  1
  C  4657  1  0.06470800  0.30334300  0.63555900  1
  C  4658  1  0.06548000  0.28126900  0.64207700  1
  C  4660  1  0.11033100  0.27730700  0.63555000  1
  C  4661  1  0.11113000  0.29949100  0.62903900  1
  C  4662  1  0.08819800  0.31218400  0.62917600  1
  C  4664  1  0.13261500  0.26378300  0.63491200  1
  C  4665  1  0.15291200  0.22848500  0.63967700  1
  C  4666  1  0.17673600  0.23603100  0.63285500  1
  C  4667  1  0.17767200  0.25838400  0.62708000  1
  C  4670  1  0.15593900  0.27246200  0.62786900  1
  C  4671  1  0.15665900  0.29459800  0.62158500  1
  C  4672  1  0.13448000  0.30795500  0.62212900  1
  C  4677  1  0.04119700  0.31436700  0.63317300  1
  C  4678  1  0.19842500  0.22258000  0.63054200  1
  C  4681  1  0.67163300  0.73233700  0.63437800  1
  C  4682  1  0.67059900  0.75408100  0.64167700  1
  C  4684  1  0.62568200  0.75794600  0.63481100  1
  C  4685  1  0.62516700  0.73609200  0.62746700  1
  C  4686  1  0.64825300  0.72361000  0.62739500  1
  C  4688  1  0.60319900  0.77126000  0.63447200  1
  C  4689  1  0.58235600  0.80605100  0.64042700  1
  C  4690  1  0.55861400  0.79856300  0.63313600  1
  C  4691  1  0.55801200  0.77652400  0.62646800  1
  C  4694  1  0.57997700  0.76268100  0.62688500  1
  C  4695  1  0.57955600  0.74087900  0.61973800  1
  C  4696  1  0.60192500  0.72774100  0.61999100  1
  C  4701  1  0.69524500  0.72156700  0.63194500  1
  C  4702  1  0.53664800  0.81180000  0.63122000  1
  C  4705  1  0.67218000  0.30341400  0.13545300  1
  C  4706  1  0.67214700  0.28137500  0.14209200  1
  C  4708  1  0.62709700  0.27712300  0.13601800  1
  C  4709  1  0.62560000  0.29925300  0.12934000  1
  C  4710  1  0.64823200  0.31205200  0.12918900  1
  C  4712  1  0.60505400  0.26352700  0.13565300  1
  C  4713  1  0.58546400  0.22822400  0.14071500  1
  C  4714  1  0.56125200  0.23566000  0.13396400  1
  C  4715  1  0.55983100  0.25800900  0.12809900  1
  C  4718  1  0.58131700  0.27210700  0.12869500  1
  C  4719  1  0.57993800  0.29417300  0.12222500  1
  C  4720  1  0.60183200  0.30757300  0.12251000  1
  C  4725  1  0.69535100  0.31448500  0.13256300  1
  C  4726  1  0.53975800  0.22213600  0.13138300  1
  C  4729  1  0.06676100  0.73087500  0.13642700  1
  C  4730  1  0.06661800  0.75316400  0.14240700  1
  C  4732  1  0.11154200  0.75754700  0.13643600  1
  C  4733  1  0.11323800  0.73517200  0.13046300  1
  C  4734  1  0.09074800  0.72218400  0.13057500  1
  C  4736  1  0.13339500  0.77133300  0.13572900  1
  C  4737  1  0.15253600  0.80702400  0.13972500  1
  C  4738  1  0.17676200  0.79956400  0.13329900  1
  C  4739  1  0.17843800  0.77699400  0.12817300  1
  C  4742  1  0.15716300  0.76270500  0.12914900  1
  C  4743  1  0.15875800  0.74038800  0.12341100  1
  C  4744  1  0.13704200  0.72679700  0.12402100  1
  C  4749  1  0.04365200  0.71960500  0.13361100  1
  C  4750  1  0.19802000  0.81321600  0.13041000  1
  C  4753  1  0.67183200  0.73239100  0.35824400  1
  C  4754  1  0.67081800  0.75433800  0.35142500  1
  C  4756  1  0.62601700  0.75815400  0.35819900  1
  C  4757  1  0.62547600  0.73608700  0.36502800  1
  C  4758  1  0.64850100  0.72352500  0.36491200  1
  C  4760  1  0.60364700  0.77157000  0.35883400  1
  C  4761  1  0.58303800  0.80668800  0.35379400  1
  C  4762  1  0.55938400  0.79914800  0.36094300  1
  C  4763  1  0.55869400  0.77688300  0.36700800  1
  C  4766  1  0.58050200  0.76289700  0.36620000  1
  C  4767  1  0.58003200  0.74087200  0.37279700  1
  C  4768  1  0.60229600  0.72762300  0.37225200  1
  C  4773  1  0.69544300  0.72159900  0.36077700  1
  C  4774  1  0.53768200  0.81255100  0.36339400  1
  C  4777  1  0.06567900  0.30424200  0.35894900  1
  C  4778  1  0.06602100  0.28219600  0.35235300  1
  C  4780  1  0.11114000  0.27804100  0.35819500  1
  C  4781  1  0.11235500  0.30018900  0.36476800  1
  C  4782  1  0.08949700  0.31296900  0.36501100  1
  C  4784  1  0.13336900  0.26442500  0.35848400  1
  C  4785  1  0.15322700  0.22904000  0.35342100  1
  C  4786  1  0.17737500  0.23644000  0.35999700  1
  C  4787  1  0.17869600  0.25879000  0.36576500  1
  C  4790  1  0.15703700  0.27297700  0.36524700  1
  C  4791  1  0.15816800  0.29508100  0.37158400  1
  C  4792  1  0.13605000  0.30853200  0.37138100  1
  C  4797  1  0.04236400  0.31535100  0.36174500  1
  C  4798  1  0.19897800  0.22282400  0.36232000  1
  C  4801  1  0.33042100  0.85749200  0.78928400  1
  C  4802  1  0.32390300  0.84603400  0.77228000  1
  C  4804  1  0.36385600  0.85487900  0.75760000  1
  C  4805  1  0.37186600  0.86637400  0.77436700  1
  C  4806  1  0.35499000  0.86719800  0.79015300  1
  C  4808  1  0.37977200  0.85418400  0.74126400  1
  C  4809  1  0.38603100  0.84301800  0.70859900  1
  C  4810  1  0.40962000  0.85410300  0.70770500  1
  C  4811  1  0.41838800  0.86499000  0.72446100  1
  C  4814  1  0.40366900  0.86523300  0.74145500  1
  C  4815  1  0.41159200  0.87654300  0.75823700  1
  C  4816  1  0.39585900  0.87701800  0.77461200  1
  C  4821  1  0.31276200  0.86011800  0.80400000  1
  C  4822  1  0.42230400  0.85618900  0.69044700  1
  C  4825  1  0.40288100  0.17851100  0.79002700  1
  C  4826  1  0.40832100  0.19132100  0.77362900  1
  C  4828  1  0.36980000  0.17996800  0.75773600  1
  C  4829  1  0.36287500  0.16702800  0.77387600  1
  C  4830  1  0.37953800  0.16677500  0.78998300  1
  C  4832  1  0.35413200  0.18018300  0.74108500  1
  C  4833  1  0.34712100  0.19244000  0.70873300  1
  C  4834  1  0.32488500  0.17956500  0.70691800  1
  C  4835  1  0.31712000  0.16720500  0.72306900  1
  C  4838  1  0.33157000  0.16726500  0.74035000  1
  C  4839  1  0.32468900  0.15453900  0.75652000  1
  C  4840  1  0.34018100  0.15449000  0.77320100  1
  C  4845  1  0.42048300  0.17659700  0.80504200  1
  C  4846  1  0.31245900  0.17756600  0.68941000  1
  C  4849  1  0.40474900  0.17918700  0.20450300  1
  C  4850  1  0.41137700  0.19046900  0.22157400  1
  C  4852  1  0.37169300  0.18117600  0.23644700  1
  C  4853  1  0.36356700  0.16985700  0.21961900  1
  C  4854  1  0.38025200  0.16934100  0.20370800  1
  C  4856  1  0.35598700  0.18155500  0.25290600  1
  C  4857  1  0.35004200  0.19229100  0.28571400  1
  C  4858  1  0.32653700  0.18108300  0.28666300  1
  C  4859  1  0.31765700  0.17033600  0.26986900  1
  C  4862  1  0.33217100  0.17037700  0.25277300  1
  C  4863  1  0.32412400  0.15925000  0.23592900  1
  C  4864  1  0.33965400  0.15907800  0.21943800  1
  C  4869  1  0.42228100  0.17682200  0.18966400  1
  C  4870  1  0.31396800  0.17887600  0.30395600  1
  C  4873  1  0.33243300  0.85779500  0.20373000  1
  C  4874  1  0.32664900  0.84492300  0.22002200  1
  C  4876  1  0.36512800  0.85579500  0.23623600  1
  C  4877  1  0.37238700  0.86880600  0.22022700  1
  C  4878  1  0.35591000  0.86933700  0.20401200  1
  C  4880  1  0.38063300  0.85525600  0.25296900  1
  C  4881  1  0.38720800  0.84257100  0.28524900  1
  C  4882  1  0.40962000  0.85518100  0.28727500  1
  C  4883  1  0.41768200  0.86764600  0.27127000  1
  C  4886  1  0.40337300  0.86792900  0.25392300  1
  C  4887  1  0.41057500  0.88074800  0.23789000  1
  C  4888  1  0.39524300  0.88111300  0.22112500  1
  C  4893  1  0.31505600  0.85985500  0.18857000  1
  C  4894  1  0.42194700  0.85687400  0.30485000  1
  C  4897  1  0.83118600  0.35772800  0.78911400  1
  C  4898  1  0.82474700  0.34635900  0.77205000  1
  C  4900  1  0.86456100  0.35565000  0.75737900  1
  C  4901  1  0.87249700  0.36706400  0.77420700  1
  C  4902  1  0.85565200  0.36762300  0.79001800  1
  C  4904  1  0.88043900  0.35520800  0.74102300  1
  C  4905  1  0.88671900  0.34432500  0.70829800  1
  C  4906  1  0.91020310  0.35557400  0.70743600  1
  C  4907  1  0.91890610  0.36641500  0.72423300  1
  C  4910  1  0.90422710  0.36642900  0.74124800  1
  C  4911  1  0.91208610  0.37765000  0.75809300  1
  C  4912  1  0.89639000  0.37787400  0.77449200  1
  C  4917  1  0.81357600  0.36002200  0.80389800  1
  C  4918  1  0.92287310  0.35774100  0.69018600  1
  C  4921  1  0.90460710  0.67685600  0.79003200  1
  C  4922  1  0.91009110  0.68992100  0.77379700  1
  C  4924  1  0.87154900  0.67891400  0.75775400  1
  C  4925  1  0.86459600  0.66569300  0.77370900  1
  C  4926  1  0.88125000  0.66513800  0.78981500  1
  C  4928  1  0.85585000  0.67950400  0.74113000  1
  C  4929  1  0.84882200  0.69243600  0.70898600  1
  C  4930  1  0.82650800  0.67968700  0.70701000  1
  C  4931  1  0.81872500  0.66702400  0.72297400  1
  C  4934  1  0.83322500  0.66666667  0.74022900  1
  C  4935  1  0.82632700  0.65364900  0.75620900  1
  C  4936  1  0.84185200  0.65323200  0.77287200  1
  C  4941  1  0.92207610  0.67490300  0.80513400  1
  C  4942  1  0.81408800  0.67803000  0.68947600  1
  C  4945  1  0.90576710  0.67773900  0.20457500  1
  C  4946  1  0.91236310  0.68938900  0.22146200  1
  C  4948  1  0.87272400  0.68030800  0.23648800  1
  C  4949  1  0.86463900  0.66859900  0.21985700  1
  C  4950  1  0.88131600  0.66779600  0.20395300  1
  C  4952  1  0.85701100  0.68102100  0.25293000  1
  C  4953  1  0.85102900  0.69247400  0.28554400  1
  C  4954  1  0.82758800  0.68119300  0.28669200  1
  C  4955  1  0.81873500  0.67006500  0.27008400  1
  C  4958  1  0.83323900  0.66977500  0.25298800  1
  C  4959  1  0.82523700  0.65825000  0.23633900  1
  C  4960  1  0.84076700  0.65775700  0.21985500  1
  C  4965  1  0.92323510  0.67524800  0.18971400  1
  C  4966  1  0.81511200  0.67924500  0.30404400  1
  C  4969  1  0.83427900  0.35802400  0.20368400  1
  C  4970  1  0.82870000  0.34507300  0.21996900  1
  C  4972  1  0.86687500  0.35656000  0.23624600  1
  C  4973  1  0.87393400  0.36965500  0.22023800  1
  C  4974  1  0.85751100  0.36991900  0.20399200  1
  C  4976  1  0.88230100  0.35630200  0.25301900  1
  C  4977  1  0.88895200  0.34379200  0.28533600  1
  C  4978  1  0.91106110  0.35677700  0.28741400  1
  C  4979  1  0.91896710  0.36931900  0.27140900  1
  C  4982  1  0.90476010  0.36933100  0.25401600  1
  C  4983  1  0.91178210  0.38221400  0.23797600  1
  C  4984  1  0.89652800  0.38230800  0.22117100  1
  C  4989  1  0.81693000  0.35982000  0.18849400  1
  C  4990  1  0.92328010  0.35861300  0.30501700  1
  N  8  1  0.83874000  0.83722900  0.90344400  1
  N  15  1  0.96310900  0.91782100  0.82552300  1
  N  17  1  0.85365900  0.86431300  0.83890200  1
  N  18  1  0.89502900  0.92177300  0.87249300  1
  N  27  1  0.94530800  0.87778800  0.81409400  1
  N  28  1  0.93970700  0.93897300  0.85588400  1
  N  29  1  0.82808900  0.83562800  0.86437600  1
  N  30  1  0.88004200  0.86144600  0.91609400  1
  N  38  1  0.16002500  0.20043400  0.90483900  1
  N  45  1  0.04239700  0.11560000  0.82173500  1
  N  47  1  0.14459200  0.17369800  0.84004900  1
  N  48  1  0.10727400  0.11487000  0.87194100  1
  N  57  1  0.05412200  0.15834000  0.81424500  1
  N  58  1  0.06148400  0.09651100  0.85390400  1
  N  59  1  0.17049000  0.20204800  0.86581200  1
  N  60  1  0.11942000  0.17551100  0.91723800  1
  N  68  1  0.84137000  0.20150600  0.58871600  1
  N  75  1  0.96213300  0.11852200  0.67119900  1
  N  77  1  0.85419800  0.17199400  0.65288200  1
  N  78  1  0.89888900  0.11607500  0.61978600  1
  N  87  1  0.94193200  0.15813900  0.68251800  1
  N  88  1  0.94236000  0.09866100  0.63872800  1
  N  89  1  0.82953100  0.20164500  0.62746000  1
  N  90  1  0.88278800  0.17664300  0.57657800  1
  N  98  1  0.15651000  0.83311500  0.58967200  1
  N  105  1  0.04012800  0.91668200  0.67456700  1
  N  107  1  0.14505700  0.86207400  0.65401500  1
  N  108  1  0.09886900  0.91767400  0.62092700  1
  N  117  1  0.05816700  0.87575300  0.68422500  1
  N  118  1  0.05592200  0.93507300  0.64082600  1
  N  119  1  0.16938500  0.83278500  0.62833100  1
  N  120  1  0.11459100  0.85765700  0.57779300  1
  N  128  1  0.16366800  0.19849700  0.09108200  1
  N  135  1  0.03653400  0.11913600  0.16795900  1
  N  137  1  0.14570800  0.17270800  0.15550100  1
  N  138  1  0.10481500  0.11544500  0.12117500  1
  N  147  1  0.05411200  0.15919600  0.17950700  1
  N  148  1  0.05971100  0.09844900  0.13735600  1
  N  149  1  0.17256800  0.20087800  0.13031600  1
  N  150  1  0.12218100  0.17490400  0.07798500  1
  N  158  1  0.83797500  0.83627400  0.08983500  1
  N  165  1  0.95906700  0.92024500  0.17089100  1
  N  167  1  0.85559300  0.86336800  0.15408200  1
  N  168  1  0.89549300  0.92034000  0.11939900  1
  N  177  1  0.94618900  0.87798200  0.17913100  1
  N  178  1  0.93925600  0.93974900  0.13918400  1
  N  179  1  0.82921200  0.83444800  0.12906000  1
  N  180  1  0.87881300  0.86043500  0.07682900  1
  N  188  1  0.16057200  0.83456300  0.40492900  1
  N  195  1  0.03630400  0.91561200  0.32358300  1
  N  197  1  0.14462800  0.86258100  0.34068900  1
  N  198  1  0.10043700  0.91833200  0.37434800  1
  N  207  1  0.05668000  0.87619000  0.31198100  1
  N  208  1  0.05660100  0.93561400  0.35578600  1
  N  209  1  0.17069800  0.83358700  0.36595400  1
  N  210  1  0.11872900  0.85852300  0.41740100  1
  N  218  1  0.84069900  0.20017300  0.40361900  1
  N  225  1  0.96045700  0.11835600  0.31985400  1
  N  227  1  0.85545500  0.17285000  0.33921000  1
  N  228  1  0.90060000  0.11687400  0.37277100  1
  N  237  1  0.94241500  0.15929100  0.31015300  1
  N  238  1  0.94398700  0.09966600  0.35328700  1
  N  239  1  0.83006300  0.20176000  0.36465500  1
  N  240  1  0.88253300  0.17598100  0.41599200  1
  N  248  1  0.34110900  0.33365700  0.90308300  1
  N  255  1  0.46350800  0.41752900  0.82599000  1
  N  257  1  0.35398500  0.36465100  0.83957700  1
  N  258  1  0.39705000  0.41950300  0.87433900  1
  N  267  1  0.44597400  0.37756700  0.81415900  1
  N  268  1  0.44118700  0.43738300  0.85737700  1
  N  269  1  0.32780600  0.33593900  0.86451500  1
  N  270  1  0.38250900  0.35750800  0.91608400  1
  N  278  1  0.65929900  0.70329900  0.90397400  1
  N  285  1  0.54245500  0.61472100  0.82350900  1
  N  287  1  0.64628300  0.67107600  0.84081900  1
  N  288  1  0.60444700  0.61644700  0.87610700  1
  N  297  1  0.55522200  0.65687200  0.81471000  1
  N  298  1  0.56175300  0.59601900  0.85574700  1
  N  299  1  0.67213100  0.70061600  0.86544000  1
  N  300  1  0.61865100  0.67879100  0.91706300  1
  N  308  1  0.34350200  0.70447600  0.58926300  1
  N  315  1  0.46390100  0.61943100  0.67039100  1
  N  317  1  0.35530500  0.67169600  0.65236700  1
  N  318  1  0.40154200  0.61842000  0.61829100  1
  N  327  1  0.44351800  0.65872300  0.68233900  1
  N  328  1  0.44438700  0.60024800  0.63752500  1
  N  329  1  0.32948300  0.70101900  0.62743800  1
  N  330  1  0.38549700  0.68059200  0.57678000  1
  N  338  1  0.65707400  0.33217900  0.59070700  1
  N  345  1  0.54076000  0.41809800  0.67380900  1
  N  347  1  0.64610400  0.36432500  0.65398600  1
  N  348  1  0.59911800  0.41794200  0.61987900  1
  N  357  1  0.55883800  0.37731700  0.68401800  1
  N  358  1  0.55661800  0.43596800  0.63984100  1
  N  359  1  0.67137200  0.33502600  0.62899900  1
  N  360  1  0.61522400  0.35643900  0.57818700  1
  N  368  1  0.66316600  0.69972500  0.09186500  1
  N  375  1  0.53701700  0.61789200  0.16738000  1
  N  377  1  0.64691700  0.67028800  0.15541000  1
  N  378  1  0.60506100  0.61495500  0.12030700  1
  N  387  1  0.55485600  0.65768500  0.17947500  1
  N  388  1  0.56060600  0.59723100  0.13685200  1
  N  389  1  0.67423500  0.69860800  0.13081900  1
  N  390  1  0.62189900  0.67624900  0.07836500  1
  N  398  1  0.33990400  0.33402500  0.09053200  1
  N  405  1  0.45944600  0.42053100  0.17083600  1
  N  407  1  0.35681200  0.36346800  0.15420700  1
  N  408  1  0.39455000  0.42009400  0.12059700  1
  N  417  1  0.44766400  0.37797100  0.17911200  1
  N  418  1  0.44015800  0.43901000  0.13846000  1
  N  419  1  0.32907200  0.33540200  0.12941800  1
  N  420  1  0.38044300  0.35825700  0.07713600  1
  N  428  1  0.66081800  0.33374200  0.40432500  1
  N  435  1  0.53774800  0.41733700  0.32398400  1
  N  437  1  0.64614200  0.36510800  0.34106600  1
  N  438  1  0.60081000  0.41875400  0.37558600  1
  N  447  1  0.55805400  0.37796700  0.31207200  1
  N  448  1  0.55760600  0.43669500  0.35665400  1
  N  449  1  0.67284700  0.33607500  0.36572100  1
  N  450  1  0.61903600  0.35737700  0.41722400  1
  N  458  1  0.34281900  0.70338100  0.40321800  1
  N  465  1  0.46201400  0.61916600  0.32089500  1
  N  467  1  0.35622800  0.67215500  0.33992600  1
  N  468  1  0.40329400  0.61917900  0.37460000  1
  N  477  1  0.44359100  0.65974600  0.31046000  1
  N  478  1  0.44597900  0.60125200  0.35480000  1
  N  479  1  0.32973500  0.70088700  0.36470600  1
  N  480  1  0.38519300  0.68017400  0.41592700  1
  N  483  1  0.90894400  0.85430500  0.01447100  1
  N  493  1  0.90487900  0.85906900  0.97453500  1
  N  507  1  0.09179400  0.18252400  0.01555800  1
  N  517  1  0.09551000  0.17809200  0.97560200  1
  N  531  1  0.91241100  0.18167100  0.47849400  1
  N  541  1  0.90773800  0.17766100  0.51840900  1
  N  555  1  0.08754000  0.85124000  0.47921900  1
  N  565  1  0.09058600  0.85561500  0.51923100  1
  N  579  1  0.41032300  0.35034700  0.01487900  1
  N  589  1  0.40639000  0.35474300  0.97484700  1
  N  603  1  0.59167700  0.68326700  0.01576700  1
  N  613  1  0.59606700  0.67948600  0.97577200  1
  N  627  1  0.41449100  0.68695900  0.47846400  1
  N  637  1  0.40980900  0.68275200  0.51841400  1
  N  651  1  0.58811800  0.35137100  0.47937900  1
  N  661  1  0.59184700  0.35560400  0.51940700  1
  N  675  1  0.96698200  0.01368100  0.84942700  1
  N  685  1  0.00186100  0.04877900  0.85347300  1
  N  699  1  0.96611000  0.02275500  0.64200100  1
  N  709  1  0.00101500  0.98726400  0.64117400  1
  N  723  1  0.03242000  0.02363800  0.14176100  1
  N  733  1  0.99616600  0.98930600  0.13893300  1
  N  747  1  0.03325100  0.01158300  0.35244700  1
  N  757  1  0.99857400  0.04722600  0.35312300  1
  N  771  1  0.46838600  0.51229100  0.85337500  1
  N  781  1  0.50467600  0.54662700  0.85629100  1
  N  795  1  0.46746900  0.52416500  0.64039300  1
  N  805  1  0.50210500  0.48847100  0.63972800  1
  N  819  1  0.53410500  0.52227400  0.14287600  1
  N  829  1  0.49952300  0.48698100  0.13875600  1
  N  843  1  0.53484200  0.51283400  0.35390900  1
  N  853  1  0.50036400  0.54862600  0.35473400  1
  N  867  1  0.71841700  0.76692700  0.85263500  1
  N  877  1  0.76263800  0.79439800  0.85341800  1
  N  891  1  0.28014600  0.27009100  0.85231100  1
  N  901  1  0.23573100  0.24290800  0.85378900  1
  N  915  1  0.71972300  0.26931400  0.64179000  1
  N  925  1  0.76436100  0.24227500  0.64045600  1
  N  939  1  0.28044200  0.76583800  0.64159000  1
  N  949  1  0.23537700  0.79247500  0.64084900  1
  N  963  1  0.28241300  0.26932000  0.14209700  1
  N  973  1  0.23804200  0.24203400  0.14130100  1
  N  987  1  0.72044800  0.76539500  0.14215200  1
  N  997  1  0.76440900  0.79303900  0.14067800  1
  N  1011  1  0.28072600  0.76616800  0.35169200  1
  N  1021  1  0.23590700  0.79298500  0.35300800  1
  N  1035  1  0.72020600  0.27015800  0.35227100  1
  N  1045  1  0.76474300  0.24293400  0.35291300  1
  N  1059  1  0.97256400  0.84522700  0.75732000  1
  N  1069  1  0.00421000  0.84361100  0.72498500  1
  N  1083  1  0.02411900  0.19151300  0.75834100  1
  N  1093  1  0.99295400  0.19214300  0.72538800  1
  N  1107  1  0.02714500  0.19097200  0.23665800  1
  N  1117  1  0.99590900  0.19196900  0.26923100  1
  N  1131  1  0.97491400  0.84446000  0.23541400  1
  N  1141  1  0.00575800  0.84319600  0.26853300  1
  N  1155  1  0.47337700  0.34581300  0.75706500  1
  N  1165  1  0.50493900  0.34469400  0.72470300  1
  N  1179  1  0.52589400  0.69040800  0.75851200  1
  N  1189  1  0.49469000  0.69176200  0.72561600  1
  N  1203  1  0.52813500  0.69017300  0.23653700  1
  N  1213  1  0.49689500  0.69182100  0.26906900  1
  N  1227  1  0.47690800  0.34487900  0.23539400  1
  N  1237  1  0.50758700  0.34417000  0.26857900  1
  N  1256  1  0.62803300  0.83722900  0.90344400  1
  N  1263  1  0.75240200  0.91782100  0.82552300  1
  N  1265  1  0.64295200  0.86431300  0.83890200  1
  N  1266  1  0.68432200  0.92177300  0.87249300  1
  N  1275  1  0.73460100  0.87778800  0.81409400  1
  N  1276  1  0.72900000  0.93897300  0.85588400  1
  N  1277  1  0.61738200  0.83562800  0.86437600  1
  N  1278  1  0.66933500  0.86144600  0.91609400  1
  N  1286  1  0.94931800  0.20043400  0.90483900  1
  N  1293  1  0.83169000  0.11560000  0.82173500  1
  N  1295  1  0.93388500  0.17369800  0.84004900  1
  N  1296  1  0.89656700  0.11487000  0.87194100  1
  N  1305  1  0.84341500  0.15834000  0.81424500  1
  N  1306  1  0.85077700  0.09651100  0.85390400  1
  N  1307  1  0.95978300  0.20204800  0.86581200  1
  N  1308  1  0.90871300  0.17551100  0.91723800  1
  N  1316  1  0.63066300  0.20150600  0.58871600  1
  N  1323  1  0.75142600  0.11852200  0.67119900  1
  N  1325  1  0.64349100  0.17199400  0.65288200  1
  N  1326  1  0.68818200  0.11607500  0.61978600  1
  N  1335  1  0.73122500  0.15813900  0.68251800  1
  N  1336  1  0.73165300  0.09866100  0.63872800  1
  N  1337  1  0.61882400  0.20164500  0.62746000  1
  N  1338  1  0.67208100  0.17664300  0.57657800  1
  N  1346  1  0.94580300  0.83311500  0.58967200  1
  N  1353  1  0.82942100  0.91668200  0.67456700  1
  N  1355  1  0.93435000  0.86207400  0.65401500  1
  N  1356  1  0.88816200  0.91767400  0.62092700  1
  N  1365  1  0.84746000  0.87575300  0.68422500  1
  N  1366  1  0.84521500  0.93507300  0.64082600  1
  N  1367  1  0.95867800  0.83278500  0.62833100  1
  N  1368  1  0.90388400  0.85765700  0.57779300  1
  N  1376  1  0.95296100  0.19849700  0.09108200  1
  N  1383  1  0.82582700  0.11913600  0.16795900  1
  N  1385  1  0.93500100  0.17270800  0.15550100  1
  N  1386  1  0.89410800  0.11544500  0.12117500  1
  N  1395  1  0.84340500  0.15919600  0.17950700  1
  N  1396  1  0.84900400  0.09844900  0.13735600  1
  N  1397  1  0.96186100  0.20087800  0.13031600  1
  N  1398  1  0.91147400  0.17490400  0.07798500  1
  N  1406  1  0.62726800  0.83627400  0.08983500  1
  N  1413  1  0.74836000  0.92024500  0.17089100  1
  N  1415  1  0.64488600  0.86336800  0.15408200  1
  N  1416  1  0.68478600  0.92034000  0.11939900  1
  N  1425  1  0.73548200  0.87798200  0.17913100  1
  N  1426  1  0.72854900  0.93974900  0.13918400  1
  N  1427  1  0.61850500  0.83444800  0.12906000  1
  N  1428  1  0.66810600  0.86043500  0.07682900  1
  N  1436  1  0.94986500  0.83456300  0.40492900  1
  N  1443  1  0.82559700  0.91561200  0.32358300  1
  N  1445  1  0.93392100  0.86258100  0.34068900  1
  N  1446  1  0.88973000  0.91833200  0.37434800  1
  N  1455  1  0.84597300  0.87619000  0.31198100  1
  N  1456  1  0.84589400  0.93561400  0.35578600  1
  N  1457  1  0.95999100  0.83358700  0.36595400  1
  N  1458  1  0.90802200  0.85852300  0.41740100  1
  N  1466  1  0.62999200  0.20017300  0.40361900  1
  N  1473  1  0.74975000  0.11835600  0.31985400  1
  N  1475  1  0.64474800  0.17285000  0.33921000  1
  N  1476  1  0.68989300  0.11687400  0.37277100  1
  N  1485  1  0.73170800  0.15929100  0.31015300  1
  N  1486  1  0.73328000  0.09966600  0.35328700  1
  N  1487  1  0.61935600  0.20176000  0.36465500  1
  N  1488  1  0.67182600  0.17598100  0.41599200  1
  N  1496  1  0.13040200  0.33365700  0.90308300  1
  N  1503  1  0.25280100  0.41752900  0.82599000  1
  N  1505  1  0.14327800  0.36465100  0.83957700  1
  N  1506  1  0.18634300  0.41950300  0.87433900  1
  N  1515  1  0.23526700  0.37756700  0.81415900  1
  N  1516  1  0.23048000  0.43738300  0.85737700  1
  N  1517  1  0.11709900  0.33593900  0.86451500  1
  N  1518  1  0.17180200  0.35750800  0.91608400  1
  N  1526  1  0.44859200  0.70329900  0.90397400  1
  N  1533  1  0.33174800  0.61472100  0.82350900  1
  N  1535  1  0.43557600  0.67107600  0.84081900  1
  N  1536  1  0.39374000  0.61644700  0.87610700  1
  N  1545  1  0.34451500  0.65687200  0.81471000  1
  N  1546  1  0.35104600  0.59601900  0.85574700  1
  N  1547  1  0.46142400  0.70061600  0.86544000  1
  N  1548  1  0.40794400  0.67879100  0.91706300  1
  N  1556  1  0.13279500  0.70447600  0.58926300  1
  N  1563  1  0.25319400  0.61943100  0.67039100  1
  N  1565  1  0.14459800  0.67169600  0.65236700  1
  N  1566  1  0.19083500  0.61842000  0.61829100  1
  N  1575  1  0.23281100  0.65872300  0.68233900  1
  N  1576  1  0.23368000  0.60024800  0.63752500  1
  N  1577  1  0.11877600  0.70101900  0.62743800  1
  N  1578  1  0.17479000  0.68059200  0.57678000  1
  N  1586  1  0.44636700  0.33217900  0.59070700  1
  N  1593  1  0.33005300  0.41809800  0.67380900  1
  N  1595  1  0.43539700  0.36432500  0.65398600  1
  N  1596  1  0.38841100  0.41794200  0.61987900  1
  N  1605  1  0.34813100  0.37731700  0.68401800  1
  N  1606  1  0.34591100  0.43596800  0.63984100  1
  N  1607  1  0.46066500  0.33502600  0.62899900  1
  N  1608  1  0.40451700  0.35643900  0.57818700  1
  N  1616  1  0.45245900  0.69972500  0.09186500  1
  N  1623  1  0.32631000  0.61789200  0.16738000  1
  N  1625  1  0.43621000  0.67028800  0.15541000  1
  N  1626  1  0.39435400  0.61495500  0.12030700  1
  N  1635  1  0.34414900  0.65768500  0.17947500  1
  N  1636  1  0.34989900  0.59723100  0.13685200  1
  N  1637  1  0.46352800  0.69860800  0.13081900  1
  N  1638  1  0.41119200  0.67624900  0.07836500  1
  N  1646  1  0.12919700  0.33402500  0.09053200  1
  N  1653  1  0.24873900  0.42053100  0.17083600  1
  N  1655  1  0.14610500  0.36346800  0.15420700  1
  N  1656  1  0.18384300  0.42009400  0.12059700  1
  N  1665  1  0.23695700  0.37797100  0.17911200  1
  N  1666  1  0.22945100  0.43901000  0.13846000  1
  N  1667  1  0.11836500  0.33540200  0.12941800  1
  N  1668  1  0.16973600  0.35825700  0.07713600  1
  N  1676  1  0.45011100  0.33374200  0.40432500  1
  N  1683  1  0.32704100  0.41733700  0.32398400  1
  N  1685  1  0.43543500  0.36510800  0.34106600  1
  N  1686  1  0.39010300  0.41875400  0.37558600  1
  N  1695  1  0.34734700  0.37796700  0.31207200  1
  N  1696  1  0.34689900  0.43669500  0.35665400  1
  N  1697  1  0.46214000  0.33607500  0.36572100  1
  N  1698  1  0.40832900  0.35737700  0.41722400  1
  N  1706  1  0.13211200  0.70338100  0.40321800  1
  N  1713  1  0.25130700  0.61916600  0.32089500  1
  N  1715  1  0.14552100  0.67215500  0.33992600  1
  N  1716  1  0.19258700  0.61917900  0.37460000  1
  N  1725  1  0.23288400  0.65974600  0.31046000  1
  N  1726  1  0.23527200  0.60125200  0.35480000  1
  N  1727  1  0.11902800  0.70088700  0.36470600  1
  N  1728  1  0.17448600  0.68017400  0.41592700  1
  N  1731  1  0.69823700  0.85430500  0.01447100  1
  N  1741  1  0.69417200  0.85906900  0.97453500  1
  N  1755  1  0.88108700  0.18252400  0.01555800  1
  N  1765  1  0.88480300  0.17809200  0.97560200  1
  N  1779  1  0.70170400  0.18167100  0.47849400  1
  N  1789  1  0.69703100  0.17766100  0.51840900  1
  N  1803  1  0.87683300  0.85124000  0.47921900  1
  N  1813  1  0.87987900  0.85561500  0.51923100  1
  N  1827  1  0.19961600  0.35034700  0.01487900  1
  N  1837  1  0.19568300  0.35474300  0.97484700  1
  N  1851  1  0.38097000  0.68326700  0.01576700  1
  N  1861  1  0.38536000  0.67948600  0.97577200  1
  N  1875  1  0.20378400  0.68695900  0.47846400  1
  N  1885  1  0.19910200  0.68275200  0.51841400  1
  N  1899  1  0.37741100  0.35137100  0.47937900  1
  N  1909  1  0.38114000  0.35560400  0.51940700  1
  N  1923  1  0.75627500  0.01368100  0.84942700  1
  N  1933  1  0.79115400  0.04877900  0.85347300  1
  N  1947  1  0.75540300  0.02275500  0.64200100  1
  N  1957  1  0.79030800  0.98726400  0.64117400  1
  N  1971  1  0.82171300  0.02363800  0.14176100  1
  N  1981  1  0.78545900  0.98930600  0.13893300  1
  N  1995  1  0.82254400  0.01158300  0.35244700  1
  N  2005  1  0.78786700  0.04722600  0.35312300  1
  N  2019  1  0.25767900  0.51229100  0.85337500  1
  N  2029  1  0.29396900  0.54662700  0.85629100  1
  N  2043  1  0.25676200  0.52416500  0.64039300  1
  N  2053  1  0.29139800  0.48847100  0.63972800  1
  N  2067  1  0.32339800  0.52227400  0.14287600  1
  N  2077  1  0.28881600  0.48698100  0.13875600  1
  N  2091  1  0.32413500  0.51283400  0.35390900  1
  N  2101  1  0.28965700  0.54862600  0.35473400  1
  N  2115  1  0.50771000  0.76692700  0.85263500  1
  N  2125  1  0.55193100  0.79439800  0.85341800  1
  N  2139  1  0.06943900  0.27009100  0.85231100  1
  N  2149  1  0.02502400  0.24290800  0.85378900  1
  N  2163  1  0.50901600  0.26931400  0.64179000  1
  N  2173  1  0.55365400  0.24227500  0.64045600  1
  N  2187  1  0.06973500  0.76583800  0.64159000  1
  N  2197  1  0.02467000  0.79247500  0.64084900  1
  N  2211  1  0.07170600  0.26932000  0.14209700  1
  N  2221  1  0.02733500  0.24203400  0.14130100  1
  N  2235  1  0.50974100  0.76539500  0.14215200  1
  N  2245  1  0.55370200  0.79303900  0.14067800  1
  N  2259  1  0.07001900  0.76616800  0.35169200  1
  N  2269  1  0.02520000  0.79298500  0.35300800  1
  N  2283  1  0.50949900  0.27015800  0.35227100  1
  N  2293  1  0.55403600  0.24293400  0.35291300  1
  N  2307  1  0.76185700  0.84522700  0.75732000  1
  N  2317  1  0.79350300  0.84361100  0.72498500  1
  N  2331  1  0.81341200  0.19151300  0.75834100  1
  N  2341  1  0.78224700  0.19214300  0.72538800  1
  N  2355  1  0.81643800  0.19097200  0.23665800  1
  N  2365  1  0.78520200  0.19196900  0.26923100  1
  N  2379  1  0.76420700  0.84446000  0.23541400  1
  N  2389  1  0.79505100  0.84319600  0.26853300  1
  N  2403  1  0.26267000  0.34581300  0.75706500  1
  N  2413  1  0.29423200  0.34469400  0.72470300  1
  N  2427  1  0.31518700  0.69040800  0.75851200  1
  N  2437  1  0.28398300  0.69176200  0.72561600  1
  N  2451  1  0.31742800  0.69017300  0.23653700  1
  N  2461  1  0.28618800  0.69182100  0.26906900  1
  N  2475  1  0.26620100  0.34487900  0.23539400  1
  N  2485  1  0.29688000  0.34417000  0.26857900  1
  N  2504  1  0.41732600  0.83722900  0.90344400  1
  N  2511  1  0.54169500  0.91782100  0.82552300  1
  N  2513  1  0.43224500  0.86431300  0.83890200  1
  N  2514  1  0.47361500  0.92177300  0.87249300  1
  N  2523  1  0.52389400  0.87778800  0.81409400  1
  N  2524  1  0.51829300  0.93897300  0.85588400  1
  N  2525  1  0.40667500  0.83562800  0.86437600  1
  N  2526  1  0.45862800  0.86144600  0.91609400  1
  N  2534  1  0.73861100  0.20043400  0.90483900  1
  N  2541  1  0.62098300  0.11560000  0.82173500  1
  N  2543  1  0.72317800  0.17369800  0.84004900  1
  N  2544  1  0.68586000  0.11487000  0.87194100  1
  N  2553  1  0.63270800  0.15834000  0.81424500  1
  N  2554  1  0.64007000  0.09651100  0.85390400  1
  N  2555  1  0.74907600  0.20204800  0.86581200  1
  N  2556  1  0.69800600  0.17551100  0.91723800  1
  N  2564  1  0.41995600  0.20150600  0.58871600  1
  N  2571  1  0.54071900  0.11852200  0.67119900  1
  N  2573  1  0.43278400  0.17199400  0.65288200  1
  N  2574  1  0.47747500  0.11607500  0.61978600  1
  N  2583  1  0.52051800  0.15813900  0.68251800  1
  N  2584  1  0.52094600  0.09866100  0.63872800  1
  N  2585  1  0.40811700  0.20164500  0.62746000  1
  N  2586  1  0.46137400  0.17664300  0.57657800  1
  N  2594  1  0.73509600  0.83311500  0.58967200  1
  N  2601  1  0.61871400  0.91668200  0.67456700  1
  N  2603  1  0.72364300  0.86207400  0.65401500  1
  N  2604  1  0.67745500  0.91767400  0.62092700  1
  N  2613  1  0.63675300  0.87575300  0.68422500  1
  N  2614  1  0.63450800  0.93507300  0.64082600  1
  N  2615  1  0.74797100  0.83278500  0.62833100  1
  N  2616  1  0.69317700  0.85765700  0.57779300  1
  N  2624  1  0.74225400  0.19849700  0.09108200  1
  N  2631  1  0.61512000  0.11913600  0.16795900  1
  N  2633  1  0.72429400  0.17270800  0.15550100  1
  N  2634  1  0.68340100  0.11544500  0.12117500  1
  N  2643  1  0.63269800  0.15919600  0.17950700  1
  N  2644  1  0.63829700  0.09844900  0.13735600  1
  N  2645  1  0.75115400  0.20087800  0.13031600  1
  N  2646  1  0.70076700  0.17490400  0.07798500  1
  N  2654  1  0.41656100  0.83627400  0.08983500  1
  N  2661  1  0.53765300  0.92024500  0.17089100  1
  N  2663  1  0.43417900  0.86336800  0.15408200  1
  N  2664  1  0.47407900  0.92034000  0.11939900  1
  N  2673  1  0.52477500  0.87798200  0.17913100  1
  N  2674  1  0.51784200  0.93974900  0.13918400  1
  N  2675  1  0.40779800  0.83444800  0.12906000  1
  N  2676  1  0.45739900  0.86043500  0.07682900  1
  N  2684  1  0.73915800  0.83456300  0.40492900  1
  N  2691  1  0.61489000  0.91561200  0.32358300  1
  N  2693  1  0.72321400  0.86258100  0.34068900  1
  N  2694  1  0.67902300  0.91833200  0.37434800  1
  N  2703  1  0.63526600  0.87619000  0.31198100  1
  N  2704  1  0.63518700  0.93561400  0.35578600  1
  N  2705  1  0.74928400  0.83358700  0.36595400  1
  N  2706  1  0.69731500  0.85852300  0.41740100  1
  N  2714  1  0.41928500  0.20017300  0.40361900  1
  N  2721  1  0.53904300  0.11835600  0.31985400  1
  N  2723  1  0.43404100  0.17285000  0.33921000  1
  N  2724  1  0.47918600  0.11687400  0.37277100  1
  N  2733  1  0.52100100  0.15929100  0.31015300  1
  N  2734  1  0.52257300  0.09966600  0.35328700  1
  N  2735  1  0.40864900  0.20176000  0.36465500  1
  N  2736  1  0.46111900  0.17598100  0.41599200  1
  N  2744  1  0.91969500  0.33365700  0.90308300  1
  N  2751  1  0.04209400  0.41752900  0.82599000  1
  N  2753  1  0.93257100  0.36465100  0.83957700  1
  N  2754  1  0.97563600  0.41950300  0.87433900  1
  N  2763  1  0.02456000  0.37756700  0.81415900  1
  N  2764  1  0.01977300  0.43738300  0.85737700  1
  N  2765  1  0.90639200  0.33593900  0.86451500  1
  N  2766  1  0.96109500  0.35750800  0.91608400  1
  N  2774  1  0.23788500  0.70329900  0.90397400  1
  N  2781  1  0.12104100  0.61472100  0.82350900  1
  N  2783  1  0.22486900  0.67107600  0.84081900  1
  N  2784  1  0.18303300  0.61644700  0.87610700  1
  N  2793  1  0.13380800  0.65687200  0.81471000  1
  N  2794  1  0.14033900  0.59601900  0.85574700  1
  N  2795  1  0.25071700  0.70061600  0.86544000  1
  N  2796  1  0.19723700  0.67879100  0.91706300  1
  N  2804  1  0.92208800  0.70447600  0.58926300  1
  N  2811  1  0.04248700  0.61943100  0.67039100  1
  N  2813  1  0.93389100  0.67169600  0.65236700  1
  N  2814  1  0.98012800  0.61842000  0.61829100  1
  N  2823  1  0.02210400  0.65872300  0.68233900  1
  N  2824  1  0.02297300  0.60024800  0.63752500  1
  N  2825  1  0.90806900  0.70101900  0.62743800  1
  N  2826  1  0.96408300  0.68059200  0.57678000  1
  N  2834  1  0.23566000  0.33217900  0.59070700  1
  N  2841  1  0.11934600  0.41809800  0.67380900  1
  N  2843  1  0.22469000  0.36432500  0.65398600  1
  N  2844  1  0.17770400  0.41794200  0.61987900  1
  N  2853  1  0.13742400  0.37731700  0.68401800  1
  N  2854  1  0.13520400  0.43596800  0.63984100  1
  N  2855  1  0.24995800  0.33502600  0.62899900  1
  N  2856  1  0.19381000  0.35643900  0.57818700  1
  N  2864  1  0.24175200  0.69972500  0.09186500  1
  N  2871  1  0.11560300  0.61789200  0.16738000  1
  N  2873  1  0.22550300  0.67028800  0.15541000  1
  N  2874  1  0.18364700  0.61495500  0.12030700  1
  N  2883  1  0.13344200  0.65768500  0.17947500  1
  N  2884  1  0.13919200  0.59723100  0.13685200  1
  N  2885  1  0.25282100  0.69860800  0.13081900  1
  N  2886  1  0.20048500  0.67624900  0.07836500  1
  N  2894  1  0.91849000  0.33402500  0.09053200  1
  N  2901  1  0.03803200  0.42053100  0.17083600  1
  N  2903  1  0.93539800  0.36346800  0.15420700  1
  N  2904  1  0.97313600  0.42009400  0.12059700  1
  N  2913  1  0.02625000  0.37797100  0.17911200  1
  N  2914  1  0.01874400  0.43901000  0.13846000  1
  N  2915  1  0.90765800  0.33540200  0.12941800  1
  N  2916  1  0.95902900  0.35825700  0.07713600  1
  N  2924  1  0.23940400  0.33374200  0.40432500  1
  N  2931  1  0.11633400  0.41733700  0.32398400  1
  N  2933  1  0.22472800  0.36510800  0.34106600  1
  N  2934  1  0.17939600  0.41875400  0.37558600  1
  N  2943  1  0.13664000  0.37796700  0.31207200  1
  N  2944  1  0.13619200  0.43669500  0.35665400  1
  N  2945  1  0.25143300  0.33607500  0.36572100  1
  N  2946  1  0.19762200  0.35737700  0.41722400  1
  N  2954  1  0.92140500  0.70338100  0.40321800  1
  N  2961  1  0.04060000  0.61916600  0.32089500  1
  N  2963  1  0.93481400  0.67215500  0.33992600  1
  N  2964  1  0.98188000  0.61917900  0.37460000  1
  N  2973  1  0.02217700  0.65974600  0.31046000  1
  N  2974  1  0.02456500  0.60125200  0.35480000  1
  N  2975  1  0.90832100  0.70088700  0.36470600  1
  N  2976  1  0.96377900  0.68017400  0.41592700  1
  N  2979  1  0.48753000  0.85430500  0.01447100  1
  N  2989  1  0.48346500  0.85906900  0.97453500  1
  N  3003  1  0.67038000  0.18252400  0.01555800  1
  N  3013  1  0.67409600  0.17809200  0.97560200  1
  N  3027  1  0.49099700  0.18167100  0.47849400  1
  N  3037  1  0.48632400  0.17766100  0.51840900  1
  N  3051  1  0.66612600  0.85124000  0.47921900  1
  N  3061  1  0.66917200  0.85561500  0.51923100  1
  N  3075  1  0.98890900  0.35034700  0.01487900  1
  N  3085  1  0.98497600  0.35474300  0.97484700  1
  N  3099  1  0.17026300  0.68326700  0.01576700  1
  N  3109  1  0.17465300  0.67948600  0.97577200  1
  N  3123  1  0.99307704  0.68695900  0.47846400  1
  N  3133  1  0.98839500  0.68275200  0.51841400  1
  N  3147  1  0.16670400  0.35137100  0.47937900  1
  N  3157  1  0.17043300  0.35560400  0.51940700  1
  N  3171  1  0.54556800  0.01368100  0.84942700  1
  N  3181  1  0.58044700  0.04877900  0.85347300  1
  N  3195  1  0.54469600  0.02275500  0.64200100  1
  N  3205  1  0.57960100  0.98726400  0.64117400  1
  N  3219  1  0.61100600  0.02363800  0.14176100  1
  N  3229  1  0.57475200  0.98930600  0.13893300  1
  N  3243  1  0.61183700  0.01158300  0.35244700  1
  N  3253  1  0.57716000  0.04722600  0.35312300  1
  N  3267  1  0.04697200  0.51229100  0.85337500  1
  N  3277  1  0.08326200  0.54662700  0.85629100  1
  N  3291  1  0.04605500  0.52416500  0.64039300  1
  N  3301  1  0.08069100  0.48847100  0.63972800  1
  N  3315  1  0.11269100  0.52227400  0.14287600  1
  N  3325  1  0.07810900  0.48698100  0.13875600  1
  N  3339  1  0.11342800  0.51283400  0.35390900  1
  N  3349  1  0.07895000  0.54862600  0.35473400  1
  N  3363  1  0.29700300  0.76692700  0.85263500  1
  N  3373  1  0.34122400  0.79439800  0.85341800  1
  N  3387  1  0.85873200  0.27009100  0.85231100  1
  N  3397  1  0.81431700  0.24290800  0.85378900  1
  N  3411  1  0.29830900  0.26931400  0.64179000  1
  N  3421  1  0.34294700  0.24227500  0.64045600  1
  N  3435  1  0.85902800  0.76583800  0.64159000  1
  N  3445  1  0.81396300  0.79247500  0.64084900  1
  N  3459  1  0.86099900  0.26932000  0.14209700  1
  N  3469  1  0.81662800  0.24203400  0.14130100  1
  N  3483  1  0.29903400  0.76539500  0.14215200  1
  N  3493  1  0.34299500  0.79303900  0.14067800  1
  N  3507  1  0.85931200  0.76616800  0.35169200  1
  N  3517  1  0.81449300  0.79298500  0.35300800  1
  N  3531  1  0.29879200  0.27015800  0.35227100  1
  N  3541  1  0.34332900  0.24293400  0.35291300  1
  N  3555  1  0.55115000  0.84522700  0.75732000  1
  N  3565  1  0.58279600  0.84361100  0.72498500  1
  N  3579  1  0.60270500  0.19151300  0.75834100  1
  N  3589  1  0.57154000  0.19214300  0.72538800  1
  N  3603  1  0.60573100  0.19097200  0.23665800  1
  N  3613  1  0.57449500  0.19196900  0.26923100  1
  N  3627  1  0.55350000  0.84446000  0.23541400  1
  N  3637  1  0.58434400  0.84319600  0.26853300  1
  N  3651  1  0.05196300  0.34581300  0.75706500  1
  N  3661  1  0.08352500  0.34469400  0.72470300  1
  N  3675  1  0.10448000  0.69040800  0.75851200  1
  N  3685  1  0.07327600  0.69176200  0.72561600  1
  N  3699  1  0.10672100  0.69017300  0.23653700  1
  N  3709  1  0.07548100  0.69182100  0.26906900  1
  N  3723  1  0.05549400  0.34487900  0.23539400  1
  N  3733  1  0.08617300  0.34417000  0.26857900  1
  N  3752  1  0.20661900  0.83722900  0.90344400  1
  N  3759  1  0.33098800  0.91782100  0.82552300  1
  N  3761  1  0.22153800  0.86431300  0.83890200  1
  N  3762  1  0.26290800  0.92177300  0.87249300  1
  N  3771  1  0.31318700  0.87778800  0.81409400  1
  N  3772  1  0.30758600  0.93897300  0.85588400  1
  N  3773  1  0.19596800  0.83562800  0.86437600  1
  N  3774  1  0.24792100  0.86144600  0.91609400  1
  N  3782  1  0.52790400  0.20043400  0.90483900  1
  N  3789  1  0.41027600  0.11560000  0.82173500  1
  N  3791  1  0.51247100  0.17369800  0.84004900  1
  N  3792  1  0.47515300  0.11487000  0.87194100  1
  N  3801  1  0.42200100  0.15834000  0.81424500  1
  N  3802  1  0.42936300  0.09651100  0.85390400  1
  N  3803  1  0.53836900  0.20204800  0.86581200  1
  N  3804  1  0.48729900  0.17551100  0.91723800  1
  N  3812  1  0.20924900  0.20150600  0.58871600  1
  N  3819  1  0.33001200  0.11852200  0.67119900  1
  N  3821  1  0.22207700  0.17199400  0.65288200  1
  N  3822  1  0.26676800  0.11607500  0.61978600  1
  N  3831  1  0.30981100  0.15813900  0.68251800  1
  N  3832  1  0.31023900  0.09866100  0.63872800  1
  N  3833  1  0.19741000  0.20164500  0.62746000  1
  N  3834  1  0.25066700  0.17664300  0.57657800  1
  N  3842  1  0.52438900  0.83311500  0.58967200  1
  N  3849  1  0.40800700  0.91668200  0.67456700  1
  N  3851  1  0.51293600  0.86207400  0.65401500  1
  N  3852  1  0.46674800  0.91767400  0.62092700  1
  N  3861  1  0.42604600  0.87575300  0.68422500  1
  N  3862  1  0.42380100  0.93507300  0.64082600  1
  N  3863  1  0.53726400  0.83278500  0.62833100  1
  N  3864  1  0.48247000  0.85765700  0.57779300  1
  N  3872  1  0.53154700  0.19849700  0.09108200  1
  N  3879  1  0.40441300  0.11913600  0.16795900  1
  N  3881  1  0.51358700  0.17270800  0.15550100  1
  N  3882  1  0.47269400  0.11544500  0.12117500  1
  N  3891  1  0.42199100  0.15919600  0.17950700  1
  N  3892  1  0.42759000  0.09844900  0.13735600  1
  N  3893  1  0.54044700  0.20087800  0.13031600  1
  N  3894  1  0.49006000  0.17490400  0.07798500  1
  N  3902  1  0.20585400  0.83627400  0.08983500  1
  N  3909  1  0.32694600  0.92024500  0.17089100  1
  N  3911  1  0.22347200  0.86336800  0.15408200  1
  N  3912  1  0.26337200  0.92034000  0.11939900  1
  N  3921  1  0.31406800  0.87798200  0.17913100  1
  N  3922  1  0.30713500  0.93974900  0.13918400  1
  N  3923  1  0.19709100  0.83444800  0.12906000  1
  N  3924  1  0.24669200  0.86043500  0.07682900  1
  N  3932  1  0.52845100  0.83456300  0.40492900  1
  N  3939  1  0.40418300  0.91561200  0.32358300  1
  N  3941  1  0.51250700  0.86258100  0.34068900  1
  N  3942  1  0.46831600  0.91833200  0.37434800  1
  N  3951  1  0.42455900  0.87619000  0.31198100  1
  N  3952  1  0.42448000  0.93561400  0.35578600  1
  N  3953  1  0.53857700  0.83358700  0.36595400  1
  N  3954  1  0.48660800  0.85852300  0.41740100  1
  N  3962  1  0.20857800  0.20017300  0.40361900  1
  N  3969  1  0.32833600  0.11835600  0.31985400  1
  N  3971  1  0.22333400  0.17285000  0.33921000  1
  N  3972  1  0.26847900  0.11687400  0.37277100  1
  N  3981  1  0.31029400  0.15929100  0.31015300  1
  N  3982  1  0.31186600  0.09966600  0.35328700  1
  N  3983  1  0.19794200  0.20176000  0.36465500  1
  N  3984  1  0.25041200  0.17598100  0.41599200  1
  N  3992  1  0.70898800  0.33365700  0.90308300  1
  N  3999  1  0.83138700  0.41752900  0.82599000  1
  N  4001  1  0.72186400  0.36465100  0.83957700  1
  N  4002  1  0.76492900  0.41950300  0.87433900  1
  N  4011  1  0.81385300  0.37756700  0.81415900  1
  N  4012  1  0.80906600  0.43738300  0.85737700  1
  N  4013  1  0.69568500  0.33593900  0.86451500  1
  N  4014  1  0.75038800  0.35750800  0.91608400  1
  N  4022  1  0.02717800  0.70329900  0.90397400  1
  N  4029  1  0.91033410  0.61472100  0.82350900  1
  N  4031  1  0.01416200  0.67107600  0.84081900  1
  N  4032  1  0.97232610  0.61644700  0.87610700  1
  N  4041  1  0.92310110  0.65687200  0.81471000  1
  N  4042  1  0.92963210  0.59601900  0.85574700  1
  N  4043  1  0.04001000  0.70061600  0.86544000  1
  N  4044  1  0.98653010  0.67879100  0.91706300  1
  N  4052  1  0.71138100  0.70447600  0.58926300  1
  N  4059  1  0.83178000  0.61943100  0.67039100  1
  N  4061  1  0.72318400  0.67169600  0.65236700  1
  N  4062  1  0.76942100  0.61842000  0.61829100  1
  N  4071  1  0.81139700  0.65872300  0.68233900  1
  N  4072  1  0.81226600  0.60024800  0.63752500  1
  N  4073  1  0.69736200  0.70101900  0.62743800  1
  N  4074  1  0.75337600  0.68059200  0.57678000  1
  N  4082  1  0.02495300  0.33217900  0.59070700  1
  N  4089  1  0.90863910  0.41809800  0.67380900  1
  N  4091  1  0.01398300  0.36432500  0.65398600  1
  N  4092  1  0.96699710  0.41794200  0.61987900  1
  N  4101  1  0.92671710  0.37731700  0.68401800  1
  N  4102  1  0.92449710  0.43596800  0.63984100  1
  N  4103  1  0.03925100  0.33502600  0.62899900  1
  N  4104  1  0.98310310  0.35643900  0.57818700  1
  N  4112  1  0.03104500  0.69972500  0.09186500  1
  N  4119  1  0.90489610  0.61789200  0.16738000  1
  N  4121  1  0.01479600  0.67028800  0.15541000  1
  N  4122  1  0.97294010  0.61495500  0.12030700  1
  N  4131  1  0.92273510  0.65768500  0.17947500  1
  N  4132  1  0.92848510  0.59723100  0.13685200  1
  N  4133  1  0.04211400  0.69860800  0.13081900  1
  N  4134  1  0.98977810  0.67624900  0.07836500  1
  N  4142  1  0.70778300  0.33402500  0.09053200  1
  N  4149  1  0.82732500  0.42053100  0.17083600  1
  N  4151  1  0.72469100  0.36346800  0.15420700  1
  N  4152  1  0.76242900  0.42009400  0.12059700  1
  N  4161  1  0.81554300  0.37797100  0.17911200  1
  N  4162  1  0.80803700  0.43901000  0.13846000  1
  N  4163  1  0.69695100  0.33540200  0.12941800  1
  N  4164  1  0.74832200  0.35825700  0.07713600  1
  N  4172  1  0.02869700  0.33374200  0.40432500  1
  N  4179  1  0.90562710  0.41733700  0.32398400  1
  N  4181  1  0.01402100  0.36510800  0.34106600  1
  N  4182  1  0.96868910  0.41875400  0.37558600  1
  N  4191  1  0.92593310  0.37796700  0.31207200  1
  N  4192  1  0.92548510  0.43669500  0.35665400  1
  N  4193  1  0.04072600  0.33607500  0.36572100  1
  N  4194  1  0.98691510  0.35737700  0.41722400  1
  N  4202  1  0.71069800  0.70338100  0.40321800  1
  N  4209  1  0.82989300  0.61916600  0.32089500  1
  N  4211  1  0.72410700  0.67215500  0.33992600  1
  N  4212  1  0.77117300  0.61917900  0.37460000  1
  N  4221  1  0.81147000  0.65974600  0.31046000  1
  N  4222  1  0.81385800  0.60125200  0.35480000  1
  N  4223  1  0.69761400  0.70088700  0.36470600  1
  N  4224  1  0.75307200  0.68017400  0.41592700  1
  N  4227  1  0.27682300  0.85430500  0.01447100  1
  N  4237  1  0.27275800  0.85906900  0.97453500  1
  N  4251  1  0.45967300  0.18252400  0.01555800  1
  N  4261  1  0.46338900  0.17809200  0.97560200  1
  N  4275  1  0.28029000  0.18167100  0.47849400  1
  N  4285  1  0.27561700  0.17766100  0.51840900  1
  N  4299  1  0.45541900  0.85124000  0.47921900  1
  N  4309  1  0.45846500  0.85561500  0.51923100  1
  N  4323  1  0.77820200  0.35034700  0.01487900  1
  N  4333  1  0.77426900  0.35474300  0.97484700  1
  N  4347  1  0.95955610  0.68326700  0.01576700  1
  N  4357  1  0.96394610  0.67948600  0.97577200  1
  N  4371  1  0.78237000  0.68695900  0.47846400  1
  N  4381  1  0.77768800  0.68275200  0.51841400  1
  N  4395  1  0.95599710  0.35137100  0.47937900  1
  N  4405  1  0.95972610  0.35560400  0.51940700  1
  N  4419  1  0.33486100  0.01368100  0.84942700  1
  N  4429  1  0.36974000  0.04877900  0.85347300  1
  N  4443  1  0.33398900  0.02275500  0.64200100  1
  N  4453  1  0.36889400  0.98726400  0.64117400  1
  N  4467  1  0.40029900  0.02363800  0.14176100  1
  N  4477  1  0.36404500  0.98930600  0.13893300  1
  N  4491  1  0.40113000  0.01158300  0.35244700  1
  N  4501  1  0.36645300  0.04722600  0.35312300  1
  N  4515  1  0.83626500  0.51229100  0.85337500  1
  N  4525  1  0.87255500  0.54662700  0.85629100  1
  N  4539  1  0.83534800  0.52416500  0.64039300  1
  N  4549  1  0.86998400  0.48847100  0.63972800  1
  N  4563  1  0.90198410  0.52227400  0.14287600  1
  N  4573  1  0.86740200  0.48698100  0.13875600  1
  N  4587  1  0.90272110  0.51283400  0.35390900  1
  N  4597  1  0.86824300  0.54862600  0.35473400  1
  N  4611  1  0.08629600  0.76692700  0.85263500  1
  N  4621  1  0.13051700  0.79439800  0.85341800  1
  N  4635  1  0.64802500  0.27009100  0.85231100  1
  N  4645  1  0.60361000  0.24290800  0.85378900  1
  N  4659  1  0.08760200  0.26931400  0.64179000  1
  N  4669  1  0.13224000  0.24227500  0.64045600  1
  N  4683  1  0.64832100  0.76583800  0.64159000  1
  N  4693  1  0.60325600  0.79247500  0.64084900  1
  N  4707  1  0.65029200  0.26932000  0.14209700  1
  N  4717  1  0.60592100  0.24203400  0.14130100  1
  N  4731  1  0.08832700  0.76539500  0.14215200  1
  N  4741  1  0.13228800  0.79303900  0.14067800  1
  N  4755  1  0.64860500  0.76616800  0.35169200  1
  N  4765  1  0.60378600  0.79298500  0.35300800  1
  N  4779  1  0.08808500  0.27015800  0.35227100  1
  N  4789  1  0.13262200  0.24293400  0.35291300  1
  N  4803  1  0.34044300  0.84522700  0.75732000  1
  N  4813  1  0.37208900  0.84361100  0.72498500  1
  N  4827  1  0.39199800  0.19151300  0.75834100  1
  N  4837  1  0.36083300  0.19214300  0.72538800  1
  N  4851  1  0.39502400  0.19097200  0.23665800  1
  N  4861  1  0.36378800  0.19196900  0.26923100  1
  N  4875  1  0.34279300  0.84446000  0.23541400  1
  N  4885  1  0.37363700  0.84319600  0.26853300  1
  N  4899  1  0.84125600  0.34581300  0.75706500  1
  N  4909  1  0.87281800  0.34469400  0.72470300  1
  N  4923  1  0.89377300  0.69040800  0.75851200  1
  N  4933  1  0.86256900  0.69176200  0.72561600  1
  N  4947  1  0.89601400  0.69017300  0.23653700  1
  N  4957  1  0.86477400  0.69182100  0.26906900  1
  N  4971  1  0.84478700  0.34487900  0.23539400  1
  N  4981  1  0.87546600  0.34417000  0.26857900  1
  O  499  1  0.84006800  0.91483400  0.98356200  1
  O  500  1  0.84353800  0.90981300  0.02220100  1
  O  523  1  0.15740300  0.11981300  0.98473000  1
  O  524  1  0.15428300  0.12448300  0.02337900  1
  O  547  1  0.84287800  0.12286000  0.50882000  1
  O  548  1  0.84694200  0.12715000  0.47019600  1
  O  571  1  0.15213500  0.91336600  0.51138900  1
  O  572  1  0.14967700  0.90873300  0.47267800  1
  O  595  1  0.34390300  0.41252600  0.98343900  1
  O  596  1  0.34724300  0.40789700  0.02210900  1
  O  619  1  0.66267500  0.62514600  0.98480700  1
  O  620  1  0.65881300  0.62915600  0.02346400  1
  O  643  1  0.34756400  0.62580700  0.50860500  1
  O  644  1  0.35163200  0.63024500  0.47000300  1
  O  667  1  0.65864600  0.40880300  0.51122500  1
  O  668  1  0.65545100  0.40431500  0.47253600  1
  O  691  1  0.05705300  0.00155400  0.89081800  1
  O  692  1  0.02377300  0.96794900  0.88682500  1
  O  715  1  0.06646800  0.03654400  0.62010800  1
  O  716  1  0.03269300  0.07057700  0.62034800  1
  O  739  1  0.93673900  0.04000200  0.10963300  1
  O  740  1  0.97155300  0.07260400  0.11183400  1
  O  763  1  0.93247700  0.99816900  0.37344900  1
  O  764  1  0.96603900  0.96397800  0.37336900  1
  O  787  1  0.56408600  0.49579100  0.88541600  1
  O  788  1  0.52930200  0.46318200  0.88305900  1
  O  811  1  0.56842600  0.53756400  0.61988600  1
  O  812  1  0.53493000  0.57180000  0.61999400  1
  O  835  1  0.44355000  0.53418500  0.10204200  1
  O  836  1  0.47656400  0.56797400  0.10609000  1
  O  859  1  0.43390900  0.49968900  0.37462400  1
  O  860  1  0.46726800  0.46535600  0.37439100  1
  O  883  1  0.81141400  0.73355000  0.87872100  1
  O  884  1  0.76960000  0.70774700  0.87821800  1
  O  907  1  0.18909600  0.30367900  0.88086600  1
  O  908  1  0.23109300  0.32921800  0.87967700  1
  O  931  1  0.81062200  0.30334500  0.61460500  1
  O  932  1  0.76809700  0.32893200  0.61564600  1
  O  955  1  0.18994200  0.73225700  0.61221400  1
  O  956  1  0.23282500  0.70708900  0.61270300  1
  O  979  1  0.18982900  0.30281600  0.11527500  1
  O  980  1  0.23177100  0.32846000  0.11582600  1
  O  1003  1  0.81314600  0.73167300  0.11684900  1
  O  1004  1  0.77154100  0.70566400  0.11802300  1
  O  1027  1  0.19049300  0.73214400  0.38010000  1
  O  1028  1  0.23318100  0.70676500  0.37905600  1
  O  1051  1  0.81247400  0.30370200  0.37831700  1
  O  1052  1  0.77006700  0.32946700  0.37792400  1
  O  1075  1  0.06625600  0.88742200  0.75883900  1
  O  1076  1  0.03599900  0.88839400  0.79028600  1
  O  1099  1  0.93555600  0.14189100  0.75622600  1
  O  1100  1  0.96535800  0.14174600  0.78826500  1
  O  1123  1  0.93377100  0.14826500  0.23537100  1
  O  1124  1  0.96364000  0.14787300  0.20370400  1
  O  1147  1  0.06412900  0.89316500  0.23839100  1
  O  1148  1  0.03463800  0.89391700  0.20619400  1
  O  1171  1  0.56665400  0.38867000  0.75873800  1
  O  1172  1  0.53646700  0.38916000  0.79023500  1
  O  1195  1  0.43713800  0.64107700  0.75574800  1
  O  1196  1  0.46699500  0.64023000  0.78775500  1
  O  1219  1  0.43493000  0.64719000  0.23597200  1
  O  1220  1  0.46480000  0.64618600  0.20431300  1
  O  1243  1  0.56507000  0.39496000  0.23851300  1
  O  1244  1  0.53572800  0.39518700  0.20623400  1
  O  1747  1  0.62936100  0.91483400  0.98356200  1
  O  1748  1  0.63283100  0.90981300  0.02220100  1
  O  1771  1  0.94669600  0.11981300  0.98473000  1
  O  1772  1  0.94357600  0.12448300  0.02337900  1
  O  1795  1  0.63217100  0.12286000  0.50882000  1
  O  1796  1  0.63623500  0.12715000  0.47019600  1
  O  1819  1  0.94142800  0.91336600  0.51138900  1
  O  1820  1  0.93897000  0.90873300  0.47267800  1
  O  1843  1  0.13319600  0.41252600  0.98343900  1
  O  1844  1  0.13653600  0.40789700  0.02210900  1
  O  1867  1  0.45196800  0.62514600  0.98480700  1
  O  1868  1  0.44810600  0.62915600  0.02346400  1
  O  1891  1  0.13685700  0.62580700  0.50860500  1
  O  1892  1  0.14092500  0.63024500  0.47000300  1
  O  1915  1  0.44793900  0.40880300  0.51122500  1
  O  1916  1  0.44474400  0.40431500  0.47253600  1
  O  1939  1  0.84634600  0.00155400  0.89081800  1
  O  1940  1  0.81306600  0.96794900  0.88682500  1
  O  1963  1  0.85576100  0.03654400  0.62010800  1
  O  1964  1  0.82198600  0.07057700  0.62034800  1
  O  1987  1  0.72603200  0.04000200  0.10963300  1
  O  1988  1  0.76084600  0.07260400  0.11183400  1
  O  2011  1  0.72177000  0.99816900  0.37344900  1
  O  2012  1  0.75533200  0.96397800  0.37336900  1
  O  2035  1  0.35337900  0.49579100  0.88541600  1
  O  2036  1  0.31859500  0.46318200  0.88305900  1
  O  2059  1  0.35771900  0.53756400  0.61988600  1
  O  2060  1  0.32422300  0.57180000  0.61999400  1
  O  2083  1  0.23284300  0.53418500  0.10204200  1
  O  2084  1  0.26585700  0.56797400  0.10609000  1
  O  2107  1  0.22320200  0.49968900  0.37462400  1
  O  2108  1  0.25656100  0.46535600  0.37439100  1
  O  2131  1  0.60070700  0.73355000  0.87872100  1
  O  2132  1  0.55889300  0.70774700  0.87821800  1
  O  2155  1  0.97838900  0.30367900  0.88086600  1
  O  2156  1  0.02038600  0.32921800  0.87967700  1
  O  2179  1  0.59991500  0.30334500  0.61460500  1
  O  2180  1  0.55739000  0.32893200  0.61564600  1
  O  2203  1  0.97923500  0.73225700  0.61221400  1
  O  2204  1  0.02211800  0.70708900  0.61270300  1
  O  2227  1  0.97912200  0.30281600  0.11527500  1
  O  2228  1  0.02106400  0.32846000  0.11582600  1
  O  2251  1  0.60243900  0.73167300  0.11684900  1
  O  2252  1  0.56083400  0.70566400  0.11802300  1
  O  2275  1  0.97978600  0.73214400  0.38010000  1
  O  2276  1  0.02247400  0.70676500  0.37905600  1
  O  2299  1  0.60176700  0.30370200  0.37831700  1
  O  2300  1  0.55936000  0.32946700  0.37792400  1
  O  2323  1  0.85554900  0.88742200  0.75883900  1
  O  2324  1  0.82529200  0.88839400  0.79028600  1
  O  2347  1  0.72484900  0.14189100  0.75622600  1
  O  2348  1  0.75465100  0.14174600  0.78826500  1
  O  2371  1  0.72306400  0.14826500  0.23537100  1
  O  2372  1  0.75293300  0.14787300  0.20370400  1
  O  2395  1  0.85342200  0.89316500  0.23839100  1
  O  2396  1  0.82393100  0.89391700  0.20619400  1
  O  2419  1  0.35594700  0.38867000  0.75873800  1
  O  2420  1  0.32576000  0.38916000  0.79023500  1
  O  2443  1  0.22643100  0.64107700  0.75574800  1
  O  2444  1  0.25628800  0.64023000  0.78775500  1
  O  2467  1  0.22422300  0.64719000  0.23597200  1
  O  2468  1  0.25409300  0.64618600  0.20431300  1
  O  2491  1  0.35436300  0.39496000  0.23851300  1
  O  2492  1  0.32502100  0.39518700  0.20623400  1
  O  2995  1  0.41865400  0.91483400  0.98356200  1
  O  2996  1  0.42212400  0.90981300  0.02220100  1
  O  3019  1  0.73598900  0.11981300  0.98473000  1
  O  3020  1  0.73286900  0.12448300  0.02337900  1
  O  3043  1  0.42146400  0.12286000  0.50882000  1
  O  3044  1  0.42552800  0.12715000  0.47019600  1
  O  3067  1  0.73072100  0.91336600  0.51138900  1
  O  3068  1  0.72826300  0.90873300  0.47267800  1
  O  3091  1  0.92248900  0.41252600  0.98343900  1
  O  3092  1  0.92582900  0.40789700  0.02210900  1
  O  3115  1  0.24126100  0.62514600  0.98480700  1
  O  3116  1  0.23739900  0.62915600  0.02346400  1
  O  3139  1  0.92615000  0.62580700  0.50860500  1
  O  3140  1  0.93021800  0.63024500  0.47000300  1
  O  3163  1  0.23723200  0.40880300  0.51122500  1
  O  3164  1  0.23403700  0.40431500  0.47253600  1
  O  3187  1  0.63563900  0.00155400  0.89081800  1
  O  3188  1  0.60235900  0.96794900  0.88682500  1
  O  3211  1  0.64505400  0.03654400  0.62010800  1
  O  3212  1  0.61127900  0.07057700  0.62034800  1
  O  3235  1  0.51532500  0.04000200  0.10963300  1
  O  3236  1  0.55013900  0.07260400  0.11183400  1
  O  3259  1  0.51106300  0.99816900  0.37344900  1
  O  3260  1  0.54462500  0.96397800  0.37336900  1
  O  3283  1  0.14267200  0.49579100  0.88541600  1
  O  3284  1  0.10788800  0.46318200  0.88305900  1
  O  3307  1  0.14701200  0.53756400  0.61988600  1
  O  3308  1  0.11351600  0.57180000  0.61999400  1
  O  3331  1  0.02213600  0.53418500  0.10204200  1
  O  3332  1  0.05515000  0.56797400  0.10609000  1
  O  3355  1  0.01249500  0.49968900  0.37462400  1
  O  3356  1  0.04585400  0.46535600  0.37439100  1
  O  3379  1  0.39000000  0.73355000  0.87872100  1
  O  3380  1  0.34818600  0.70774700  0.87821800  1
  O  3403  1  0.76768200  0.30367900  0.88086600  1
  O  3404  1  0.80967900  0.32921800  0.87967700  1
  O  3427  1  0.38920800  0.30334500  0.61460500  1
  O  3428  1  0.34668300  0.32893200  0.61564600  1
  O  3451  1  0.76852800  0.73225700  0.61221400  1
  O  3452  1  0.81141100  0.70708900  0.61270300  1
  O  3475  1  0.76841500  0.30281600  0.11527500  1
  O  3476  1  0.81035700  0.32846000  0.11582600  1
  O  3499  1  0.39173200  0.73167300  0.11684900  1
  O  3500  1  0.35012700  0.70566400  0.11802300  1
  O  3523  1  0.76907900  0.73214400  0.38010000  1
  O  3524  1  0.81176700  0.70676500  0.37905600  1
  O  3547  1  0.39106000  0.30370200  0.37831700  1
  O  3548  1  0.34865300  0.32946700  0.37792400  1
  O  3571  1  0.64484200  0.88742200  0.75883900  1
  O  3572  1  0.61458500  0.88839400  0.79028600  1
  O  3595  1  0.51414200  0.14189100  0.75622600  1
  O  3596  1  0.54394400  0.14174600  0.78826500  1
  O  3619  1  0.51235700  0.14826500  0.23537100  1
  O  3620  1  0.54222600  0.14787300  0.20370400  1
  O  3643  1  0.64271500  0.89316500  0.23839100  1
  O  3644  1  0.61322400  0.89391700  0.20619400  1
  O  3667  1  0.14524000  0.38867000  0.75873800  1
  O  3668  1  0.11505300  0.38916000  0.79023500  1
  O  3691  1  0.01572400  0.64107700  0.75574800  1
  O  3692  1  0.04558100  0.64023000  0.78775500  1
  O  3715  1  0.01351600  0.64719000  0.23597200  1
  O  3716  1  0.04338600  0.64618600  0.20431300  1
  O  3739  1  0.14365600  0.39496000  0.23851300  1
  O  3740  1  0.11431400  0.39518700  0.20623400  1
  O  4243  1  0.20794700  0.91483400  0.98356200  1
  O  4244  1  0.21141700  0.90981300  0.02220100  1
  O  4267  1  0.52528200  0.11981300  0.98473000  1
  O  4268  1  0.52216200  0.12448300  0.02337900  1
  O  4291  1  0.21075700  0.12286000  0.50882000  1
  O  4292  1  0.21482100  0.12715000  0.47019600  1
  O  4315  1  0.52001400  0.91336600  0.51138900  1
  O  4316  1  0.51755600  0.90873300  0.47267800  1
  O  4339  1  0.71178200  0.41252600  0.98343900  1
  O  4340  1  0.71512200  0.40789700  0.02210900  1
  O  4363  1  0.03055400  0.62514600  0.98480700  1
  O  4364  1  0.02669200  0.62915600  0.02346400  1
  O  4387  1  0.71544300  0.62580700  0.50860500  1
  O  4388  1  0.71951100  0.63024500  0.47000300  1
  O  4411  1  0.02652500  0.40880300  0.51122500  1
  O  4412  1  0.02333000  0.40431500  0.47253600  1
  O  4435  1  0.42493200  0.00155400  0.89081800  1
  O  4436  1  0.39165200  0.96794900  0.88682500  1
  O  4459  1  0.43434700  0.03654400  0.62010800  1
  O  4460  1  0.40057200  0.07057700  0.62034800  1
  O  4483  1  0.30461800  0.04000200  0.10963300  1
  O  4484  1  0.33943200  0.07260400  0.11183400  1
  O  4507  1  0.30035600  0.99816900  0.37344900  1
  O  4508  1  0.33391800  0.96397800  0.37336900  1
  O  4531  1  0.93196510  0.49579100  0.88541600  1
  O  4532  1  0.89718100  0.46318200  0.88305900  1
  O  4555  1  0.93630510  0.53756400  0.61988600  1
  O  4556  1  0.90280910  0.57180000  0.61999400  1
  O  4579  1  0.81142900  0.53418500  0.10204200  1
  O  4580  1  0.84444300  0.56797400  0.10609000  1
  O  4603  1  0.80178800  0.49968900  0.37462400  1
  O  4604  1  0.83514700  0.46535600  0.37439100  1
  O  4627  1  0.17929300  0.73355000  0.87872100  1
  O  4628  1  0.13747900  0.70774700  0.87821800  1
  O  4651  1  0.55697500  0.30367900  0.88086600  1
  O  4652  1  0.59897200  0.32921800  0.87967700  1
  O  4675  1  0.17850100  0.30334500  0.61460500  1
  O  4676  1  0.13597600  0.32893200  0.61564600  1
  O  4699  1  0.55782100  0.73225700  0.61221400  1
  O  4700  1  0.60070400  0.70708900  0.61270300  1
  O  4723  1  0.55770800  0.30281600  0.11527500  1
  O  4724  1  0.59965000  0.32846000  0.11582600  1
  O  4747  1  0.18102500  0.73167300  0.11684900  1
  O  4748  1  0.13942000  0.70566400  0.11802300  1
  O  4771  1  0.55837200  0.73214400  0.38010000  1
  O  4772  1  0.60106000  0.70676500  0.37905600  1
  O  4795  1  0.18035300  0.30370200  0.37831700  1
  O  4796  1  0.13794600  0.32946700  0.37792400  1
  O  4819  1  0.43413500  0.88742200  0.75883900  1
  O  4820  1  0.40387800  0.88839400  0.79028600  1
  O  4843  1  0.30343500  0.14189100  0.75622600  1
  O  4844  1  0.33323700  0.14174600  0.78826500  1
  O  4867  1  0.30165000  0.14826500  0.23537100  1
  O  4868  1  0.33151900  0.14787300  0.20370400  1
  O  4891  1  0.43200800  0.89316500  0.23839100  1
  O  4892  1  0.40251700  0.89391700  0.20619400  1
  O  4915  1  0.93453310  0.38867000  0.75873800  1
  O  4916  1  0.90434610  0.38916000  0.79023500  1
  O  4939  1  0.80501700  0.64107700  0.75574800  1
  O  4940  1  0.83487400  0.64023000  0.78775500  1
  O  4963  1  0.80280900  0.64719000  0.23597200  1
  O  4964  1  0.83267900  0.64618600  0.20431300  1
  O  4987  1  0.93294910  0.39496000  0.23851300  1
  O  4988  1  0.90360710  0.39518700  0.20623400  1
