# generated using pymatgen
data_H5C10N2O
_symmetry_space_group_name_H-M   'P 1'
_cell_length_a   40.09010000
_cell_length_b   44.53710000
_cell_length_c   44.53720000
_cell_angle_alpha   89.87960000
_cell_angle_beta   90.00000000
_cell_angle_gamma   90.00000000
_symmetry_Int_Tables_number   1
_chemical_formula_structural   H5C10N2O
_chemical_formula_sum   'H320 C640 N128 O64'
_cell_volume   79520.85218255
_cell_formula_units_Z   64
loop_
 _symmetry_equiv_pos_site_id
 _symmetry_equiv_pos_as_xyz
  1  'x, y, z'
loop_
 _atom_site_type_symbol
 _atom_site_label
 _atom_site_symmetry_multiplicity
 _atom_site_fract_x
 _atom_site_fract_y
 _atom_site_fract_z
 _atom_site_occupancy
  H  7  1  0.10605000  0.62524200  0.90855700  1
  H  8  1  0.01937300  0.65043000  0.95244200  1
  H  15  1  0.15436400  0.50147700  0.88439500  1
  H  16  1  0.07270800  0.53412900  0.93141300  1
  H  19  1  0.01673200  0.55560300  0.89599400  1
  H  20  1  0.11010900  0.59605700  0.84965200  1
  H  27  1  0.60580800  0.28055300  0.59533200  1
  H  28  1  0.52012100  0.25543200  0.54991700  1
  H  35  1  0.65421900  0.40438900  0.61952600  1
  H  36  1  0.57312600  0.37190000  0.57165900  1
  H  39  1  0.51658100  0.35046600  0.60603900  1
  H  40  1  0.60928700  0.30995300  0.65379000  1
  H  47  1  0.85896000  0.11178300  0.08071500  1
  H  48  1  0.77367200  0.15828600  0.05606700  1
  H  55  1  0.90375400  0.07858600  0.20344200  1
  H  56  1  0.82318400  0.12843000  0.17270200  1
  H  59  1  0.76724700  0.09618900  0.14717600  1
  H  60  1  0.86093200  0.05132600  0.10578100  1
  H  67  1  0.35956700  0.79341800  0.42428400  1
  H  68  1  0.27460800  0.74667800  0.44940400  1
  H  75  1  0.40420900  0.82552600  0.30141400  1
  H  76  1  0.32381000  0.77572600  0.33266800  1
  H  79  1  0.26769600  0.80831200  0.35783900  1
  H  80  1  0.36097600  0.85385800  0.39866600  1
  H  87  1  0.56949700  0.62468100  0.59612900  1
  H  88  1  0.65561800  0.65024600  0.55149900  1
  H  95  1  0.52135500  0.50057700  0.61979300  1
  H  96  1  0.60265500  0.53370000  0.57247100  1
  H  99  1  0.65888800  0.55495900  0.60758500  1
  H  100  1  0.56573300  0.59490800  0.65468900  1
  H  107  1  0.07064500  0.28109400  0.90804100  1
  H  108  1  0.15880700  0.25593300  0.94953700  1
  H  115  1  0.02103700  0.40500500  0.88512500  1
  H  116  1  0.10337900  0.37212600  0.93119800  1
  H  119  1  0.15882200  0.35192700  0.89461800  1
  H  120  1  0.06500500  0.31104500  0.84930400  1
  H  127  1  0.81637100  0.11231500  0.42434600  1
  H  128  1  0.90224700  0.15784400  0.44897300  1
  H  135  1  0.77146000  0.07912900  0.30178300  1
  H  136  1  0.85238000  0.12856300  0.33228500  1
  H  139  1  0.90801400  0.09596700  0.35799500  1
  H  140  1  0.81397700  0.05175400  0.39957900  1
  H  147  1  0.31682800  0.79266400  0.08077500  1
  H  148  1  0.40283700  0.74755800  0.05577000  1
  H  155  1  0.27173000  0.82449400  0.20368900  1
  H  156  1  0.35263300  0.77533100  0.17267600  1
  H  159  1  0.40821500  0.80838700  0.14755400  1
  H  160  1  0.31425700  0.85295200  0.10627200  1
  H  167  1  0.06771200  0.27993600  0.09483100  1
  H  168  1  0.14620200  0.25620500  0.03925700  1
  H  175  1  0.02309000  0.40284900  0.12665800  1
  H  176  1  0.10224400  0.37293700  0.07499100  1
  H  179  1  0.16001100  0.34595700  0.10209900  1
  H  180  1  0.06889400  0.30593400  0.15338800  1
  H  187  1  0.56770100  0.62499500  0.40782500  1
  H  188  1  0.64629900  0.64947600  0.46289200  1
  H  195  1  0.52360500  0.50198000  0.37688500  1
  H  196  1  0.60322800  0.53243400  0.42764200  1
  H  199  1  0.66059700  0.55954100  0.40011100  1
  H  200  1  0.56893100  0.59887700  0.34914100  1
  H  207  1  0.31713500  0.79323500  0.92460900  1
  H  208  1  0.40023800  0.74365600  0.94901500  1
  H  215  1  0.27227900  0.82374900  0.80097100  1
  H  216  1  0.35213100  0.77367400  0.83276700  1
  H  219  1  0.40860400  0.80612900  0.85785600  1
  H  220  1  0.31558400  0.85265600  0.89796400  1
  H  227  1  0.81751900  0.11303800  0.58060500  1
  H  228  1  0.90044400  0.16251400  0.55554200  1
  H  235  1  0.77302800  0.08341100  0.70444700  1
  H  236  1  0.85290100  0.13318100  0.67218900  1
  H  239  1  0.90928200  0.10063500  0.64714200  1
  H  240  1  0.81623800  0.05374200  0.60764400  1
  H  247  1  0.60953900  0.28049000  0.40737000  1
  H  248  1  0.52937000  0.25665400  0.46096500  1
  H  255  1  0.65542600  0.40374500  0.37734800  1
  H  256  1  0.57529600  0.37317900  0.42756100  1
  H  259  1  0.51800300  0.34732000  0.39842600  1
  H  260  1  0.61012500  0.30732200  0.34881700  1
  H  267  1  0.10993900  0.62454600  0.09565800  1
  H  268  1  0.03099700  0.64909200  0.04087700  1
  H  275  1  0.15430900  0.50132500  0.12668700  1
  H  276  1  0.07472100  0.53190100  0.07579800  1
  H  279  1  0.01732800  0.55880300  0.10353800  1
  H  280  1  0.10897600  0.59807300  0.15430700  1
  H  287  1  0.36068500  0.79289400  0.58058800  1
  H  288  1  0.27740500  0.74384400  0.55582000  1
  H  295  1  0.40487800  0.82339900  0.70434000  1
  H  296  1  0.32493800  0.77361500  0.67249400  1
  H  299  1  0.26883100  0.80591000  0.64687200  1
  H  300  1  0.36237300  0.85223800  0.60697000  1
  H  307  1  0.86005900  0.11320200  0.92469800  1
  H  308  1  0.77603000  0.16140300  0.94906500  1
  H  315  1  0.90587400  0.08430000  0.80094000  1
  H  316  1  0.82541200  0.13346200  0.83276400  1
  H  319  1  0.76929500  0.10008300  0.85725300  1
  H  320  1  0.86268100  0.05410300  0.89755300  1
  H  327  1  0.60967600  0.12497200  0.40785700  1
  H  328  1  0.52940200  0.14939200  0.46081700  1
  H  335  1  0.65329300  0.00163300  0.37507400  1
  H  336  1  0.57473800  0.03227400  0.42711900  1
  H  339  1  0.51731400  0.05872800  0.39879500  1
  H  340  1  0.60950900  0.09962000  0.34915500  1
  H  347  1  0.11036100  0.78025900  0.09730000  1
  H  348  1  0.02991900  0.75587300  0.04453900  1
  H  355  1  0.15371300  0.90319100  0.13109400  1
  H  356  1  0.07486300  0.87295700  0.07915600  1
  H  359  1  0.01761200  0.84607000  0.10731000  1
  H  360  1  0.10992400  0.80505000  0.15647700  1
  H  367  1  0.36252300  0.61128500  0.58034400  1
  H  368  1  0.28107600  0.66361900  0.55711400  1
  H  375  1  0.40334100  0.56949900  0.70179100  1
  H  376  1  0.32424200  0.62240200  0.67360900  1
  H  379  1  0.26811300  0.59644100  0.64331800  1
  H  380  1  0.36188700  0.55049700  0.60142500  1
  H  387  1  0.86189300  0.29382100  0.92421900  1
  H  388  1  0.77966900  0.24240900  0.94731700  1
  H  395  1  0.90313300  0.33604400  0.80292000  1
  H  396  1  0.82378400  0.28329000  0.83082500  1
  H  399  1  0.76783900  0.30950400  0.86091600  1
  H  400  1  0.86190300  0.35471400  0.90332300  1
  H  407  1  0.06605500  0.12448300  0.09778900  1
  H  408  1  0.14791900  0.14890300  0.04673100  1
  H  415  1  0.02207400  0.00115200  0.13066600  1
  H  416  1  0.10168800  0.03200200  0.07988400  1
  H  419  1  0.15832300  0.05834200  0.10965700  1
  H  420  1  0.06495800  0.09921600  0.15705300  1
  H  427  1  0.56542900  0.78079900  0.40779400  1
  H  428  1  0.64622400  0.75597100  0.46004800  1
  H  435  1  0.52185700  0.90416200  0.37492000  1
  H  436  1  0.60049000  0.87325600  0.42689600  1
  H  439  1  0.65784500  0.84707800  0.39814200  1
  H  440  1  0.56568500  0.80637000  0.34879700  1
  H  447  1  0.31380300  0.61225900  0.92410300  1
  H  448  1  0.39609200  0.66346200  0.94718900  1
  H  455  1  0.27257500  0.57042900  0.80278700  1
  H  456  1  0.35208600  0.62290200  0.83061500  1
  H  459  1  0.40789800  0.59670200  0.86093100  1
  H  460  1  0.31356100  0.55155500  0.90329100  1
  H  467  1  0.81366600  0.29361400  0.58043400  1
  H  468  1  0.89662400  0.24331900  0.55724200  1
  H  475  1  0.77212600  0.33537000  0.70166300  1
  H  476  1  0.85205500  0.28337300  0.67386700  1
  H  479  1  0.90761300  0.31009700  0.64363900  1
  H  480  1  0.81297000  0.35450300  0.60120100  1
  H  487  1  0.56664300  0.78054200  0.59713500  1
  H  488  1  0.64667800  0.75765500  0.54324200  1
  H  495  1  0.52401200  0.90276300  0.63557200  1
  H  496  1  0.60231500  0.87439800  0.58213500  1
  H  499  1  0.65948700  0.84594800  0.60715600  1
  H  500  1  0.56701000  0.80328700  0.65632100  1
  H  507  1  0.06756000  0.12573300  0.90952900  1
  H  508  1  0.14772700  0.14799100  0.96356000  1
  H  515  1  0.02369100  0.00364600  0.87085600  1
  H  516  1  0.10147100  0.03133800  0.92528100  1
  H  519  1  0.15926100  0.05896600  0.90064000  1
  H  520  1  0.06775900  0.10268500  0.85067700  1
  H  527  1  0.81449100  0.29297200  0.42456600  1
  H  528  1  0.89420800  0.23877900  0.44823700  1
  H  535  1  0.77427900  0.33133800  0.30143500  1
  H  536  1  0.85228800  0.27822000  0.33160500  1
  H  539  1  0.90865100  0.30533500  0.36129800  1
  H  540  1  0.81520100  0.35272200  0.40152500  1
  H  547  1  0.31386700  0.61216700  0.07984100  1
  H  548  1  0.39417700  0.66579900  0.05644000  1
  H  555  1  0.27327400  0.57360400  0.20290700  1
  H  556  1  0.35148500  0.62656900  0.17288100  1
  H  559  1  0.40769600  0.59898500  0.14337700  1
  H  560  1  0.31405700  0.55226000  0.10285100  1
  H  567  1  0.11038300  0.78087100  0.90875000  1
  H  568  1  0.02941000  0.75813400  0.96170700  1
  H  575  1  0.15393300  0.90333200  0.87071500  1
  H  576  1  0.07552200  0.87476900  0.92409100  1
  H  579  1  0.01829000  0.84706700  0.89811900  1
  H  580  1  0.11075500  0.80415200  0.84957200  1
  H  587  1  0.61063400  0.12516100  0.59669800  1
  H  588  1  0.52915800  0.14752000  0.54419000  1
  H  595  1  0.65486200  0.00291900  0.63506000  1
  H  596  1  0.57629400  0.03105900  0.58164600  1
  H  599  1  0.51902100  0.05841900  0.60775300  1
  H  600  1  0.61146200  0.10197100  0.65594300  1
  H  607  1  0.86306200  0.29241500  0.07983500  1
  H  608  1  0.78235500  0.23927100  0.05673200  1
  H  615  1  0.90446000  0.33034100  0.20280100  1
  H  616  1  0.82582700  0.27780300  0.17313600  1
  H  619  1  0.76963700  0.30555500  0.14376500  1
  H  620  1  0.86343600  0.35208500  0.10285400  1
  H  627  1  0.36375800  0.61221200  0.42446700  1
  H  628  1  0.28312700  0.66518400  0.44818600  1
  H  635  1  0.40406700  0.57407300  0.30127300  1
  H  636  1  0.32554400  0.62647900  0.33136200  1
  H  639  1  0.26974700  0.59891800  0.36120000  1
  H  640  1  0.36405700  0.55251400  0.40157200  1
  H  647  1  0.97069300  0.62995300  0.97615800  1
  H  648  1  0.04307500  0.55752100  0.02151000  1
  H  655  1  0.47107800  0.27603800  0.52647600  1
  H  656  1  0.54303100  0.34835100  0.48031300  1
  H  663  1  0.72144500  0.17707500  0.07635000  1
  H  664  1  0.79257200  0.22310600  0.14913400  1
  H  671  1  0.22254600  0.72755500  0.42925700  1
  H  672  1  0.29265500  0.68144700  0.35576100  1
  H  679  1  0.70505900  0.63014800  0.52852700  1
  H  680  1  0.63390400  0.55775000  0.48188500  1
  H  687  1  0.20633500  0.27659700  0.97421600  1
  H  688  1  0.13322400  0.34785200  0.02026200  1
  H  695  1  0.95471700  0.17607800  0.42881000  1
  H  696  1  0.88440100  0.22313800  0.35585300  1
  H  703  1  0.45463300  0.72835400  0.07609000  1
  H  704  1  0.38423600  0.68127400  0.14892800  1
  H  711  1  0.45394200  0.72613800  0.92894800  1
  H  712  1  0.38519700  0.67928700  0.85482400  1
  H  719  1  0.95400600  0.18044100  0.57551700  1
  H  720  1  0.88581900  0.22752500  0.64985900  1
  H  727  1  0.22342600  0.72665200  0.57559500  1
  H  728  1  0.29172000  0.67872800  0.64956200  1
  H  735  1  0.72273700  0.17911200  0.92873600  1
  H  736  1  0.79095000  0.22713700  0.85482000  1
  H  743  1  0.47487500  0.12934600  0.47837500  1
  H  744  1  0.54352000  0.05536500  0.52586200  1
  H  751  1  0.97521700  0.77590000  0.02752700  1
  H  752  1  0.04326900  0.85031000  0.97993100  1
  H  759  1  0.20240800  0.12893800  0.02990100  1
  H  760  1  0.13338400  0.05563900  0.98213800  1
  H  767  1  0.70074400  0.77574800  0.47716300  1
  H  768  1  0.63332100  0.84994000  0.52550300  1
  H  775  1  0.13013400  0.41529500  0.91140500  1
  H  776  1  0.04557700  0.49109700  0.91156500  1
  H  783  1  0.63003600  0.49068000  0.59257600  1
  H  784  1  0.54567300  0.41469100  0.59221000  1
  H  791  1  0.87999000  0.10537100  0.29052400  1
  H  792  1  0.79542800  0.10538400  0.21460300  1
  H  799  1  0.38027800  0.79840600  0.21452600  1
  H  800  1  0.29593800  0.79810100  0.29062200  1
  H  807  1  0.04628700  0.49023700  0.09961600  1
  H  808  1  0.13086900  0.41431400  0.09905700  1
  H  815  1  0.54715500  0.41489500  0.40414400  1
  H  816  1  0.63170400  0.49082800  0.40411300  1
  H  823  1  0.29659900  0.79641400  0.71429400  1
  H  824  1  0.38041500  0.79620800  0.79087200  1
  H  831  1  0.79741600  0.11102400  0.79084300  1
  H  832  1  0.88122100  0.11106900  0.71428600  1
  H  839  1  0.62950400  0.91455300  0.40285000  1
  H  840  1  0.54564800  0.99112900  0.40277200  1
  H  847  1  0.13016100  0.99050400  0.10394700  1
  H  848  1  0.04599800  0.91420800  0.10317700  1
  H  855  1  0.38051000  0.59637100  0.79010300  1
  H  856  1  0.29563600  0.59634200  0.71435500  1
  H  863  1  0.88023400  0.30982100  0.71445200  1
  H  864  1  0.79531700  0.30944100  0.79014700  1
  H  871  1  0.54726200  0.99084000  0.60820300  1
  H  872  1  0.63160200  0.91463600  0.60859200  1
  H  879  1  0.04642000  0.91520300  0.89753400  1
  H  880  1  0.13088700  0.99128400  0.89854600  1
  H  887  1  0.79699600  0.30311400  0.21418500  1
  H  888  1  0.88144400  0.30319000  0.29033300  1
  H  895  1  0.29650200  0.60108200  0.29037800  1
  H  896  1  0.38061500  0.60153600  0.21394200  1
  H  903  1  0.23910600  0.52568400  0.82713700  1
  H  904  1  0.18653400  0.59092700  0.89864900  1
  H  911  1  0.73852900  0.38011100  0.67711700  1
  H  912  1  0.68634100  0.31476300  0.60546800  1
  H  919  1  0.98834300  0.02219700  0.17645700  1
  H  920  1  0.93793900  0.09937300  0.11616800  1
  H  927  1  0.48847700  0.88293800  0.32877600  1
  H  928  1  0.43812000  0.80548600  0.38876100  1
  H  935  1  0.43678100  0.52451900  0.67749900  1
  H  936  1  0.48905500  0.58995900  0.60570900  1
  H  943  1  0.93640700  0.38098900  0.82746700  1
  H  944  1  0.98902700  0.31541600  0.89894000  1
  H  951  1  0.68676500  0.02274900  0.32924100  1
  H  952  1  0.73726700  0.10008100  0.38894500  1
  H  959  1  0.18732000  0.88153800  0.17681600  1
  H  960  1  0.23742000  0.80461500  0.11629800  1
  H  967  1  0.93747000  0.37577700  0.18069900  1
  H  968  1  0.99086500  0.31399000  0.10668800  1
  H  975  1  0.43734700  0.52870600  0.32330300  1
  H  976  1  0.49138300  0.59085700  0.39663500  1
  H  983  1  0.18778100  0.88049200  0.82624300  1
  H  984  1  0.23814300  0.80543400  0.88917700  1
  H  991  1  0.68867800  0.02610200  0.67941500  1
  H  992  1  0.73873600  0.10108200  0.61618400  1
  H  999  1  0.74146500  0.37709300  0.32346000  1
  H  1000  1  0.68731400  0.31479400  0.39686700  1
  H  1007  1  0.24020800  0.52812700  0.18083400  1
  H  1008  1  0.18659900  0.59021300  0.10692800  1
  H  1015  1  0.48965900  0.87978200  0.67960600  1
  H  1016  1  0.43964900  0.80509300  0.61631900  1
  H  1023  1  0.99025500  0.02708100  0.82640100  1
  H  1024  1  0.93981900  0.10183200  0.88935400  1
  H  1031  1  0.08636000  0.72962200  0.88478800  1
  H  1032  1  0.06631000  0.67653900  0.97667900  1
  H  1039  1  0.58523400  0.17695400  0.62048000  1
  H  1040  1  0.56745900  0.22835400  0.52725200  1
  H  1047  1  0.83567500  0.08765300  0.97757700  1
  H  1048  1  0.82070700  0.18173400  0.02823200  1
  H  1055  1  0.33641900  0.81787000  0.52738300  1
  H  1056  1  0.32216400  0.72351300  0.47707300  1
  H  1063  1  0.59120000  0.72885900  0.62073200  1
  H  1064  1  0.60778100  0.67661500  0.52804500  1
  H  1071  1  0.09220400  0.17584200  0.88490200  1
  H  1072  1  0.11105700  0.23103500  0.97553600  1
  H  1079  1  0.84094700  0.08801600  0.52784800  1
  H  1080  1  0.85499100  0.18195400  0.47634500  1
  H  1087  1  0.34085200  0.81787900  0.97750000  1
  H  1088  1  0.35556600  0.72360100  0.02823600  1
  H  1095  1  0.09760200  0.17934500  0.12143800  1
  H  1096  1  0.09509300  0.22526200  0.02400500  1
  H  1103  1  0.59821000  0.72727400  0.38341000  1
  H  1104  1  0.59311400  0.67811500  0.47917100  1
  H  1111  1  0.57748400  0.17800500  0.38330700  1
  H  1112  1  0.58237300  0.22800800  0.47841000  1
  H  1119  1  0.07768900  0.72620500  0.12105000  1
  H  1120  1  0.08429900  0.67851400  0.02480800  1
  H  1127  1  0.33967400  0.58933700  0.47781300  1
  H  1128  1  0.32798100  0.68411600  0.52774900  1
  H  1135  1  0.83912600  0.31541800  0.02699000  1
  H  1136  1  0.82637100  0.22111900  0.97638100  1
  H  1143  1  0.33738700  0.58973200  0.02673700  1
  H  1144  1  0.34940000  0.68451200  0.97647800  1
  H  1151  1  0.83762400  0.31556700  0.47731000  1
  H  1152  1  0.84964800  0.22137300  0.52863800  1
  C  1  1  0.07021400  0.59001300  0.91072200  1
  C  2  1  0.08202200  0.61984900  0.91387100  1
  C  3  1  0.06244900  0.64245700  0.92697200  1
  C  4  1  0.03160600  0.63461800  0.93997300  1
  C  5  1  0.02002900  0.60471500  0.94019300  1
  C  6  1  0.03726500  0.58392600  0.92172100  1
  C  9  1  0.09299200  0.56647000  0.90159900  1
  C  10  1  0.12109900  0.57071900  0.88232400  1
  C  11  1  0.14538700  0.54780100  0.87837800  1
  C  12  1  0.13807100  0.51861600  0.88881400  1
  C  13  1  0.10919800  0.51289700  0.90602100  1
  C  14  1  0.08983400  0.53769400  0.91485900  1
  C  21  1  0.57025500  0.31595100  0.59225600  1
  C  22  1  0.58192600  0.28601800  0.58959700  1
  C  23  1  0.56256700  0.26340300  0.57624900  1
  C  24  1  0.53214100  0.27128900  0.56250500  1
  C  25  1  0.52054700  0.30118500  0.56219100  1
  C  26  1  0.53756900  0.32208700  0.58066400  1
  C  29  1  0.59301400  0.33944300  0.60159400  1
  C  30  1  0.62085400  0.33517700  0.62119400  1
  C  31  1  0.64516400  0.35804800  0.62534000  1
  C  32  1  0.63797300  0.38726200  0.61492700  1
  C  33  1  0.60929000  0.39301200  0.59749200  1
  C  34  1  0.59004100  0.36825100  0.58836900  1
  C  41  1  0.82223500  0.11246400  0.11529400  1
  C  42  1  0.83501000  0.11741200  0.08600000  1
  C  43  1  0.81644500  0.13230100  0.06375800  1
  C  44  1  0.78552100  0.14505700  0.07155400  1
  C  45  1  0.77260200  0.14299500  0.10094500  1
  C  46  1  0.78927500  0.12350400  0.12124500  1
  C  49  1  0.84402800  0.10105300  0.13865800  1
  C  50  1  0.87195400  0.08175000  0.13365100  1
  C  51  1  0.89561400  0.07583100  0.15669100  1
  C  52  1  0.88782100  0.08425100  0.18637000  1
  C  53  1  0.85901100  0.10126200  0.19270700  1
  C  54  1  0.84017800  0.11198800  0.16828000  1
  C  61  1  0.32271300  0.79243300  0.38983200  1
  C  62  1  0.33559400  0.78774200  0.41912500  1
  C  63  1  0.31719000  0.77284700  0.44146800  1
  C  64  1  0.28631200  0.75990300  0.43382100  1
  C  65  1  0.27325100  0.76188300  0.40446800  1
  C  66  1  0.28979700  0.78125400  0.38399100  1
  C  69  1  0.34447400  0.80362400  0.36636300  1
  C  70  1  0.37222600  0.82316600  0.37116700  1
  C  71  1  0.39592300  0.82884200  0.34809600  1
  C  72  1  0.38824000  0.82003100  0.31851200  1
  C  73  1  0.35952700  0.80281100  0.31235400  1
  C  74  1  0.34072700  0.79228900  0.33688800  1
  C  81  1  0.60524400  0.58942200  0.59337000  1
  C  82  1  0.59344300  0.61930500  0.59054100  1
  C  83  1  0.61288700  0.64203000  0.57740100  1
  C  84  1  0.64353800  0.63431300  0.56400800  1
  C  85  1  0.65522600  0.60444600  0.56369600  1
  C  86  1  0.63809000  0.58343800  0.58208200  1
  C  89  1  0.58253300  0.56579500  0.60252200  1
  C  90  1  0.55454600  0.56984300  0.62196900  1
  C  91  1  0.53031000  0.54686700  0.62594400  1
  C  92  1  0.53758400  0.51777600  0.61535400  1
  C  93  1  0.56635600  0.51225500  0.59798200  1
  C  94  1  0.58562300  0.53713500  0.58911900  1
  C  101  1  0.10616300  0.31660600  0.90978000  1
  C  102  1  0.09479300  0.28659500  0.91275400  1
  C  103  1  0.11503000  0.26398000  0.92511500  1
  C  104  1  0.14615500  0.27186800  0.93749200  1
  C  105  1  0.15718300  0.30192400  0.93809400  1
  C  106  1  0.13927800  0.32285700  0.92024800  1
  C  109  1  0.08287300  0.34005200  0.90136300  1
  C  110  1  0.05452100  0.33588200  0.88237800  1
  C  111  1  0.03008600  0.35876200  0.87881900  1
  C  112  1  0.03742700  0.38786800  0.88933000  1
  C  113  1  0.06647000  0.39350200  0.90630800  1
  C  114  1  0.08603300  0.36867800  0.91481800  1
  C  121  1  0.85315200  0.11266600  0.38979700  1
  C  122  1  0.84039000  0.11772200  0.41906000  1
  C  123  1  0.85911600  0.13240000  0.44126500  1
  C  124  1  0.89024000  0.14479200  0.43349000  1
  C  125  1  0.90316100  0.14267000  0.40411500  1
  C  126  1  0.88623600  0.12342300  0.38382800  1
  C  129  1  0.83127800  0.10139000  0.36647800  1
  C  130  1  0.80321900  0.08225000  0.37157700  1
  C  131  1  0.77954200  0.07641700  0.34855000  1
  C  132  1  0.78740900  0.08475400  0.31883100  1
  C  133  1  0.81634400  0.10159400  0.31241900  1
  C  134  1  0.83524200  0.11224800  0.33679200  1
  C  141  1  0.35353800  0.79199600  0.11537500  1
  C  142  1  0.34087900  0.78731800  0.08601600  1
  C  143  1  0.35968900  0.77291700  0.06368300  1
  C  144  1  0.39079900  0.76043700  0.07138100  1
  C  145  1  0.40360300  0.76224500  0.10082000  1
  C  146  1  0.38661600  0.78121500  0.12130000  1
  C  149  1  0.33153000  0.80287800  0.13877700  1
  C  150  1  0.30349300  0.82209700  0.13387300  1
  C  151  1  0.27979900  0.82766100  0.15695500  1
  C  152  1  0.28766900  0.81902300  0.18658200  1
  C  153  1  0.31658400  0.80208700  0.19281200  1
  C  154  1  0.33547100  0.79167300  0.16833300  1
  C  161  1  0.10343600  0.31505500  0.09000800  1
  C  162  1  0.09061500  0.28557400  0.08668000  1
  C  163  1  0.10741200  0.26340800  0.07018300  1
  C  164  1  0.13591100  0.27158500  0.05359700  1
  C  165  1  0.14913600  0.30092500  0.05488100  1
  C  166  1  0.13499800  0.32101400  0.07603600  1
  C  169  1  0.08266100  0.33845600  0.10281500  1
  C  170  1  0.05564100  0.33333333  0.12317300  1
  C  171  1  0.03175300  0.35614000  0.12934500  1
  C  172  1  0.03905100  0.38590100  0.12076800  1
  C  173  1  0.06744200  0.39245800  0.10328600  1
  C  174  1  0.08599800  0.36820600  0.09194200  1
  C  181  1  0.60394400  0.59023300  0.41232600  1
  C  182  1  0.59079900  0.61960200  0.41570400  1
  C  183  1  0.60743400  0.64186400  0.43217800  1
  C  184  1  0.63618200  0.63400300  0.44854500  1
  C  185  1  0.64964100  0.60476400  0.44724400  1
  C  186  1  0.63562800  0.58451200  0.42618300  1
  C  189  1  0.58320300  0.56666800  0.39978600  1
  C  190  1  0.55601200  0.57152500  0.37956600  1
  C  191  1  0.53211400  0.54867600  0.37379000  1
  C  192  1  0.53961700  0.51899100  0.38247200  1
  C  193  1  0.56821700  0.51261900  0.39975600  1
  C  194  1  0.58681000  0.53699400  0.41077900  1
  C  201  1  0.35340600  0.79087400  0.88976700  1
  C  202  1  0.34081200  0.78683100  0.91924500  1
  C  203  1  0.35909300  0.77188800  0.94167300  1
  C  204  1  0.38900800  0.75742000  0.93360700  1
  C  205  1  0.40217400  0.75941800  0.90427500  1
  C  206  1  0.38610200  0.77922200  0.88390100  1
  C  209  1  0.33170700  0.80204100  0.86622400  1
  C  210  1  0.30403500  0.82173500  0.87081900  1
  C  211  1  0.28039800  0.82733900  0.84767400  1
  C  212  1  0.28810300  0.81824800  0.81817500  1
  C  213  1  0.31670100  0.80082500  0.81221200  1
  C  214  1  0.33533700  0.79036700  0.83686300  1
  C  221  1  0.85397100  0.11560700  0.61528000  1
  C  222  1  0.84124600  0.11941700  0.58581400  1
  C  223  1  0.85939400  0.13425400  0.56322400  1
  C  224  1  0.88931800  0.14882400  0.57108100  1
  C  225  1  0.90262300  0.14696700  0.60037300  1
  C  226  1  0.88666400  0.12733700  0.62096300  1
  C  229  1  0.83233500  0.10463200  0.63895800  1
  C  230  1  0.80468700  0.08486600  0.63455800  1
  C  231  1  0.78107500  0.07947500  0.65777500  1
  C  232  1  0.78885200  0.08875700  0.68719400  1
  C  233  1  0.81748200  0.10620100  0.69299300  1
  C  234  1  0.83608300  0.11647100  0.66824100  1
  C  241  1  0.57383700  0.31571900  0.41150900  1
  C  242  1  0.58639600  0.28614200  0.41493200  1
  C  243  1  0.56895800  0.26396700  0.43094100  1
  C  244  1  0.54000100  0.27210400  0.44683100  1
  C  245  1  0.52711500  0.30156700  0.44560000  1
  C  246  1  0.54192600  0.32173000  0.42479900  1
  C  249  1  0.59517400  0.33917000  0.39949200  1
  C  250  1  0.62262500  0.33430600  0.37958400  1
  C  251  1  0.64667600  0.35710500  0.37401200  1
  C  252  1  0.63932200  0.38674800  0.38283500  1
  C  253  1  0.61067200  0.39310000  0.40002700  1
  C  254  1  0.59183700  0.36871100  0.41078400  1
  C  261  1  0.07388300  0.58964900  0.09111700  1
  C  262  1  0.08687400  0.61909400  0.08777300  1
  C  263  1  0.07006900  0.64141000  0.07140200  1
  C  264  1  0.04129400  0.63355000  0.05510700  1
  C  265  1  0.02790900  0.60427900  0.05647300  1
  C  266  1  0.04215200  0.58391400  0.07738300  1
  C  269  1  0.09470800  0.56606900  0.10362100  1
  C  270  1  0.12188000  0.57087800  0.12385500  1
  C  271  1  0.14576300  0.54800900  0.12971400  1
  C  272  1  0.13831000  0.51834900  0.12104000  1
  C  273  1  0.10975200  0.51202600  0.10371500  1
  C  274  1  0.09114400  0.53642400  0.09265000  1
  C  281  1  0.32421200  0.79058100  0.61529200  1
  C  282  1  0.33695800  0.78655900  0.58587400  1
  C  283  1  0.31872900  0.77175600  0.56338400  1
  C  284  1  0.28865400  0.75745600  0.57129500  1
  C  285  1  0.27534200  0.75938400  0.60056400  1
  C  286  1  0.29144000  0.77899400  0.62102700  1
  C  289  1  0.34579300  0.80173000  0.63890300  1
  C  290  1  0.37360800  0.82130000  0.63433500  1
  C  291  1  0.39710300  0.82689800  0.65757600  1
  C  292  1  0.38914800  0.81790900  0.68708500  1
  C  293  1  0.36042000  0.80062900  0.69301300  1
  C  294  1  0.34185900  0.79020700  0.66834800  1
  C  301  1  0.82400500  0.11556900  0.88965400  1
  C  302  1  0.83630100  0.11931600  0.91926200  1
  C  303  1  0.81763200  0.13376700  0.94169600  1
  C  304  1  0.78755800  0.14797800  0.93359100  1
  C  305  1  0.77466100  0.14619500  0.90416000  1
  C  306  1  0.79119000  0.12691200  0.88368300  1
  C  309  1  0.84606600  0.10499800  0.86614700  1
  C  310  1  0.87392800  0.08549500  0.87072200  1
  C  311  1  0.89770200  0.08032200  0.84760900  1
  C  312  1  0.88996200  0.08956400  0.81813000  1
  C  313  1  0.86119500  0.10679200  0.81217800  1
  C  314  1  0.84239900  0.11690300  0.83683300  1
  C  321  1  0.57365500  0.08999000  0.41176700  1
  C  322  1  0.58642600  0.11945800  0.41527600  1
  C  323  1  0.56893600  0.14182100  0.43089600  1
  C  324  1  0.53984900  0.13390400  0.44669100  1
  C  325  1  0.52648900  0.10462500  0.44514200  1
  C  326  1  0.54161200  0.08416100  0.42490400  1
  C  329  1  0.59466500  0.06658300  0.39930600  1
  C  330  1  0.62185600  0.07152200  0.37908700  1
  C  331  1  0.64512900  0.04842200  0.37234800  1
  C  332  1  0.63757100  0.01873700  0.38101300  1
  C  333  1  0.60928500  0.01246100  0.39873500  1
  C  334  1  0.59103600  0.03686100  0.41015500  1
  C  341  1  0.07403000  0.81506000  0.09396900  1
  C  342  1  0.08699100  0.78568900  0.09012400  1
  C  343  1  0.06960500  0.76341000  0.07428000  1
  C  344  1  0.04031600  0.77128400  0.05878200  1
  C  345  1  0.02675900  0.80046200  0.06072400  1
  C  346  1  0.04191700  0.82087900  0.08097400  1
  C  349  1  0.09498800  0.83844100  0.10657000  1
  C  350  1  0.12219400  0.83336700  0.12672800  1
  C  351  1  0.14550700  0.85641100  0.13355200  1
  C  352  1  0.13790400  0.88615900  0.12513700  1
  C  353  1  0.10953800  0.89259200  0.10756500  1
  C  354  1  0.09122600  0.86826600  0.09603900  1
  C  361  1  0.32535700  0.61212900  0.61458700  1
  C  362  1  0.33898800  0.61801400  0.58571800  1
  C  363  1  0.32198200  0.63497800  0.56389900  1
  C  364  1  0.29202700  0.64924700  0.57212500  1
  C  365  1  0.27813300  0.64598600  0.60106500  1
  C  366  1  0.29299200  0.62453900  0.62050000  1
  C  369  1  0.34561600  0.59788000  0.63766800  1
  C  370  1  0.37314400  0.57831500  0.63184600  1
  C  371  1  0.39592800  0.56994400  0.65484000  1
  C  372  1  0.38773100  0.57637900  0.68493000  1
  C  373  1  0.35903800  0.59322800  0.69203000  1
  C  374  1  0.34089700  0.60602400  0.66813300  1
  C  381  1  0.82480200  0.29339200  0.88989300  1
  C  382  1  0.83826500  0.28739200  0.91881400  1
  C  383  1  0.82098700  0.27057900  0.94058900  1
  C  384  1  0.79086100  0.25664500  0.93231500  1
  C  385  1  0.77719600  0.25998400  0.90331000  1
  C  386  1  0.79233800  0.28124200  0.88386100  1
  C  389  1  0.84530300  0.30751000  0.86689000  1
  C  390  1  0.87294200  0.32692100  0.87281900  1
  C  391  1  0.89576900  0.33533200  0.84986600  1
  C  392  1  0.88749400  0.32912600  0.81974400  1
  C  393  1  0.85872900  0.31241600  0.81254500  1
  C  394  1  0.84053900  0.29955500  0.83638000  1
  C  401  1  0.10241900  0.08965600  0.09520800  1
  C  402  1  0.08959200  0.11905600  0.09108200  1
  C  403  1  0.10744200  0.14135600  0.07559900  1
  C  404  1  0.13715500  0.13348200  0.06080300  1
  C  405  1  0.15052000  0.10423900  0.06283800  1
  C  406  1  0.13485800  0.08383800  0.08289600  1
  C  409  1  0.08112700  0.06620100  0.10729200  1
  C  410  1  0.05348400  0.07109600  0.12698900  1
  C  411  1  0.03015100  0.04793500  0.13345500  1
  C  412  1  0.03790100  0.01827700  0.12494200  1
  C  413  1  0.06651700  0.01205000  0.10765700  1
  C  414  1  0.08502300  0.03650200  0.09656400  1
  C  421  1  0.60163000  0.81566600  0.41137000  1
  C  422  1  0.58879800  0.78621200  0.41497200  1
  C  423  1  0.60634600  0.76379200  0.43055000  1
  C  424  1  0.63568000  0.77154900  0.44601300  1
  C  425  1  0.64910800  0.80079600  0.44431700  1
  C  426  1  0.63377000  0.82143200  0.42431500  1
  C  429  1  0.58053400  0.83912700  0.39904300  1
  C  430  1  0.55338300  0.83428400  0.37879100  1
  C  431  1  0.53008100  0.85740700  0.37209700  1
  C  432  1  0.53762100  0.88704700  0.38080700  1
  C  433  1  0.56589500  0.89323500  0.39855400  1
  C  434  1  0.58416600  0.86878000  0.40993800  1
  C  441  1  0.35086900  0.61281800  0.88975300  1
  C  442  1  0.33740700  0.61874400  0.91866000  1
  C  443  1  0.35472500  0.63540200  0.94044600  1
  C  444  1  0.38487300  0.64932300  0.93217300  1
  C  445  1  0.39860200  0.64610500  0.90318100  1
  C  446  1  0.38336800  0.62494100  0.88375500  1
  C  449  1  0.33039800  0.59874000  0.86675900  1
  C  450  1  0.30264800  0.57942800  0.87270500  1
  C  451  1  0.27984900  0.57109100  0.84974500  1
  C  452  1  0.28817500  0.57732400  0.81962000  1
  C  453  1  0.31702500  0.59393500  0.81241700  1
  C  454  1  0.33524900  0.60670400  0.83622400  1
  C  461  1  0.85080800  0.29349300  0.61473400  1
  C  462  1  0.83738700  0.28743500  0.58582900  1
  C  463  1  0.85488400  0.27090900  0.56405100  1
  C  464  1  0.88524300  0.25733900  0.57227700  1
  C  465  1  0.89887800  0.26068000  0.60127500  1
  C  466  1  0.88343700  0.28166500  0.62074900  1
  C  469  1  0.83016600  0.30737300  0.63772600  1
  C  470  1  0.80229700  0.32653300  0.63176500  1
  C  471  1  0.77941600  0.33473300  0.65471500  1
  C  472  1  0.78780300  0.32858100  0.68484600  1
  C  473  1  0.81676700  0.31213600  0.69207000  1
  C  474  1  0.83508200  0.29946100  0.66826300  1
  C  481  1  0.60257200  0.81569600  0.59391800  1
  C  482  1  0.58974600  0.78631400  0.58960800  1
  C  483  1  0.60713500  0.76423400  0.57343400  1
  C  484  1  0.63589000  0.77284900  0.55747000  1
  C  485  1  0.64887100  0.80223900  0.55907900  1
  C  486  1  0.63433100  0.82193500  0.58037700  1
  C  489  1  0.58200900  0.83866600  0.60786000  1
  C  490  1  0.55480200  0.83293700  0.62787400  1
  C  491  1  0.53174200  0.85582400  0.63583500  1
  C  492  1  0.53963900  0.88587800  0.62886500  1
  C  493  1  0.56808000  0.89286500  0.61164000  1
  C  494  1  0.58609400  0.86897500  0.59889200  1
  C  501  1  0.10270500  0.09002600  0.91335500  1
  C  502  1  0.09050000  0.11968200  0.91723000  1
  C  503  1  0.10829300  0.14172500  0.93312500  1
  C  504  1  0.13666100  0.13280600  0.94949700  1
  C  505  1  0.14902600  0.10318800  0.94821800  1
  C  506  1  0.13425400  0.08344100  0.92711400  1
  C  509  1  0.08183500  0.06727000  0.89940900  1
  C  510  1  0.05495000  0.07323300  0.87910700  1
  C  511  1  0.03177800  0.05053100  0.87085800  1
  C  512  1  0.03934800  0.02041000  0.87781300  1
  C  513  1  0.06748000  0.01319300  0.89535100  1
  C  514  1  0.08548400  0.03692600  0.90839800  1
  C  521  1  0.85131100  0.29053800  0.39015700  1
  C  522  1  0.83782200  0.28567000  0.41924800  1
  C  523  1  0.85472100  0.26910200  0.44148000  1
  C  524  1  0.88379600  0.25343200  0.43316500  1
  C  525  1  0.89781500  0.25622500  0.40420600  1
  C  526  1  0.88352000  0.27773700  0.38452100  1
  C  529  1  0.83116300  0.30420100  0.36666500  1
  C  530  1  0.80385300  0.32420900  0.37178900  1
  C  531  1  0.78139800  0.33223600  0.34841000  1
  C  532  1  0.78963100  0.32472500  0.31859200  1
  C  533  1  0.81796200  0.30715800  0.31217100  1
  C  534  1  0.83581800  0.29493200  0.33651400  1
  C  541  1  0.35063200  0.61425300  0.11433400  1
  C  542  1  0.33727500  0.61924200  0.08520800  1
  C  543  1  0.35435900  0.63579300  0.06307100  1
  C  544  1  0.38358300  0.65119600  0.07145800  1
  C  545  1  0.39746700  0.64820300  0.10043800  1
  C  546  1  0.38293700  0.62680200  0.12008900  1
  C  549  1  0.33027100  0.60074100  0.13776700  1
  C  550  1  0.30289000  0.58083400  0.13258000  1
  C  551  1  0.28036000  0.57284900  0.15593000  1
  C  552  1  0.28866200  0.58020700  0.18577300  1
  C  553  1  0.31706300  0.59766300  0.19224900  1
  C  554  1  0.33493500  0.60992900  0.16793800  1
  C  561  1  0.07474800  0.81625900  0.91181400  1
  C  562  1  0.08724800  0.78674200  0.91610200  1
  C  563  1  0.06944000  0.76465000  0.93199100  1
  C  564  1  0.04056000  0.77336600  0.94768800  1
  C  565  1  0.02787900  0.80286900  0.94610400  1
  C  566  1  0.04287500  0.82262700  0.92504500  1
  C  569  1  0.09564900  0.83921000  0.89816600  1
  C  570  1  0.12288500  0.83352500  0.87819900  1
  C  571  1  0.14602000  0.85641200  0.87029100  1
  C  572  1  0.13826500  0.88643600  0.87740100  1
  C  573  1  0.10989400  0.89336800  0.89470700  1
  C  574  1  0.09176500  0.86943700  0.90733700  1
  C  581  1  0.57517900  0.08959000  0.59386100  1
  C  582  1  0.58745900  0.11918400  0.58953000  1
  C  583  1  0.56944400  0.14114500  0.57365300  1
  C  584  1  0.54047200  0.13233500  0.55815600  1
  C  585  1  0.52804000  0.10276800  0.55982800  1
  C  586  1  0.54328800  0.08303000  0.58074900  1
  C  589  1  0.59633900  0.06676400  0.60741000  1
  C  590  1  0.62359000  0.07260200  0.62731600  1
  C  591  1  0.64684000  0.04981500  0.63525200  1
  C  592  1  0.63912800  0.01974100  0.62832100  1
  C  593  1  0.61074400  0.01265700  0.61108900  1
  C  594  1  0.59255500  0.03649500  0.59834900  1
  C  601  1  0.82653500  0.29022400  0.11453400  1
  C  602  1  0.83968700  0.28534500  0.08533700  1
  C  603  1  0.82235500  0.26905500  0.06323900  1
  C  604  1  0.79311600  0.25371200  0.07174800  1
  C  605  1  0.77939700  0.25652100  0.10080700  1
  C  606  1  0.79419700  0.27776000  0.12040000  1
  C  609  1  0.84705500  0.30360100  0.13788000  1
  C  610  1  0.87456900  0.32336000  0.13257100  1
  C  611  1  0.89721000  0.33120800  0.15583800  1
  C  612  1  0.88901000  0.32379400  0.18571600  1
  C  613  1  0.86052600  0.30646900  0.19231100  1
  C  614  1  0.84246600  0.29435700  0.16808700  1
  C  621  1  0.32688300  0.61428500  0.39003800  1
  C  622  1  0.34029800  0.61919300  0.41914500  1
  C  623  1  0.32317600  0.63553000  0.44134600  1
  C  624  1  0.29379300  0.65076900  0.43308500  1
  C  625  1  0.27984200  0.64790200  0.40413700  1
  C  626  1  0.29448400  0.62673300  0.38438700  1
  C  629  1  0.34722200  0.60089600  0.36655500  1
  C  630  1  0.37482500  0.58118600  0.37170000  1
  C  631  1  0.39727000  0.57331600  0.34828000  1
  C  632  1  0.38873100  0.58059600  0.31845000  1
  C  633  1  0.36014300  0.59784000  0.31201900  1
  C  634  1  0.34227300  0.60998000  0.33634400  1
  C  641  1  0.98383500  0.61264100  0.98549800  1
  C  643  1  0.00994400  0.59395500  0.03064200  1
  C  644  1  0.02474600  0.57106400  0.01308900  1
  C  646  1  0.00473400  0.59438900  0.96752000  1
  C  649  1  0.48420600  0.29328000  0.51699100  1
  C  651  1  0.50949400  0.31209100  0.47158700  1
  C  652  1  0.52477500  0.33486700  0.48894300  1
  C  654  1  0.50554300  0.31139900  0.53471400  1
  C  657  1  0.73405100  0.18659100  0.09385500  1
  C  659  1  0.76014400  0.23177100  0.11203200  1
  C  660  1  0.77435500  0.21459000  0.13556500  1
  C  662  1  0.75528900  0.16887100  0.11211700  1
  C  665  1  0.23504000  0.71807500  0.41166900  1
  C  667  1  0.26058200  0.67270800  0.39308100  1
  C  668  1  0.27466300  0.69000600  0.36954800  1
  C  670  1  0.25636400  0.73574100  0.39341800  1
  C  673  1  0.69218300  0.61284800  0.51894400  1
  C  675  1  0.66713700  0.59429000  0.47332900  1
  C  676  1  0.65201400  0.57129100  0.49062400  1
  C  678  1  0.67100300  0.59441800  0.53653700  1
  C  681  1  0.19289000  0.29359400  0.98370800  1
  C  683  1  0.16678100  0.31157400  0.02895200  1
  C  684  1  0.15164000  0.33454600  0.01167700  1
  C  686  1  0.17172300  0.31187300  0.96587700  1
  C  689  1  0.94228500  0.18580000  0.41127600  1
  C  691  1  0.91677400  0.23130400  0.39307200  1
  C  692  1  0.90245700  0.21437900  0.36947800  1
  C  694  1  0.92089300  0.16836500  0.39295100  1
  C  697  1  0.44205600  0.71864700  0.09354700  1
  C  699  1  0.41649100  0.67303400  0.11165700  1
  C  700  1  0.40226300  0.69002400  0.13526900  1
  C  702  1  0.42058700  0.73607300  0.11182600  1
  C  705  1  0.44182400  0.71656600  0.91119600  1
  C  707  1  0.41782800  0.67087800  0.89184000  1
  C  708  1  0.40305400  0.68808600  0.86859800  1
  C  710  1  0.42001300  0.73387700  0.89314000  1
  C  713  1  0.94190600  0.19004000  0.59326400  1
  C  715  1  0.91812200  0.23593200  0.61262300  1
  C  716  1  0.90352700  0.21868500  0.63595900  1
  C  718  1  0.92002100  0.17281600  0.61134500  1
  C  721  1  0.23542400  0.71684000  0.59332000  1
  C  723  1  0.25915800  0.67085800  0.61240900  1
  C  724  1  0.27395700  0.68775200  0.63579700  1
  C  726  1  0.25725200  0.73387500  0.61155400  1
  C  729  1  0.73487200  0.18890100  0.91107300  1
  C  731  1  0.75833900  0.23507600  0.89190700  1
  C  732  1  0.77325000  0.21807900  0.86862400  1
  C  734  1  0.75704900  0.17194200  0.89309400  1
  C  737  1  0.48699300  0.11160400  0.48803600  1
  C  739  1  0.51020500  0.09187800  0.53409500  1
  C  740  1  0.52571800  0.06910000  0.51686100  1
  C  742  1  0.50902100  0.09366300  0.47095300  1
  C  745  1  0.98725900  0.79368200  0.01785700  1
  C  747  1  0.01000400  0.81370600  0.97185500  1
  C  748  1  0.02558400  0.83649400  0.98899700  1
  C  750  1  0.00946500  0.81155500  0.03488200  1
  C  753  1  0.19025100  0.11130500  0.02015300  1
  C  755  1  0.16663900  0.09227100  0.97408500  1
  C  756  1  0.15122600  0.06926600  0.99118000  1
  C  758  1  0.16825300  0.09321900  0.03722200  1
  C  761  1  0.68881800  0.79346700  0.48698200  1
  C  763  1  0.66651600  0.81317400  0.53320600  1
  C  764  1  0.65087400  0.83614400  0.51625900  1
  C  766  1  0.66656800  0.81156700  0.47016500  1
  C  769  1  0.11167800  0.43095400  0.91340100  1
  C  771  1  0.09831500  0.48320500  0.91256700  1
  C  772  1  0.06404700  0.47545600  0.91364400  1
  C  774  1  0.07740200  0.42316700  0.91278600  1
  C  777  1  0.61162900  0.47497300  0.59054500  1
  C  779  1  0.59838400  0.42269800  0.59104800  1
  C  780  1  0.56408900  0.43039300  0.59017000  1
  C  782  1  0.57733900  0.48265900  0.59134700  1
  C  785  1  0.86157700  0.10710600  0.27477400  1
  C  787  1  0.84812300  0.10650900  0.22257600  1
  C  788  1  0.81385700  0.10724300  0.23031200  1
  C  790  1  0.82731200  0.10669800  0.28252800  1
  C  793  1  0.36192200  0.79655400  0.23031600  1
  C  795  1  0.34862700  0.79720600  0.28255400  1
  C  796  1  0.31434400  0.79625200  0.27488900  1
  C  798  1  0.32762900  0.79680400  0.22264300  1
  C  801  1  0.06468600  0.47448800  0.09776500  1
  C  803  1  0.07818600  0.42234800  0.09803000  1
  C  804  1  0.11245600  0.43006300  0.09730200  1
  C  806  1  0.09895900  0.48221500  0.09825400  1
  C  809  1  0.56556300  0.43064200  0.40591000  1
  C  811  1  0.57902300  0.48279400  0.40526400  1
  C  812  1  0.61329800  0.47508800  0.40601200  1
  C  814  1  0.59983600  0.42292000  0.40542500  1
  C  817  1  0.31484300  0.79457500  0.73019000  1
  C  819  1  0.32779100  0.79516800  0.78248400  1
  C  820  1  0.36213100  0.79431300  0.77503000  1
  C  822  1  0.34918800  0.79505100  0.72272600  1
  C  825  1  0.81568000  0.11287400  0.77496600  1
  C  827  1  0.82859700  0.11211300  0.72266300  1
  C  828  1  0.86293900  0.11302900  0.73012000  1
  C  830  1  0.85002700  0.11245200  0.78244900  1
  C  833  1  0.61124800  0.93045100  0.40456300  1
  C  835  1  0.59824000  0.98267800  0.40404500  1
  C  836  1  0.56389400  0.97523500  0.40465800  1
  C  838  1  0.57690800  0.92298500  0.40396100  1
  C  841  1  0.11185700  0.97467200  0.10206200  1
  C  843  1  0.09863700  0.92244700  0.10232700  1
  C  844  1  0.06433400  0.93003700  0.10149400  1
  C  846  1  0.07755000  0.98225800  0.10239900  1
  C  849  1  0.36206400  0.59780800  0.77434700  1
  C  851  1  0.34831500  0.59727400  0.72216200  1
  C  852  1  0.31410700  0.59788500  0.73006700  1
  C  854  1  0.32785600  0.59767800  0.78226100  1
  C  857  1  0.86177200  0.30830300  0.73018400  1
  C  859  1  0.84800300  0.30855000  0.78238000  1
  C  860  1  0.81380400  0.30798900  0.77443900  1
  C  862  1  0.82757100  0.30839300  0.72224000  1
  C  865  1  0.56560300  0.97499000  0.60676100  1
  C  867  1  0.57898300  0.92284600  0.60736200  1
  C  868  1  0.61327300  0.93047900  0.60689100  1
  C  870  1  0.59989100  0.98265000  0.60701700  1
  C  873  1  0.06476600  0.93102000  0.89926400  1
  C  875  1  0.07824500  0.98315300  0.89944800  1
  C  876  1  0.11251800  0.97545300  0.89996400  1
  C  878  1  0.09903900  0.92332800  0.89904500  1
  C  881  1  0.81535300  0.30154200  0.23001400  1
  C  883  1  0.82882000  0.30226100  0.28223600  1
  C  884  1  0.86307200  0.30147700  0.27454300  1
  C  886  1  0.84960700  0.30185700  0.22229400  1
  C  889  1  0.31478000  0.60275700  0.27448900  1
  C  891  1  0.32801300  0.60239100  0.22219200  1
  C  892  1  0.36229300  0.60313700  0.22979300  1
  C  894  1  0.34906800  0.60248800  0.28208800  1
  C  897  1  0.22811800  0.53975600  0.84227400  1
  C  899  1  0.17846500  0.55422700  0.86869100  1
  C  900  1  0.19693600  0.57720100  0.88284900  1
  C  902  1  0.24655200  0.56257500  0.85675800  1
  C  905  1  0.72761100  0.36599900  0.66197800  1
  C  907  1  0.67812500  0.35154100  0.63529600  1
  C  908  1  0.69664300  0.32849100  0.62131800  1
  C  910  1  0.74609900  0.34312600  0.64764000  1
  C  913  1  0.97783700  0.03859900  0.16348500  1
  C  915  1  0.92877400  0.06650900  0.15020400  1
  C  916  1  0.94790000  0.08242600  0.12881300  1
  C  918  1  0.99691500  0.05476800  0.14221300  1
  C  921  1  0.47797300  0.86646700  0.34166300  1
  C  923  1  0.42902100  0.83827600  0.35463500  1
  C  924  1  0.44807300  0.82246700  0.37615100  1
  C  926  1  0.49697500  0.85042200  0.36308500  1
  C  929  1  0.44770900  0.53862200  0.66230000  1
  C  931  1  0.49726200  0.55320300  0.63572700  1
  C  932  1  0.47872100  0.57618400  0.62156100  1
  C  934  1  0.42920800  0.56144500  0.64779900  1
  C  937  1  0.94740400  0.36685400  0.84260000  1
  C  939  1  0.99701500  0.35236300  0.86912700  1
  C  940  1  0.97860600  0.32922500  0.88316500  1
  C  942  1  0.92902900  0.34386000  0.85696000  1
  C  945  1  0.69728400  0.03920800  0.34206500  1
  C  947  1  0.74635400  0.06717800  0.35507000  1
  C  948  1  0.72727700  0.08312600  0.37640000  1
  C  950  1  0.67825700  0.05536700  0.36331400  1
  C  953  1  0.19775900  0.86518400  0.16380700  1
  C  955  1  0.24666900  0.83712000  0.15052000  1
  C  956  1  0.22751900  0.82149000  0.12900900  1
  C  958  1  0.17865900  0.84932400  0.14238900  1
  C  961  1  0.94863300  0.36245800  0.16499600  1
  C  963  1  0.99863300  0.34916800  0.13851800  1
  C  964  1  0.98030900  0.32694600  0.12304500  1
  C  966  1  0.93039600  0.34033900  0.14926900  1
  C  969  1  0.44864600  0.54210000  0.33886600  1
  C  971  1  0.49887600  0.55555800  0.36488800  1
  C  972  1  0.48067900  0.57782500  0.38041700  1
  C  974  1  0.43054000  0.56427700  0.35463300  1
  C  977  1  0.19828000  0.86455800  0.83979200  1
  C  979  1  0.24732200  0.83704600  0.85397000  1
  C  980  1  0.22821500  0.82195900  0.87596500  1
  C  982  1  0.17921800  0.84921400  0.86167700  1
  C  985  1  0.69911300  0.04201900  0.66580600  1
  C  987  1  0.74801700  0.06967400  0.65155100  1
  C  988  1  0.72886800  0.08458100  0.62946400  1
  C  990  1  0.68001100  0.05717000  0.64381800  1
  C  993  1  0.73014800  0.36368600  0.33905700  1
  C  995  1  0.67989800  0.35023200  0.36511500  1
  C  996  1  0.69805000  0.32788200  0.38065500  1
  C  998  1  0.74821200  0.34142600  0.35483700  1
  C  1001  1  0.22899900  0.54149800  0.16514500  1
  C  1003  1  0.17894600  0.55487600  0.13875000  1
  C  1004  1  0.19721000  0.57718300  0.12325100  1
  C  1006  1  0.24717000  0.56372200  0.14941300  1
  C  1009  1  0.47924300  0.86393000  0.66597900  1
  C  1011  1  0.43024000  0.83658100  0.65145300  1
  C  1012  1  0.44950200  0.82154900  0.62959300  1
  C  1014  1  0.49845700  0.84864100  0.64422900  1
  C  1017  1  0.97974600  0.04296200  0.83993900  1
  C  1019  1  0.93076000  0.07057300  0.85394300  1
  C  1020  1  0.94977400  0.08539600  0.87611400  1
  C  1022  1  0.99870900  0.05800300  0.86203900  1
  C  1025  1  0.08460600  0.71854900  0.90484500  1
  C  1027  1  0.07469300  0.67198500  0.92987600  1
  C  1028  1  0.07320200  0.68729400  0.95750400  1
  C  1030  1  0.07934800  0.73416300  0.93204400  1
  C  1033  1  0.58394900  0.18767700  0.60020400  1
  C  1035  1  0.57466500  0.23375600  0.57409800  1
  C  1036  1  0.57379700  0.21794200  0.54674500  1
  C  1038  1  0.57936700  0.17160100  0.57318700  1
  C  1041  1  0.83483100  0.10806500  0.98799800  1
  C  1043  1  0.82833900  0.13476900  0.03406500  1
  C  1044  1  0.82626300  0.16195100  0.01785500  1
  C  1046  1  0.82873700  0.13477300  0.97176500  1
  C  1049  1  0.33579600  0.79741400  0.51703400  1
  C  1051  1  0.32929500  0.77051900  0.47110200  1
  C  1052  1  0.32761400  0.74336200  0.48737100  1
  C  1054  1  0.33007300  0.77071200  0.53339100  1
  C  1057  1  0.59220800  0.71799400  0.60056500  1
  C  1059  1  0.60072700  0.67163000  0.57497000  1
  C  1060  1  0.60161500  0.68724200  0.54742900  1
  C  1062  1  0.59688300  0.73385700  0.57335900  1
  C  1065  1  0.09378600  0.18734500  0.90468100  1
  C  1067  1  0.10299000  0.23445000  0.92859100  1
  C  1068  1  0.10447600  0.21975000  0.95661000  1
  C  1070  1  0.09887700  0.17234000  0.93232700  1
  C  1073  1  0.84158300  0.10840400  0.51728100  1
  C  1075  1  0.84728500  0.13497300  0.47095400  1
  C  1076  1  0.84954900  0.16221100  0.48693700  1
  C  1078  1  0.84791800  0.13516400  0.53324900  1
  C  1081  1  0.34162000  0.79742100  0.98791900  1
  C  1083  1  0.34780400  0.77053200  0.03399400  1
  C  1084  1  0.34999900  0.74341100  0.01782600  1
  C  1086  1  0.34782100  0.77078600  0.97169700  1
  C  1089  1  0.09485800  0.18875700  0.10063100  1
  C  1091  1  0.09641500  0.23336100  0.07085900  1
  C  1092  1  0.09387500  0.21577800  0.04469500  1
  C  1094  1  0.09601300  0.17121000  0.07430300  1
  C  1097  1  0.59490700  0.71717200  0.40382600  1
  C  1099  1  0.59579500  0.67169100  0.43213600  1
  C  1100  1  0.59237300  0.68834900  0.45881300  1
  C  1102  1  0.59520400  0.73383200  0.43075700  1
  C  1105  1  0.58067400  0.18826300  0.40361700  1
  C  1107  1  0.58018500  0.23402500  0.43127700  1
  C  1108  1  0.58312900  0.21756500  0.45819700  1
  C  1110  1  0.57993300  0.17183400  0.43075900  1
  C  1113  1  0.08126400  0.71644500  0.10054600  1
  C  1115  1  0.08131900  0.67136100  0.07176400  1
  C  1116  1  0.08464100  0.68845700  0.04528300  1
  C  1118  1  0.08092900  0.73350000  0.07379500  1
  C  1121  1  0.33950500  0.60986400  0.48803100  1
  C  1123  1  0.33378300  0.63703200  0.53402500  1
  C  1124  1  0.33266300  0.66409000  0.51751900  1
  C  1126  1  0.33440100  0.63657400  0.47149200  1
  C  1129  1  0.83869400  0.29497000  0.01662800  1
  C  1131  1  0.83275500  0.26819300  0.97045500  1
  C  1132  1  0.83127700  0.24102900  0.98675700  1
  C  1134  1  0.83328500  0.26819700  0.03299700  1
  C  1137  1  0.33765900  0.61027700  0.01647100  1
  C  1139  1  0.34310200  0.63748100  0.97036500  1
  C  1140  1  0.34463300  0.66450100  0.98679700  1
  C  1142  1  0.34315900  0.63692000  0.03290900  1
  C  1145  1  0.83788900  0.29513400  0.48779800  1
  C  1147  1  0.84316900  0.26845500  0.53419100  1
  C  1148  1  0.84481900  0.24124900  0.51808400  1
  C  1150  1  0.84349700  0.26832500  0.47165000  1
  N  642  1  0.98952300  0.61334600  0.01558700  1
  N  645  1  0.02371300  0.57414500  0.98285800  1
  N  650  1  0.48921300  0.29271800  0.48680200  1
  N  653  1  0.52427900  0.33166600  0.51917600  1
  N  658  1  0.73981600  0.21665100  0.09269600  1
  N  661  1  0.77376100  0.18435900  0.13255700  1
  N  666  1  0.24050800  0.68796700  0.41255000  1
  N  669  1  0.27441400  0.72022400  0.37272400  1
  N  674  1  0.68716900  0.61365400  0.48876100  1
  N  677  1  0.65240000  0.57421200  0.52087100  1
  N  682  1  0.18735200  0.29247300  0.01381600  1
  N  685  1  0.15264800  0.33181800  0.98142500  1
  N  690  1  0.93684400  0.21590100  0.41246600  1
  N  693  1  0.90268300  0.18412800  0.37246300  1
  N  698  1  0.43662100  0.68854700  0.09237800  1
  N  701  1  0.40247300  0.72027700  0.13232900  1
  N  706  1  0.43752700  0.68629900  0.91149700  1
  N  709  1  0.40229600  0.71824300  0.87228900  1
  N  714  1  0.93772700  0.22031800  0.59300900  1
  N  717  1  0.90259700  0.18852800  0.63230800  1
  N  722  1  0.23961700  0.68656400  0.59279300  1
  N  725  1  0.27484500  0.71794900  0.63233400  1
  N  730  1  0.73878100  0.21920600  0.91141300  1
  N  733  1  0.77444900  0.18790900  0.87224100  1
  N  738  1  0.49066200  0.11150900  0.51836100  1
  N  741  1  0.52681300  0.07290800  0.48670500  1
  N  746  1  0.99063000  0.79390300  0.98750300  1
  N  749  1  0.02696300  0.83249700  0.01912100  1
  N  754  1  0.18626000  0.11172000  0.98986100  1
  N  757  1  0.15034300  0.07268100  0.02137100  1
  N  762  1  0.68567300  0.79342800  0.51735900  1
  N  765  1  0.64926200  0.83242000  0.48612600  1
  N  770  1  0.12055800  0.46022400  0.91237100  1
  N  773  1  0.05518500  0.44617700  0.91270400  1
  N  778  1  0.62057900  0.44571700  0.59135500  1
  N  781  1  0.55514700  0.45963800  0.59135000  1
  N  786  1  0.87044900  0.10626000  0.24549700  1
  N  789  1  0.80499500  0.10649300  0.25959900  1
  N  794  1  0.37087200  0.79753400  0.25956800  1
  N  797  1  0.30539200  0.79693700  0.24562800  1
  N  802  1  0.05581100  0.44521400  0.09845100  1
  N  805  1  0.12131900  0.45933000  0.09830000  1
  N  810  1  0.55668100  0.45990300  0.40502400  1
  N  813  1  0.62218100  0.44581800  0.40520400  1
  N  818  1  0.30568300  0.79545600  0.75939300  1
  N  821  1  0.37128100  0.79517000  0.74582500  1
  N  826  1  0.80652200  0.11187300  0.74577200  1
  N  829  1  0.87209500  0.11226100  0.75933100  1
  N  834  1  0.62041000  0.95965100  0.40380100  1
  N  837  1  0.55475500  0.94603200  0.40372900  1
  N  842  1  0.12087200  0.94542900  0.10281300  1
  N  845  1  0.05531000  0.95927300  0.10239300  1
  N  850  1  0.37078200  0.59700200  0.74499800  1
  N  853  1  0.30539400  0.59740000  0.75942300  1
  N  858  1  0.87046900  0.30896800  0.75954400  1
  N  861  1  0.80510600  0.30857200  0.74507800  1
  N  866  1  0.55663300  0.94573500  0.60755900  1
  N  869  1  0.62223300  0.95974700  0.60743500  1
  N  874  1  0.05585600  0.96029900  0.89880900  1
  N  877  1  0.12143600  0.94618600  0.89905600  1
  N  882  1  0.80648100  0.30247000  0.25930600  1
  N  885  1  0.87193900  0.30210100  0.24523600  1
  N  890  1  0.30578600  0.60198900  0.24521600  1
  N  893  1  0.37129100  0.60238900  0.25906200  1
  N  898  1  0.19532700  0.53601900  0.84933700  1
  N  901  1  0.22969700  0.58042100  0.87629300  1
  N  906  1  0.69487700  0.36976900  0.65471100  1
  N  909  1  0.72936200  0.32526200  0.62804200  1
  N  914  1  0.94502000  0.04557300  0.16714600  1
  N  917  1  0.98065800  0.07585800  0.12566100  1
  N  922  1  0.44522900  0.85931000  0.33778700  1
  N  925  1  0.48074400  0.82923000  0.37952500  1
  N  930  1  0.48048700  0.53493300  0.65516100  1
  N  933  1  0.44598000  0.57934700  0.62818700  1
  N  938  1  0.98016000  0.37064900  0.84976200  1
  N  941  1  0.94587900  0.32594500  0.87650800  1
  N  946  1  0.73008300  0.04619700  0.33828900  1
  N  949  1  0.69454800  0.07650500  0.37969700  1
  N  954  1  0.23052000  0.85800400  0.16751600  1
  N  957  1  0.19482500  0.82827700  0.12579300  1
  N  962  1  0.98151600  0.36647700  0.15849900  1
  N  965  1  0.94748600  0.32341200  0.12911100  1
  N  970  1  0.48160000  0.53814300  0.34511200  1
  N  973  1  0.44779300  0.58129900  0.37459900  1
  N  978  1  0.23106600  0.85738300  0.83631900  1
  N  981  1  0.19548900  0.82871200  0.87894500  1
  N  986  1  0.73186100  0.04934100  0.66927800  1
  N  989  1  0.69618200  0.07767900  0.62648100  1
  N  994  1  0.69720700  0.36768300  0.34532200  1
  N  997  1  0.73092100  0.32435700  0.37480900  1
  N  1002  1  0.19610000  0.53748300  0.15870500  1
  N  1005  1  0.23003600  0.58071700  0.12927500  1
  N  1010  1  0.44640900  0.85680700  0.66921600  1
  N  1013  1  0.48227100  0.82824800  0.62684600  1
  N  1018  1  0.94702100  0.05030400  0.83630500  1
  N  1021  1  0.98243200  0.07845400  0.87928100  1
  N  1026  1  0.08063000  0.68829300  0.90461900  1
  N  1029  1  0.07390800  0.71758800  0.95722700  1
  N  1034  1  0.57999800  0.21793300  0.59977700  1
  N  1037  1  0.57451100  0.18765700  0.54758100  1
  N  1042  1  0.83273600  0.10893200  0.01836700  1
  N  1045  1  0.82474100  0.16057000  0.98758200  1
  N  1050  1  0.33351600  0.79644800  0.48668200  1
  N  1053  1  0.32624500  0.74484100  0.51764300  1
  N  1058  1  0.59580000  0.68770200  0.60048300  1
  N  1061  1  0.60136800  0.71754000  0.54792700  1
  N  1066  1  0.09748700  0.21761200  0.90368800  1
  N  1069  1  0.10401500  0.18944200  0.95713100  1
  N  1074  1  0.84322100  0.10917400  0.48688700  1
  N  1077  1  0.85159700  0.16091800  0.51719500  1
  N  1082  1  0.34353100  0.79644600  0.01829800  1
  N  1085  1  0.35172200  0.74493300  0.98756200  1
  N  1090  1  0.09663700  0.21901300  0.09782100  1
  N  1093  1  0.09552900  0.18556200  0.04734700  1
  N  1098  1  0.59681500  0.68685600  0.40565900  1
  N  1101  1  0.59401400  0.71864500  0.45722700  1
  N  1106  1  0.57916800  0.21861600  0.40501000  1
  N  1109  1  0.58112300  0.18727300  0.45701900  1
  N  1114  1  0.07984400  0.68613700  0.09838200  1
  N  1117  1  0.08254800  0.71871500  0.04717500  1
  N  1122  1  0.33737700  0.61102700  0.51840700  1
  N  1125  1  0.33125100  0.66255200  0.48721000  1
  N  1130  1  0.83660400  0.29406300  0.98623900  1
  N  1133  1  0.82985400  0.24237100  0.01707600  1
  N  1138  1  0.33947700  0.61147100  0.98607400  1
  N  1141  1  0.34634900  0.66290300  0.01709700  1
  N  1146  1  0.83959600  0.29429700  0.51821100  1
  N  1149  1  0.84667300  0.24253100  0.48777400  1
  O  17  1  0.02160300  0.55704900  0.91757900  1
  O  18  1  0.12572400  0.59672400  0.86666600  1
  O  37  1  0.52183400  0.34897300  0.58453000  1
  O  38  1  0.62521600  0.30923700  0.63701500  1
  O  57  1  0.77268400  0.11771500  0.14737500  1
  O  58  1  0.87707000  0.06792300  0.10675900  1
  O  77  1  0.27318400  0.78679500  0.35781900  1
  O  78  1  0.37720500  0.83732000  0.39791100  1
  O  97  1  0.65381400  0.55654600  0.58604000  1
  O  98  1  0.54997300  0.59569100  0.63778700  1
  O  117  1  0.15450900  0.34997000  0.91626500  1
  O  118  1  0.04983200  0.31001200  0.86662400  1
  O  137  1  0.90276900  0.11753400  0.35771900  1
  O  138  1  0.79800600  0.06848200  0.39854300  1
  O  157  1  0.40307900  0.78679900  0.14751400  1
  O  158  1  0.29832200  0.83618200  0.10706600  1
  O  177  1  0.15270300  0.34669400  0.08103700  1
  O  178  1  0.05145800  0.30677200  0.13787800  1
  O  197  1  0.65350300  0.55891700  0.42123600  1
  O  198  1  0.55159700  0.59804600  0.36474300  1
  O  217  1  0.40281000  0.78467700  0.85775100  1
  O  218  1  0.29915600  0.83627300  0.89736700  1
  O  237  1  0.90349300  0.12208900  0.64709400  1
  O  238  1  0.79977900  0.07010600  0.60813700  1
  O  257  1  0.52463000  0.34763200  0.41968000  1
  O  258  1  0.62706000  0.30784300  0.36478200  1
  O  277  1  0.02438900  0.55825000  0.08240400  1
  O  278  1  0.12625000  0.59735700  0.13864800  1
  O  297  1  0.27455300  0.78444200  0.64705900  1
  O  298  1  0.37872600  0.83579600  0.60774100  1
  O  317  1  0.77473500  0.12161100  0.85739400  1
  O  318  1  0.87883600  0.07071600  0.89719300  1
  O  337  1  0.52427400  0.05827000  0.41996200  1
  O  338  1  0.62666600  0.09832500  0.36488600  1
  O  357  1  0.02450400  0.84668600  0.08612900  1
  O  358  1  0.12702800  0.80645100  0.14071000  1
  O  377  1  0.27486800  0.61754900  0.64548300  1
  O  378  1  0.37873600  0.56630400  0.60416200  1
  O  397  1  0.77436500  0.28833100  0.85882100  1
  O  398  1  0.87858300  0.33876500  0.90056600  1
  O  417  1  0.15202900  0.05793100  0.08832500  1
  O  418  1  0.04831000  0.09794100  0.14088900  1
  O  437  1  0.65102800  0.84738200  0.41934600  1
  O  438  1  0.54860400  0.80753000  0.36459900  1
  O  457  1  0.40136800  0.61787700  0.85875600  1
  O  458  1  0.29691300  0.56753300  0.90046200  1
  O  477  1  0.90134500  0.28885200  0.64576500  1
  O  478  1  0.79650700  0.33836600  0.60398800  1
  O  497  1  0.65221100  0.84734400  0.58611400  1
  O  498  1  0.54972900  0.80554200  0.64080800  1
  O  517  1  0.15176700  0.05776700  0.92163100  1
  O  518  1  0.05032800  0.10064900  0.86608400  1
  O  537  1  0.90177700  0.28422400  0.35947200  1
  O  538  1  0.79818500  0.33700700  0.39909700  1
  O  557  1  0.40105900  0.62015800  0.14517900  1
  O  558  1  0.29721500  0.56813200  0.10522700  1
  O  577  1  0.02532700  0.84823100  0.91923500  1
  O  578  1  0.12787900  0.80618200  0.86525000  1
  O  597  1  0.52593700  0.05732500  0.58660000  1
  O  598  1  0.62849200  0.10000000  0.64017300  1
  O  617  1  0.77622800  0.28436100  0.14555900  1
  O  618  1  0.88021300  0.33614100  0.10519600  1
  O  637  1  0.27626200  0.62012700  0.35937700  1
  O  638  1  0.38076700  0.56848900  0.39905900  1
