# generated using pymatgen
data_H14C23N4
_symmetry_space_group_name_H-M   'P 1'
_cell_length_a   61.08040000
_cell_length_b   61.10450000
_cell_length_c   61.07780000
_cell_angle_alpha   89.99560000
_cell_angle_beta   89.98250000
_cell_angle_gamma   89.98430000
_symmetry_Int_Tables_number   1
_chemical_formula_structural   H14C23N4
_chemical_formula_sum   'H672 C1104 N192'
_cell_volume   227959.87749987
_cell_formula_units_Z   48
loop_
 _symmetry_equiv_pos_site_id
 _symmetry_equiv_pos_as_xyz
  1  'x, y, z'
loop_
 _atom_site_type_symbol
 _atom_site_label
 _atom_site_symmetry_multiplicity
 _atom_site_fract_x
 _atom_site_fract_y
 _atom_site_fract_z
 _atom_site_occupancy
  H  19  1  0.80793400  0.94428800  0.64321200  1
  H  20  1  0.82288500  0.91222000  0.62679900  1
  H  21  1  0.85348300  0.93943700  0.69483500  1
  H  22  1  0.87088900  0.82632400  0.58825300  1
  H  23  1  0.81941900  0.87258500  0.59165800  1
  H  24  1  0.80368200  0.85722300  0.55941600  1
  H  25  1  0.85496600  0.81111900  0.55616100  1
  H  26  1  0.91065500  0.82903700  0.62152700  1
  H  27  1  0.93955400  0.85551900  0.69054700  1
  H  28  1  0.90633900  0.87062800  0.67677400  1
  H  29  1  0.94384700  0.81406400  0.63552200  1
  H  36  1  0.86860600  0.90732000  0.67862100  1
  H  58  1  0.22203100  0.08551800  0.64288800  1
  H  59  1  0.20742400  0.11771200  0.62641600  1
  H  60  1  0.17614000  0.09067200  0.69422300  1
  H  61  1  0.15989700  0.20416400  0.58802800  1
  H  62  1  0.21122200  0.15772900  0.59126900  1
  H  63  1  0.22700500  0.17314800  0.55905200  1
  H  64  1  0.17586100  0.21941900  0.55597700  1
  H  65  1  0.12008200  0.20152400  0.62124800  1
  H  66  1  0.09120400  0.17507400  0.69031600  1
  H  67  1  0.12435500  0.15988300  0.67646600  1
  H  68  1  0.08694800  0.21658300  0.63532400  1
  H  75  1  0.16140400  0.12288700  0.67796600  1
  H  97  1  0.80853800  0.08548900  0.32740000  1
  H  98  1  0.82311900  0.11768300  0.34387700  1
  H  99  1  0.85444100  0.09065900  0.27607800  1
  H  100  1  0.87060600  0.20414000  0.38225600  1
  H  101  1  0.81929900  0.15771300  0.37905700  1
  H  102  1  0.80351900  0.17314900  0.41126800  1
  H  103  1  0.85464600  0.21941300  0.41429700  1
  H  104  1  0.91043900  0.20144100  0.34913800  1
  H  105  1  0.93935600  0.17509100  0.28004700  1
  H  106  1  0.90620400  0.15988500  0.29386200  1
  H  107  1  0.94357200  0.21651600  0.33509800  1
  H  114  1  0.86915000  0.12287200  0.29234100  1
  H  136  1  0.22190200  0.94515600  0.32755900  1
  H  137  1  0.20720000  0.91298800  0.34401200  1
  H  138  1  0.17616500  0.94006000  0.27611100  1
  H  139  1  0.15946200  0.82648500  0.38218100  1
  H  140  1  0.21094600  0.87271100  0.37890500  1
  H  141  1  0.22672200  0.85719300  0.41105400  1
  H  142  1  0.17542700  0.81112300  0.41418800  1
  H  143  1  0.11997900  0.82863600  0.34807400  1
  H  144  1  0.09078300  0.85713500  0.27998200  1
  H  145  1  0.12385300  0.87199900  0.29417200  1
  H  146  1  0.08687900  0.81384000  0.33360700  1
  H  153  1  0.16134000  0.90788700  0.29234300  1
  H  175  1  0.94471200  0.67275000  0.77889200  1
  H  176  1  0.91243300  0.65641600  0.79349600  1
  H  177  1  0.93957500  0.72422900  0.82458400  1
  H  178  1  0.82573900  0.61856800  0.84102500  1
  H  179  1  0.87152400  0.62200300  0.78910300  1
  H  180  1  0.85584000  0.58986500  0.77337400  1
  H  181  1  0.81026300  0.58659500  0.82512300  1
  H  182  1  0.82854300  0.65165300  0.88073800  1
  H  183  1  0.85493600  0.72077300  0.90943000  1
  H  184  1  0.87006100  0.70691800  0.87624500  1
  H  185  1  0.81355600  0.66572700  0.91390700  1
  H  192  1  0.90728500  0.70811000  0.83932000  1
  H  214  1  0.08654600  0.67309300  0.19223100  1
  H  215  1  0.11872600  0.65682100  0.17732200  1
  H  216  1  0.09141400  0.72489600  0.14689400  1
  H  217  1  0.20484500  0.61876000  0.12935200  1
  H  218  1  0.15919000  0.62234100  0.18138000  1
  H  219  1  0.17478900  0.59013300  0.19705800  1
  H  220  1  0.22024200  0.58670600  0.14520800  1
  H  221  1  0.20190600  0.65180700  0.08963600  1
  H  222  1  0.17562000  0.72096000  0.06089000  1
  H  223  1  0.16055900  0.70722100  0.09415800  1
  H  224  1  0.21682200  0.66576200  0.05639600  1
  H  231  1  0.12363200  0.70882300  0.13180700  1
  H  253  1  0.08598200  0.35772900  0.77875700  1
  H  254  1  0.11827800  0.37406500  0.79330900  1
  H  255  1  0.09114200  0.30627100  0.82447600  1
  H  256  1  0.20500600  0.41189100  0.84078800  1
  H  257  1  0.15920100  0.40852000  0.78891000  1
  H  258  1  0.17490800  0.44065000  0.77317400  1
  H  259  1  0.22050700  0.44385400  0.82488100  1
  H  260  1  0.20210900  0.37889400  0.88056400  1
  H  261  1  0.17554100  0.30989400  0.90941300  1
  H  262  1  0.16050000  0.32369200  0.87617400  1
  H  263  1  0.21701200  0.36487700  0.91378800  1
  H  270  1  0.12344400  0.32238800  0.83915700  1
  H  292  1  0.94447100  0.35768800  0.19170200  1
  H  293  1  0.91219800  0.37405000  0.17711400  1
  H  294  1  0.93943100  0.30631000  0.14589400  1
  H  295  1  0.82558600  0.41200800  0.12951400  1
  H  296  1  0.87137100  0.40861000  0.18141200  1
  H  297  1  0.85564100  0.44073800  0.19714800  1
  H  298  1  0.81006400  0.44396200  0.14542200  1
  H  299  1  0.82851900  0.37904200  0.08973200  1
  H  300  1  0.85486000  0.30988000  0.06104100  1
  H  301  1  0.86994600  0.32368900  0.09425100  1
  H  302  1  0.81357400  0.36501500  0.05653900  1
  H  309  1  0.90714700  0.32245500  0.13117300  1
  H  331  1  0.67452000  0.80989500  0.91594400  1
  H  332  1  0.65807100  0.82483700  0.88392100  1
  H  333  1  0.72583600  0.85582500  0.91134000  1
  H  334  1  0.62206700  0.86961400  0.79539900  1
  H  335  1  0.61821800  0.82665800  0.84963700  1
  H  336  1  0.58513200  0.81172800  0.83527700  1
  H  337  1  0.58901000  0.85457800  0.78129000  1
  H  338  1  0.65356700  0.91187200  0.79964400  1
  H  339  1  0.72164100  0.94152800  0.82764300  1
  H  340  1  0.70773500  0.90843100  0.84271300  1
  H  341  1  0.66774300  0.94496600  0.78463800  1
  H  348  1  0.70959300  0.87091600  0.87924500  1
  H  370  1  0.67438700  0.22099200  0.05456900  1
  H  371  1  0.65790600  0.20607500  0.08659400  1
  H  372  1  0.72569200  0.17503200  0.05921400  1
  H  373  1  0.62156600  0.16034100  0.17465500  1
  H  374  1  0.61819800  0.20489500  0.12169200  1
  H  375  1  0.58511100  0.21960600  0.13641600  1
  H  376  1  0.58856700  0.17507900  0.18905500  1
  H  377  1  0.65251800  0.11874600  0.17014800  1
  H  378  1  0.72165200  0.08960100  0.14418800  1
  H  379  1  0.70798200  0.12272400  0.12877100  1
  H  380  1  0.66639500  0.08568500  0.18541700  1
  H  387  1  0.70941700  0.15996800  0.09130700  1
  H  409  1  0.35569200  0.80985100  0.05448600  1
  H  410  1  0.37219400  0.82467900  0.08651700  1
  H  411  1  0.30458000  0.85603100  0.05910100  1
  H  412  1  0.40857000  0.86933700  0.17487100  1
  H  413  1  0.41224400  0.82635300  0.12064700  1
  H  414  1  0.44537600  0.81139900  0.13493400  1
  H  415  1  0.44165400  0.85429400  0.18889100  1
  H  416  1  0.37788200  0.91184200  0.17023100  1
  H  417  1  0.30897100  0.94133000  0.14410100  1
  H  418  1  0.32251800  0.90815300  0.12872700  1
  H  419  1  0.36411300  0.94497500  0.18547300  1
  H  426  1  0.32088100  0.87101500  0.09121700  1
  H  448  1  0.35628200  0.22095100  0.91576900  1
  H  449  1  0.37275700  0.20601100  0.88375200  1
  H  450  1  0.30495800  0.17504100  0.91114400  1
  H  451  1  0.40901700  0.16033300  0.79563100  1
  H  452  1  0.41240900  0.20484200  0.84862200  1
  H  453  1  0.44545400  0.21958800  0.83386300  1
  H  454  1  0.44197800  0.17511000  0.78119200  1
  H  455  1  0.37804800  0.11874200  0.80013000  1
  H  456  1  0.30897100  0.08958900  0.82618900  1
  H  457  1  0.32264900  0.12270300  0.84159600  1
  H  458  1  0.36416300  0.08568900  0.78487300  1
  H  465  1  0.32122500  0.15995300  0.87905600  1
  H  487  1  0.94620000  0.80978600  0.32595800  1
  H  488  1  0.91420200  0.82488600  0.34232700  1
  H  489  1  0.94191900  0.85568500  0.27457500  1
  H  490  1  0.82641400  0.87126600  0.37857900  1
  H  491  1  0.87902000  0.82627500  0.38185200  1
  H  492  1  0.86414700  0.81156600  0.41485900  1
  H  493  1  0.81185600  0.85651300  0.41151200  1
  H  494  1  0.83025600  0.91219500  0.34662300  1
  H  495  1  0.85796000  0.94163300  0.27831300  1
  H  496  1  0.87316100  0.90860100  0.29230900  1
  H  497  1  0.81514800  0.94519700  0.33238000  1
  H  504  1  0.90985100  0.87092600  0.29073500  1
  H  526  1  0.08500700  0.22163000  0.32587400  1
  H  527  1  0.11690800  0.20618800  0.34210700  1
  H  528  1  0.08898300  0.17618000  0.27409400  1
  H  529  1  0.20418200  0.15934800  0.37831200  1
  H  530  1  0.15168400  0.20447100  0.38152300  1
  H  531  1  0.16651200  0.21912000  0.41456300  1
  H  532  1  0.21870500  0.17404900  0.41128300  1
  H  533  1  0.20014900  0.11843300  0.34637900  1
  H  534  1  0.17244100  0.08899500  0.27809400  1
  H  535  1  0.15733500  0.12210800  0.29202200  1
  H  536  1  0.21515500  0.08536200  0.33221000  1
  H  543  1  0.12097400  0.16053900  0.29013800  1
  H  565  1  0.08524100  0.80902400  0.64455800  1
  H  566  1  0.11709500  0.82446300  0.62823500  1
  H  567  1  0.08922400  0.85456700  0.69624900  1
  H  568  1  0.20424700  0.87133100  0.59174300  1
  H  569  1  0.15174900  0.82623100  0.58869100  1
  H  570  1  0.16650800  0.81156100  0.55561900  1
  H  571  1  0.21870400  0.85660700  0.55873800  1
  H  572  1  0.20038000  0.91218700  0.62384200  1
  H  573  1  0.17263500  0.94164500  0.69212700  1
  H  574  1  0.15752700  0.90855100  0.67819200  1
  H  575  1  0.21539200  0.94524500  0.63801900  1
  H  582  1  0.12117100  0.87020300  0.68011800  1
  H  604  1  0.94551100  0.22154200  0.64473000  1
  H  605  1  0.91361500  0.20618600  0.62844900  1
  H  606  1  0.94155000  0.17588900  0.69633600  1
  H  607  1  0.82641900  0.15956200  0.59199200  1
  H  608  1  0.87893800  0.20464300  0.58889800  1
  H  609  1  0.86417000  0.21931300  0.55582000  1
  H  610  1  0.81197000  0.17426900  0.55900000  1
  H  611  1  0.83086300  0.11838600  0.62313400  1
  H  612  1  0.85680300  0.08911400  0.69219900  1
  H  613  1  0.87220300  0.12229000  0.67860600  1
  H  614  1  0.81562800  0.08529500  0.63691900  1
  H  621  1  0.90954700  0.16033100  0.68024000  1
  H  643  1  0.67339100  0.94445400  0.19240200  1
  H  644  1  0.65721000  0.91230900  0.17736700  1
  H  645  1  0.72520700  0.93994200  0.14700900  1
  H  646  1  0.61921400  0.82654100  0.12875000  1
  H  647  1  0.62280200  0.87175200  0.18112700  1
  H  648  1  0.59066900  0.85596400  0.19677000  1
  H  649  1  0.58723000  0.81094900  0.14457400  1
  H  650  1  0.65326700  0.82883900  0.08961000  1
  H  651  1  0.72159700  0.85695000  0.06059700  1
  H  652  1  0.70748100  0.87176100  0.09376500  1
  H  653  1  0.66764000  0.81412000  0.05643900  1
  H  660  1  0.70922900  0.90776400  0.13180000  1
  H  682  1  0.67314100  0.08557200  0.77905700  1
  H  683  1  0.65682800  0.11777600  0.79381700  1
  H  684  1  0.72463100  0.09038400  0.82477700  1
  H  685  1  0.61859000  0.20403200  0.84167500  1
  H  686  1  0.62224700  0.15809000  0.78995000  1
  H  687  1  0.59013200  0.17360000  0.77410400  1
  H  688  1  0.58661100  0.21939100  0.82563700  1
  H  689  1  0.65291400  0.20206200  0.88101700  1
  H  690  1  0.72133100  0.17403700  0.90990300  1
  H  691  1  0.70710700  0.15908500  0.87687400  1
  H  692  1  0.66740600  0.21693500  0.91406700  1
  H  699  1  0.70853300  0.12261400  0.83966400  1
  H  721  1  0.35716000  0.08634500  0.19212500  1
  H  722  1  0.37343000  0.11842000  0.17704600  1
  H  723  1  0.30535500  0.09095800  0.14675800  1
  H  724  1  0.41186300  0.20407300  0.12868400  1
  H  725  1  0.40814500  0.15823800  0.18050500  1
  H  726  1  0.44032800  0.17365600  0.19627500  1
  H  727  1  0.44391700  0.21934500  0.14464900  1
  H  728  1  0.37756400  0.20199800  0.08935400  1
  H  729  1  0.30913400  0.17406600  0.06045300  1
  H  730  1  0.32326100  0.15919600  0.09357200  1
  H  731  1  0.36317400  0.21678600  0.05622300  1
  H  738  1  0.32142700  0.12308400  0.13150500  1
  H  760  1  0.35708900  0.94440600  0.77792100  1
  H  761  1  0.37327800  0.91225700  0.79296100  1
  H  762  1  0.30531100  0.93995200  0.82336100  1
  H  763  1  0.41141600  0.82659200  0.84166300  1
  H  764  1  0.40770700  0.87174500  0.78923600  1
  H  765  1  0.43986800  0.85599900  0.77359800  1
  H  766  1  0.44343300  0.81103900  0.82584200  1
  H  767  1  0.37726500  0.82881300  0.88076700  1
  H  768  1  0.30894300  0.85698000  0.90977200  1
  H  769  1  0.32306100  0.87177400  0.87660100  1
  H  770  1  0.36289100  0.81411000  0.91394500  1
  H  777  1  0.32129600  0.90776900  0.83857600  1
  H  799  1  0.80937100  0.67504700  0.05535500  1
  H  800  1  0.82464500  0.65883100  0.08731300  1
  H  801  1  0.85505900  0.72660500  0.05929100  1
  H  802  1  0.86986200  0.62247600  0.17497800  1
  H  803  1  0.82673000  0.61904800  0.12085000  1
  H  804  1  0.81175200  0.58592400  0.13507300  1
  H  805  1  0.85478200  0.58937800  0.18894400  1
  H  806  1  0.91224100  0.65333900  0.17024300  1
  H  807  1  0.94135100  0.72257500  0.14463600  1
  H  808  1  0.90815400  0.70904800  0.12925100  1
  H  809  1  0.94537100  0.66707100  0.18547800  1
  H  816  1  0.87055300  0.71055900  0.09137900  1
  H  838  1  0.22122800  0.67477400  0.91499600  1
  H  839  1  0.20584600  0.65857400  0.88307700  1
  H  840  1  0.17570900  0.72650700  0.91105200  1
  H  841  1  0.16036800  0.62241900  0.79541300  1
  H  842  1  0.20353400  0.61886200  0.84950800  1
  H  843  1  0.21848700  0.58575200  0.83524000  1
  H  844  1  0.17543900  0.58932200  0.78138800  1
  H  845  1  0.11827100  0.65414300  0.79969800  1
  H  846  1  0.08887500  0.72251300  0.82724300  1
  H  847  1  0.12203700  0.70865700  0.84228000  1
  H  848  1  0.08513100  0.66825200  0.78474500  1
  H  855  1  0.16011600  0.71048500  0.87901800  1
  H  877  1  0.80949800  0.35577600  0.91510000  1
  H  878  1  0.82486200  0.37193000  0.88313900  1
  H  879  1  0.85503500  0.30405400  0.91120500  1
  H  880  1  0.87026500  0.40800400  0.79538700  1
  H  881  1  0.82715100  0.41159500  0.84954500  1
  H  882  1  0.81220600  0.44471200  0.83529200  1
  H  883  1  0.85520200  0.44110900  0.78137700  1
  H  884  1  0.91238800  0.37631500  0.79967800  1
  H  885  1  0.94177600  0.30792000  0.82716100  1
  H  886  1  0.90860700  0.32176200  0.84221900  1
  H  887  1  0.94553400  0.36222100  0.78470600  1
  H  894  1  0.87061200  0.32003000  0.87912600  1
  H  916  1  0.22087300  0.35591500  0.05525200  1
  H  917  1  0.20550000  0.37211800  0.08718600  1
  H  918  1  0.17542200  0.30415300  0.05928600  1
  H  919  1  0.16015900  0.40816400  0.17502400  1
  H  920  1  0.20325500  0.41178600  0.12085500  1
  H  921  1  0.21819000  0.44489300  0.13512400  1
  H  922  1  0.17521100  0.44125600  0.18904800  1
  H  923  1  0.11809600  0.37644600  0.17081100  1
  H  924  1  0.08868300  0.30810700  0.14326700  1
  H  925  1  0.12181800  0.32197200  0.12817000  1
  H  926  1  0.08498300  0.36232900  0.18582100  1
  H  933  1  0.15983800  0.32017800  0.09133900  1
  H  955  1  0.44615900  0.67470300  0.27946800  1
  H  956  1  0.41415000  0.65829700  0.29448000  1
  H  957  1  0.44169100  0.72600700  0.32542700  1
  H  958  1  0.32635000  0.62196400  0.34074000  1
  H  959  1  0.37887700  0.61872700  0.29562900  1
  H  960  1  0.36400400  0.58570700  0.28095800  1
  H  961  1  0.31180800  0.58904200  0.32604400  1
  H  962  1  0.33078100  0.65295700  0.38198800  1
  H  963  1  0.35668200  0.72204100  0.41118000  1
  H  964  1  0.37213900  0.70839200  0.37804200  1
  H  965  1  0.31547900  0.66680400  0.41505100  1
  H  972  1  0.40960800  0.70980800  0.34058500  1
  H  994  1  0.58437200  0.67478000  0.69086300  1
  H  995  1  0.61639500  0.65837000  0.67587200  1
  H  996  1  0.58887000  0.72610600  0.64492500  1
  H  997  1  0.70424600  0.62203400  0.62967400  1
  H  998  1  0.65167500  0.61878400  0.67473300  1
  H  999  1  0.66653500  0.58574700  0.68939600  1
  H  1000  1  0.71877600  0.58909400  0.64436300  1
  H  1001  1  0.69981500  0.65302500  0.58841200  1
  H  1002  1  0.67389700  0.72211400  0.55920400  1
  H  1003  1  0.65843900  0.70847100  0.59234100  1
  H  1004  1  0.71512000  0.66687000  0.55535000  1
  H  1011  1  0.62096900  0.70990200  0.62978800  1
  H  1033  1  0.58506600  0.35585200  0.27889900  1
  H  1034  1  0.61696000  0.37218400  0.29421900  1
  H  1035  1  0.58928900  0.30417700  0.32444800  1
  H  1036  1  0.70407800  0.40878800  0.34098100  1
  H  1037  1  0.65164200  0.41180200  0.29578000  1
  H  1038  1  0.66634600  0.44493100  0.28118700  1
  H  1039  1  0.71846100  0.44183000  0.32635700  1
  H  1040  1  0.69966200  0.37758800  0.38210900  1
  H  1041  1  0.67394900  0.30836600  0.41115900  1
  H  1042  1  0.65854500  0.32198700  0.37798800  1
  H  1043  1  0.71490400  0.36377200  0.41519600  1
  H  1050  1  0.62128000  0.32032100  0.33996800  1
  H  1072  1  0.44537800  0.35592400  0.69141100  1
  H  1073  1  0.41347700  0.37225500  0.67608700  1
  H  1074  1  0.44121200  0.30426600  0.64585000  1
  H  1075  1  0.32642100  0.40895700  0.62927400  1
  H  1076  1  0.37883800  0.41187700  0.67450200  1
  H  1077  1  0.36414500  0.44500400  0.68911400  1
  H  1078  1  0.31204700  0.44200200  0.64392300  1
  H  1079  1  0.33079200  0.37766900  0.58817400  1
  H  1080  1  0.35643100  0.30836000  0.55924700  1
  H  1081  1  0.37183800  0.32200200  0.59240000  1
  H  1082  1  0.31554600  0.36383200  0.55510200  1
  H  1089  1  0.40921300  0.32041100  0.63032200  1
  H  1111  1  0.30788700  0.67322800  0.55620000  1
  H  1112  1  0.32293000  0.65693600  0.58830500  1
  H  1113  1  0.35312000  0.72511200  0.56099100  1
  H  1114  1  0.37135800  0.61856300  0.67403200  1
  H  1115  1  0.31950900  0.62218100  0.62822000  1
  H  1116  1  0.30385900  0.58992600  0.64360800  1
  H  1117  1  0.35551300  0.58643400  0.68927100  1
  H  1118  1  0.41065600  0.65290300  0.67191300  1
  H  1119  1  0.43972000  0.72102600  0.64341500  1
  H  1120  1  0.40656900  0.70688400  0.62867700  1
  H  1121  1  0.44382600  0.66731900  0.68658000  1
  H  1128  1  0.36833600  0.70902100  0.59312800  1
  H  1150  1  0.72269400  0.67322700  0.41423500  1
  H  1151  1  0.70765000  0.65689900  0.38215600  1
  H  1152  1  0.67740900  0.72508900  0.40941000  1
  H  1153  1  0.65920000  0.61847400  0.29646400  1
  H  1154  1  0.71103400  0.62206300  0.34229400  1
  H  1155  1  0.72669400  0.58980300  0.32690700  1
  H  1156  1  0.67505500  0.58634300  0.28122800  1
  H  1157  1  0.61988600  0.65278900  0.29858100  1
  H  1158  1  0.59076800  0.72090800  0.32706100  1
  H  1159  1  0.62392300  0.70677100  0.34181100  1
  H  1160  1  0.58671100  0.66720300  0.28390100  1
  H  1167  1  0.66219100  0.70896400  0.37730000  1
  H  1189  1  0.30766400  0.35733600  0.41415300  1
  H  1190  1  0.32260000  0.37370800  0.38204300  1
  H  1191  1  0.35311400  0.30562600  0.40924800  1
  H  1192  1  0.37074900  0.41230300  0.29627400  1
  H  1193  1  0.31912600  0.40876200  0.34237900  1
  H  1194  1  0.30341400  0.44102900  0.32704100  1
  H  1195  1  0.35484700  0.44441900  0.28109200  1
  H  1196  1  0.41055000  0.37899900  0.29905700  1
  H  1197  1  0.43932400  0.30993200  0.32555500  1
  H  1198  1  0.40606000  0.32370500  0.34056400  1
  H  1199  1  0.44379500  0.36500200  0.28417600  1
  H  1206  1  0.36822800  0.32179700  0.37709400  1
  H  1228  1  0.72281600  0.35736100  0.55619200  1
  H  1229  1  0.70788800  0.37373700  0.58830700  1
  H  1230  1  0.67739900  0.30565000  0.56114000  1
  H  1231  1  0.65977400  0.41234000  0.67409700  1
  H  1232  1  0.71140900  0.40874600  0.62800700  1
  H  1233  1  0.72712400  0.44100400  0.64333200  1
  H  1234  1  0.67568000  0.44445000  0.68926800  1
  H  1235  1  0.61998800  0.37904000  0.67135300  1
  H  1236  1  0.59113400  0.31006400  0.64475400  1
  H  1237  1  0.62441000  0.32380800  0.62975900  1
  H  1238  1  0.58673400  0.36506800  0.68622100  1
  H  1245  1  0.66229100  0.32182700  0.59329900  1
  H  1255  1  0.83143400  0.02107400  0.67040200  1
  H  1256  1  0.78947400  0.04799900  0.71794500  1
  H  1257  1  0.78459500  0.98121100  0.70143000  1
  H  1261  1  0.75496900  0.00177800  0.72166500  1
  H  1262  1  0.82492900  0.06669600  0.70479900  1
  H  1263  1  0.81699100  0.98345600  0.65523800  1
  H  1270  1  0.20184300  0.00891300  0.66878000  1
  H  1271  1  0.23440500  0.98392200  0.72424200  1
  H  1272  1  0.24164500  0.05024500  0.70697400  1
  H  1276  1  0.24847400  0.03017800  0.74772500  1
  H  1277  1  0.20361000  0.96386000  0.70560300  1
  H  1278  1  0.21721400  0.04715300  0.65594300  1
  H  1285  1  0.82874400  0.00887000  0.30155900  1
  H  1286  1  0.79615500  0.98386400  0.24613300  1
  H  1287  1  0.78896700  0.05021600  0.26332300  1
  H  1291  1  0.78208900  0.03015700  0.22262000  1
  H  1292  1  0.82697600  0.96380600  0.26478500  1
  H  1293  1  0.81337200  0.04713700  0.31435600  1
  H  1300  1  0.20174900  0.02169000  0.30151000  1
  H  1301  1  0.23423300  0.04672500  0.24601200  1
  H  1302  1  0.24175300  0.98045200  0.26337300  1
  H  1306  1  0.24855400  0.00040000  0.22264800  1
  H  1307  1  0.20334000  0.06669300  0.26462400  1
  H  1308  1  0.21736100  0.98349500  0.31439800  1
  H  1315  1  0.02146300  0.69883800  0.79857200  1
  H  1316  1  0.04596000  0.75443200  0.76588200  1
  H  1317  1  0.97964100  0.73690600  0.75913300  1
  H  1321  1  0.99923500  0.77760700  0.75202100  1
  H  1322  1  0.06635000  0.73583600  0.79649700  1
  H  1323  1  0.98315800  0.68588600  0.78364500  1
  H  1330  1  0.00945500  0.70040300  0.16932400  1
  H  1331  1  0.98330200  0.74821600  0.21147700  1
  H  1332  1  0.05007700  0.73136000  0.21554600  1
  H  1336  1  0.02948500  0.75148100  0.24563200  1
  H  1337  1  0.96404000  0.73498800  0.17633500  1
  H  1338  1  0.04724700  0.68521800  0.18294800  1
  H  1345  1  0.00918700  0.33164700  0.79851400  1
  H  1346  1  0.98475500  0.27607400  0.76576600  1
  H  1347  1  0.05107700  0.29363000  0.75908100  1
  H  1351  1  0.03148500  0.25291600  0.75194100  1
  H  1352  1  0.96431000  0.29463400  0.79636800  1
  H  1353  1  0.04754000  0.34462100  0.78356400  1
  H  1360  1  0.02132200  0.33171500  0.17195700  1
  H  1361  1  0.04581900  0.27616500  0.20472800  1
  H  1362  1  0.97945300  0.29362400  0.21132500  1
  H  1366  1  0.99917100  0.25290600  0.21847500  1
  H  1367  1  0.06625700  0.29476300  0.17413500  1
  H  1368  1  0.98296900  0.34463800  0.18677100  1
  H  1375  1  0.69929200  0.82887000  0.99321500  1
  H  1376  1  0.75431600  0.79537400  0.01795300  1
  H  1377  1  0.73813100  0.79047700  0.95113000  1
  H  1381  1  0.77849100  0.78277500  0.97141600  1
  H  1382  1  0.73532000  0.82529200  0.03889900  1
  H  1383  1  0.68704000  0.81547800  0.95453900  1
  H  1390  1  0.69913600  0.20206300  0.97727200  1
  H  1391  1  0.75416200  0.23552900  0.95250800  1
  H  1392  1  0.73806600  0.24029700  0.01937500  1
  H  1396  1  0.77837800  0.24803100  0.99908200  1
  H  1397  1  0.73512400  0.20558400  0.93158500  1
  H  1398  1  0.68693600  0.21540800  0.01599500  1
  H  1405  1  0.33110000  0.82900900  0.97716500  1
  H  1406  1  0.27625200  0.79531500  0.95235200  1
  H  1407  1  0.29226600  0.79060500  0.01923400  1
  H  1411  1  0.25201200  0.78273500  0.99889600  1
  H  1412  1  0.29520400  0.82527300  0.93141100  1
  H  1413  1  0.34329600  0.81562400  0.01590000  1
  H  1420  1  0.33147800  0.20211000  0.99302900  1
  H  1421  1  0.27640300  0.23552200  0.01779000  1
  H  1422  1  0.29253400  0.24037000  0.95093800  1
  H  1426  1  0.25226000  0.24809600  0.97110500  1
  H  1427  1  0.29544700  0.20564000  0.03872700  1
  H  1428  1  0.34368600  0.21556200  0.95430900  1
  H  1435  1  0.02347400  0.82867100  0.30165600  1
  H  1436  1  0.04890500  0.79543800  0.24678600  1
  H  1437  1  0.98193900  0.79023400  0.26231200  1
  H  1441  1  0.00261500  0.78271900  0.22217800  1
  H  1442  1  0.06944100  0.82548500  0.26599100  1
  H  1443  1  0.98475800  0.81495300  0.31353100  1
  H  1450  1  0.00731400  0.19938500  0.30025400  1
  H  1451  1  0.98060500  0.24241300  0.25354800  1
  H  1452  1  0.04792600  0.24498500  0.26837200  1
  H  1456  1  0.02746100  0.27555900  0.24903100  1
  H  1457  1  0.96102100  0.20764100  0.26713100  1
  H  1458  1  0.04555000  0.21175600  0.31438200  1
  H  1465  1  0.00758100  0.83123400  0.67027900  1
  H  1466  1  0.98090200  0.78825200  0.71703900  1
  H  1467  1  0.04823100  0.78568400  0.70218800  1
  H  1471  1  0.02787300  0.75516500  0.72161400  1
  H  1472  1  0.96127300  0.82295300  0.70345200  1
  H  1473  1  0.04581700  0.81874300  0.65610700  1
  H  1480  1  0.02322900  0.19928000  0.67024000  1
  H  1481  1  0.04990800  0.24237700  0.71687600  1
  H  1482  1  0.98254700  0.24478900  0.70218800  1
  H  1486  1  0.00292900  0.27539900  0.72149600  1
  H  1487  1  0.06954200  0.20761600  0.70328500  1
  H  1488  1  0.98495300  0.21162700  0.65615600  1
  H  1495  1  0.70015300  0.02157400  0.16928800  1
  H  1496  1  0.74762800  0.04837000  0.21136900  1
  H  1497  1  0.73147900  0.98146200  0.21571800  1
  H  1501  1  0.75160600  0.00199400  0.24553100  1
  H  1502  1  0.73432500  0.06728400  0.17607800  1
  H  1503  1  0.68526600  0.98376700  0.18318200  1
  H  1510  1  0.69867200  0.00879200  0.79866200  1
  H  1511  1  0.75401100  0.98366500  0.76597400  1
  H  1512  1  0.73719900  0.05015600  0.75917900  1
  H  1516  1  0.77775600  0.02997700  0.75218300  1
  H  1517  1  0.73524600  0.96358200  0.79668500  1
  H  1518  1  0.68610100  0.04720300  0.78355300  1
  H  1525  1  0.33041000  0.00930300  0.16916400  1
  H  1526  1  0.28298100  0.98245500  0.21128700  1
  H  1527  1  0.29897000  0.04940800  0.21553800  1
  H  1531  1  0.27882400  0.02893800  0.24534600  1
  H  1532  1  0.29628400  0.96357600  0.17598800  1
  H  1533  1  0.34523900  0.04713100  0.18310700  1
  H  1540  1  0.33038600  0.02156600  0.80109000  1
  H  1541  1  0.28296300  0.04841800  0.75896000  1
  H  1542  1  0.29907300  0.98149100  0.75463700  1
  H  1546  1  0.27899800  0.00205900  0.72479700  1
  H  1547  1  0.29625800  0.06732200  0.79425100  1
  H  1548  1  0.34525600  0.98374400  0.78723700  1
  H  1555  1  0.83124600  0.70053300  0.97742500  1
  H  1556  1  0.78785400  0.74731500  0.95138500  1
  H  1557  1  0.78612500  0.73231100  0.01869200  1
  H  1561  1  0.75497300  0.75137900  0.99807600  1
  H  1562  1  0.82231800  0.73366500  0.93124100  1
  H  1563  1  0.81950100  0.68641800  0.01585800  1
  H  1570  1  0.19942600  0.70044000  0.99286300  1
  H  1571  1  0.24265600  0.74734600  0.01890000  1
  H  1572  1  0.24459700  0.73217800  0.95163500  1
  H  1576  1  0.27562900  0.75139400  0.97224600  1
  H  1577  1  0.20822800  0.73370800  0.03901000  1
  H  1578  1  0.21129900  0.68625100  0.95448200  1
  H  1585  1  0.83120200  0.33021600  0.99303300  1
  H  1586  1  0.78779800  0.28345200  0.01906800  1
  H  1587  1  0.78608500  0.29849400  0.95176900  1
  H  1591  1  0.75493000  0.27943400  0.97237200  1
  H  1592  1  0.82222800  0.29706700  0.03922000  1
  H  1593  1  0.81943700  0.34436300  0.95459800  1
  H  1600  1  0.19920000  0.33019200  0.97740500  1
  H  1601  1  0.24260200  0.28340300  0.95138700  1
  H  1602  1  0.24434200  0.29848300  0.01867700  1
  H  1606  1  0.27543600  0.27935200  0.99819200  1
  H  1607  1  0.20809400  0.29699600  0.93127500  1
  H  1608  1  0.21099200  0.34438500  0.01579100  1
  H  1615  1  0.52335400  0.69912800  0.29869600  1
  H  1616  1  0.54875200  0.75391300  0.26534300  1
  H  1617  1  0.48185400  0.73820700  0.25993200  1
  H  1621  1  0.50180800  0.77799900  0.25197800  1
  H  1622  1  0.56925900  0.73482300  0.29550900  1
  H  1623  1  0.48471300  0.68712400  0.28486900  1
  H  1630  1  0.50715500  0.69922800  0.67170900  1
  H  1631  1  0.48180300  0.75403100  0.70508200  1
  H  1632  1  0.54871800  0.73831600  0.71036400  1
  H  1636  1  0.52873200  0.77813800  0.71830800  1
  H  1637  1  0.46124600  0.73493900  0.67496300  1
  H  1638  1  0.54583900  0.68722600  0.68548800  1
  H  1645  1  0.50744800  0.33012500  0.30145300  1
  H  1646  1  0.48076500  0.28351400  0.25832200  1
  H  1647  1  0.54806900  0.29841100  0.25571300  1
  H  1651  1  0.52746800  0.27925900  0.22503000  1
  H  1652  1  0.46115800  0.29704000  0.29313500  1
  H  1653  1  0.54566200  0.34431800  0.28905400  1
  H  1660  1  0.52303200  0.33023500  0.66886500  1
  H  1661  1  0.54973400  0.28362400  0.71200500  1
  H  1662  1  0.48241900  0.29850200  0.71459000  1
  H  1666  1  0.50303300  0.27935200  0.74528200  1
  H  1667  1  0.56933500  0.29715100  0.67719000  1
  H  1668  1  0.48480400  0.34440900  0.68121900  1
  H  1675  1  0.19871500  0.82850000  0.49178700  1
  H  1676  1  0.25301600  0.79462000  0.51753800  1
  H  1677  1  0.23864500  0.79065300  0.45022200  1
  H  1681  1  0.27820500  0.78236700  0.47113600  1
  H  1682  1  0.23360900  0.82472600  0.53808200  1
  H  1683  1  0.18744700  0.81509300  0.45264700  1
  H  1690  1  0.19890100  0.20194200  0.47826800  1
  H  1691  1  0.25305500  0.23603000  0.45248500  1
  H  1692  1  0.23886300  0.23967500  0.51986400  1
  H  1696  1  0.27836000  0.24811000  0.49882900  1
  H  1697  1  0.23364400  0.20596700  0.43187700  1
  H  1698  1  0.18770000  0.21506700  0.51745100  1
  H  1705  1  0.83175800  0.82858200  0.47856000  1
  H  1706  1  0.77751300  0.79466300  0.45279100  1
  H  1707  1  0.79178200  0.79081000  0.52013600  1
  H  1711  1  0.75227100  0.78245800  0.49919900  1
  H  1712  1  0.79694900  0.82475200  0.43223000  1
  H  1713  1  0.84298600  0.81525900  0.51772000  1
  H  1720  1  0.83173600  0.20207400  0.49205100  1
  H  1721  1  0.77760100  0.23621000  0.51783600  1
  H  1722  1  0.79164900  0.23966000  0.45041500  1
  H  1726  1  0.75221000  0.24815900  0.47147200  1
  H  1727  1  0.79705800  0.20621700  0.53847800  1
  H  1728  1  0.84284900  0.21506800  0.45281100  1
  H  1735  1  0.52133300  0.83100200  0.80052600  1
  H  1736  1  0.54738500  0.78774000  0.75366000  1
  H  1737  1  0.47987800  0.78672300  0.76789300  1
  H  1741  1  0.50008200  0.75562400  0.74865000  1
  H  1742  1  0.56754900  0.82216300  0.76764900  1
  H  1743  1  0.48267000  0.81912500  0.81430100  1
  H  1750  1  0.50907300  0.20255700  0.80179000  1
  H  1751  1  0.48400300  0.23654100  0.74724300  1
  H  1752  1  0.55124500  0.23994200  0.76208000  1
  H  1756  1  0.53094600  0.24853300  0.72249300  1
  H  1757  1  0.46306300  0.20666400  0.76657900  1
  H  1758  1  0.54826200  0.21557600  0.81329700  1
  H  1765  1  0.50926300  0.83077000  0.16972100  1
  H  1766  1  0.48323200  0.78748400  0.21656600  1
  H  1767  1  0.55078200  0.78665000  0.20253000  1
  H  1771  1  0.53061100  0.75550800  0.22175800  1
  H  1772  1  0.46301700  0.82184500  0.20251800  1
  H  1773  1  0.54798500  0.81900900  0.15606300  1
  H  1780  1  0.52146900  0.20251100  0.16848400  1
  H  1781  1  0.54652500  0.23648600  0.22303000  1
  H  1782  1  0.47927100  0.23983300  0.20824400  1
  H  1786  1  0.49956000  0.24843900  0.24780600  1
  H  1787  1  0.56749600  0.20664600  0.20367200  1
  H  1788  1  0.48227800  0.21544000  0.15700200  1
  H  1795  1  0.33137800  0.70032700  0.47923600  1
  H  1796  1  0.28941700  0.74791200  0.45239500  1
  H  1797  1  0.28458200  0.73134000  0.51919600  1
  H  1801  1  0.25479600  0.75140300  0.49835300  1
  H  1802  1  0.32486300  0.73468800  0.43361700  1
  H  1803  1  0.31736400  0.68525100  0.51689000  1
  H  1810  1  0.69922600  0.70036500  0.49116800  1
  H  1811  1  0.74112100  0.74800200  0.51797000  1
  H  1812  1  0.74596500  0.73140300  0.45117700  1
  H  1816  1  0.77573200  0.75150000  0.47201200  1
  H  1817  1  0.70571000  0.73475600  0.53676800  1
  H  1818  1  0.71329300  0.68528000  0.45351800  1
  H  1825  1  0.33128000  0.33023900  0.49109900  1
  H  1826  1  0.28930100  0.28262500  0.51785600  1
  H  1827  1  0.28455000  0.29927700  0.45107000  1
  H  1831  1  0.25470800  0.27920800  0.47197000  1
  H  1832  1  0.32458900  0.29584900  0.53674600  1
  H  1833  1  0.31725700  0.34535300  0.45342600  1
  H  1840  1  0.69912500  0.33022600  0.47927500  1
  H  1841  1  0.74114000  0.28263800  0.45249500  1
  H  1842  1  0.74594400  0.29931600  0.51926700  1
  H  1846  1  0.77578700  0.27927300  0.49835700  1
  H  1847  1  0.70573800  0.29582300  0.43367600  1
  H  1848  1  0.71313400  0.34536200  0.51690900  1
  H  1855  1  0.83078000  0.52192800  0.17008200  1
  H  1856  1  0.78740000  0.54854000  0.21654000  1
  H  1857  1  0.78607700  0.48096700  0.20280100  1
  H  1861  1  0.75503000  0.50142900  0.22179200  1
  H  1862  1  0.82199800  0.56838700  0.20260800  1
  H  1863  1  0.81871800  0.48328400  0.15651800  1
  H  1870  1  0.19929400  0.50880700  0.17006800  1
  H  1871  1  0.24256900  0.48218500  0.21660000  1
  H  1872  1  0.24414200  0.54970600  0.20263100  1
  H  1876  1  0.27512500  0.52918400  0.22164600  1
  H  1877  1  0.20792600  0.46238400  0.20270500  1
  H  1878  1  0.21150500  0.54739900  0.15638500  1
  H  1885  1  0.83114100  0.50863800  0.80034500  1
  H  1886  1  0.78781100  0.48207300  0.75384700  1
  H  1887  1  0.78633000  0.54960400  0.76777800  1
  H  1891  1  0.75531600  0.52911500  0.74876500  1
  H  1892  1  0.82243600  0.46222100  0.76772700  1
  H  1893  1  0.81896800  0.54726600  0.81400900  1
  H  1900  1  0.19958000  0.52180400  0.80020700  1
  H  1901  1  0.24293200  0.54853300  0.75380200  1
  H  1902  1  0.24447800  0.48096900  0.76757500  1
  H  1906  1  0.27546000  0.50147700  0.74860200  1
  H  1907  1  0.20825600  0.56830100  0.76769100  1
  H  1908  1  0.21183200  0.48317900  0.81381400  1
  H  1915  1  0.69891800  0.52207600  0.67190800  1
  H  1916  1  0.75310900  0.54762000  0.70608600  1
  H  1917  1  0.73879700  0.48029100  0.70953900  1
  H  1921  1  0.77799000  0.50057600  0.71843400  1
  H  1922  1  0.73370900  0.56831600  0.67600600  1
  H  1923  1  0.68766200  0.48289100  0.68484300  1
  H  1930  1  0.69848200  0.50877200  0.29855800  1
  H  1931  1  0.75276900  0.48317400  0.26451800  1
  H  1932  1  0.73831000  0.55046100  0.26076700  1
  H  1936  1  0.77754200  0.53023000  0.25196800  1
  H  1937  1  0.73338700  0.46255200  0.29462700  1
  H  1938  1  0.68715900  0.54789600  0.28546700  1
  H  1945  1  0.33205600  0.50890600  0.67186100  1
  H  1946  1  0.27773200  0.48328300  0.70580300  1
  H  1947  1  0.29223500  0.55054200  0.70973700  1
  H  1951  1  0.25295600  0.53028900  0.71841500  1
  H  1952  1  0.29711700  0.46270900  0.67567600  1
  H  1953  1  0.34339900  0.54798600  0.68503800  1
  H  1960  1  0.33162500  0.52203800  0.29841900  1
  H  1961  1  0.27739400  0.54765000  0.26433300  1
  H  1962  1  0.29168400  0.48031200  0.26082100  1
  H  1966  1  0.25248000  0.50064300  0.25198800  1
  H  1967  1  0.29684300  0.56830800  0.29439400  1
  H  1968  1  0.34285800  0.48286900  0.28545700  1
  C  1  1  0.84694400  0.85121300  0.59333800  1
  C  2  1  0.84745800  0.90639700  0.65087800  1
  C  3  1  0.90483600  0.85131300  0.64775900  1
  C  4  1  0.85582600  0.91483000  0.67082600  1
  C  5  1  0.84690600  0.93373600  0.68051200  1
  C  6  1  0.82958800  0.94508600  0.67036100  1
  C  7  1  0.82079900  0.93662700  0.65071400  1
  C  8  1  0.82959700  0.91760100  0.64116600  1
  C  9  1  0.82723800  0.85965400  0.58443800  1
  C  10  1  0.81785500  0.85060000  0.56544100  1
  C  11  1  0.82801400  0.83300900  0.55451000  1
  C  12  1  0.84745200  0.82419800  0.56342700  1
  C  13  1  0.85673700  0.83317700  0.58248600  1
  C  14  1  0.91628500  0.83472400  0.63623700  1
  C  15  1  0.93592000  0.82587400  0.64439400  1
  C  16  1  0.94451000  0.83297500  0.66457500  1
  C  17  1  0.93337100  0.84960800  0.67615500  1
  C  18  1  0.91385600  0.85860500  0.66785900  1
  C  30  1  0.88512400  0.86051700  0.63928100  1
  C  32  1  0.85661500  0.86051200  0.61246600  1
  C  34  1  0.85683000  0.88750800  0.64081000  1
  C  40  1  0.18376300  0.17917700  0.59302200  1
  C  41  1  0.18275100  0.12369700  0.65035400  1
  C  42  1  0.12586800  0.17921600  0.64745800  1
  C  43  1  0.17417300  0.11529400  0.67022900  1
  C  44  1  0.18286800  0.09630900  0.67993600  1
  C  45  1  0.20020400  0.08484900  0.66993100  1
  C  46  1  0.20915900  0.09323500  0.65031500  1
  C  47  1  0.20057500  0.11235000  0.64073000  1
  C  48  1  0.20344300  0.17070400  0.58408800  1
  C  49  1  0.21284800  0.17978600  0.56510500  1
  C  50  1  0.20273600  0.19744300  0.55423700  1
  C  51  1  0.18333600  0.20629500  0.56319900  1
  C  52  1  0.17402800  0.19728500  0.58223600  1
  C  53  1  0.11445900  0.19585400  0.63597200  1
  C  54  1  0.09485900  0.20475000  0.64417700  1
  C  55  1  0.08627700  0.19765500  0.66437000  1
  C  56  1  0.09738900  0.18098800  0.67592100  1
  C  57  1  0.11686200  0.17193800  0.66757800  1
  C  69  1  0.14551700  0.16993100  0.63892100  1
  C  71  1  0.17404300  0.16983800  0.61211200  1
  C  73  1  0.17359300  0.14270200  0.64031400  1
  C  79  1  0.84674800  0.17915600  0.37728100  1
  C  80  1  0.84779400  0.12367400  0.31994700  1
  C  81  1  0.90467300  0.17917300  0.32289600  1
  C  82  1  0.85638300  0.11527700  0.30007400  1
  C  83  1  0.84770300  0.09629300  0.29036200  1
  C  84  1  0.83037200  0.08482900  0.30036200  1
  C  85  1  0.82140400  0.09321100  0.31997500  1
  C  86  1  0.82997500  0.11232400  0.32956400  1
  C  87  1  0.82707000  0.17069300  0.38622500  1
  C  88  1  0.81766500  0.17979000  0.40520100  1
  C  89  1  0.82777600  0.19744400  0.41606100  1
  C  90  1  0.84717000  0.20629000  0.40708500  1
  C  91  1  0.85647600  0.19726900  0.38805400  1
  C  92  1  0.91607200  0.19579000  0.33441100  1
  C  93  1  0.93567200  0.20469300  0.32622900  1
  C  94  1  0.94426900  0.19762400  0.30603200  1
  C  95  1  0.93316500  0.18097900  0.29445000  1
  C  96  1  0.91369100  0.17192300  0.30277200  1
  C  108  1  0.88501800  0.16988700  0.33141100  1
  C  110  1  0.85647200  0.16980300  0.35820000  1
  C  112  1  0.85694300  0.14267500  0.32999500  1
  C  118  1  0.18340600  0.85137700  0.37716900  1
  C  119  1  0.18259700  0.90704700  0.32001400  1
  C  120  1  0.12557100  0.85177900  0.32256500  1
  C  121  1  0.17409400  0.91545800  0.30011300  1
  C  122  1  0.18284500  0.93441800  0.29041800  1
  C  123  1  0.20016700  0.94585000  0.30045700  1
  C  124  1  0.20904700  0.93745700  0.32010100  1
  C  125  1  0.20040800  0.91836000  0.32967600  1
  C  126  1  0.20313300  0.85975200  0.38607400  1
  C  127  1  0.21254100  0.85060600  0.40501900  1
  C  128  1  0.20238900  0.83297900  0.41589400  1
  C  129  1  0.18294200  0.82421700  0.40695900  1
  C  130  1  0.17363200  0.83328900  0.38795100  1
  C  131  1  0.11426500  0.83475000  0.33356600  1
  C  132  1  0.09470000  0.82599700  0.32512100  1
  C  133  1  0.08602500  0.83367000  0.30517600  1
  C  134  1  0.09702600  0.85076500  0.29415200  1
  C  135  1  0.11647000  0.85962900  0.30271000  1
  C  147  1  0.14521300  0.86091200  0.33127500  1
  C  149  1  0.17369400  0.86080100  0.35811700  1
  C  151  1  0.17337800  0.88805700  0.33002600  1
  C  157  1  0.85043700  0.62363900  0.81685300  1
  C  158  1  0.90645400  0.68044300  0.81806600  1
  C  159  1  0.85078200  0.67788600  0.87484300  1
  C  160  1  0.91490300  0.70029900  0.82661100  1
  C  161  1  0.93393300  0.70992400  0.81791700  1
  C  162  1  0.94539800  0.69984500  0.80063000  1
  C  163  1  0.93699400  0.68022200  0.79173800  1
  C  164  1  0.91782900  0.67072200  0.80031500  1
  C  165  1  0.85863400  0.61480300  0.79701000  1
  C  166  1  0.84939200  0.59589400  0.78762500  1
  C  167  1  0.83190500  0.58498800  0.79798500  1
  C  168  1  0.82327200  0.59388800  0.81750100  1
  C  169  1  0.83241800  0.61285700  0.82676700  1
  C  170  1  0.83419400  0.66639100  0.88631900  1
  C  171  1  0.82533800  0.67459800  0.90593400  1
  C  172  1  0.83242100  0.69480300  0.91446700  1
  C  173  1  0.84903000  0.70637000  0.90328000  1
  C  174  1  0.85804300  0.69802300  0.88379100  1
  C  186  1  0.86004400  0.66933300  0.85519100  1
  C  188  1  0.85995000  0.64261300  0.82659800  1
  C  190  1  0.88734700  0.67054000  0.82716900  1
  C  196  1  0.18022600  0.62391500  0.15358400  1
  C  197  1  0.12456000  0.68100900  0.15286000  1
  C  198  1  0.17975800  0.67812800  0.09555600  1
  C  199  1  0.11608700  0.70095200  0.14452000  1
  C  200  1  0.09712600  0.71055600  0.15342000  1
  C  201  1  0.08575200  0.70030700  0.17066500  1
  C  202  1  0.09422300  0.68064700  0.17940300  1
  C  203  1  0.11331200  0.67118700  0.17063400  1
  C  204  1  0.17203400  0.61509500  0.17343900  1
  C  205  1  0.18122600  0.59614200  0.18279200  1
  C  206  1  0.19865400  0.58517300  0.17239300  1
  C  207  1  0.20727100  0.59404600  0.15285700  1
  C  208  1  0.19817600  0.61306200  0.14362100  1
  C  209  1  0.19626200  0.66654600  0.08404000  1
  C  210  1  0.20508100  0.67468000  0.06437900  1
  C  211  1  0.19803400  0.69489700  0.05583100  1
  C  212  1  0.18149000  0.70654000  0.06704300  1
  C  213  1  0.17251800  0.69826500  0.08658200  1
  C  225  1  0.17058500  0.66966700  0.11529000  1
  C  227  1  0.17077300  0.64294800  0.14388800  1
  C  229  1  0.14354500  0.67106500  0.14354900  1
  C  235  1  0.18029700  0.40684900  0.81663700  1
  C  236  1  0.12426400  0.35004800  0.81789100  1
  C  237  1  0.17982900  0.35268800  0.87471800  1
  C  238  1  0.11582000  0.33019600  0.82645200  1
  C  239  1  0.09677900  0.32057200  0.81779500  1
  C  240  1  0.08530300  0.33065300  0.80052100  1
  C  241  1  0.09370900  0.35026200  0.79159700  1
  C  242  1  0.11288100  0.35976400  0.80014700  1
  C  243  1  0.17210300  0.41570000  0.79680200  1
  C  244  1  0.18135900  0.43460700  0.78741400  1
  C  245  1  0.19886200  0.44549400  0.79775900  1
  C  246  1  0.20749200  0.43657400  0.81726600  1
  C  247  1  0.19833100  0.41761000  0.82653300  1
  C  248  1  0.19641900  0.36418300  0.88618000  1
  C  249  1  0.20522900  0.35600900  0.90582700  1
  C  250  1  0.19808300  0.33584500  0.91441300  1
  C  251  1  0.18148100  0.32427400  0.90323400  1
  C  252  1  0.17251800  0.33258600  0.88371200  1
  C  264  1  0.17061600  0.36120900  0.85503300  1
  C  266  1  0.17076400  0.38788500  0.82639500  1
  C  268  1  0.14336400  0.35996300  0.82698100  1
  C  274  1  0.85028700  0.40695500  0.15367400  1
  C  275  1  0.90627200  0.35008000  0.15248200  1
  C  276  1  0.85071100  0.35276100  0.09564100  1
  C  277  1  0.91474200  0.33023900  0.14390600  1
  C  278  1  0.93376800  0.32059800  0.15258800  1
  C  279  1  0.94520900  0.33065200  0.16989600  1
  C  280  1  0.93677400  0.35024500  0.17883700  1
  C  281  1  0.91761600  0.35976400  0.17026400  1
  C  282  1  0.85847300  0.41579900  0.17351300  1
  C  283  1  0.84920400  0.43470200  0.18290100  1
  C  284  1  0.83169800  0.44559100  0.17255300  1
  C  285  1  0.82308400  0.43668600  0.15303700  1
  C  286  1  0.83226000  0.41772400  0.14376800  1
  C  287  1  0.83416300  0.36429700  0.08414900  1
  C  288  1  0.82532800  0.35611800  0.06452000  1
  C  289  1  0.83240300  0.33590700  0.05598200  1
  C  290  1  0.84896900  0.32429600  0.06718700  1
  C  291  1  0.85795900  0.33261500  0.08669000  1
  C  303  1  0.85994200  0.36128300  0.11531300  1
  C  305  1  0.85981300  0.38797800  0.14392900  1
  C  307  1  0.88718600  0.36001300  0.14337200  1
  C  313  1  0.62376600  0.84961900  0.82395600  1
  C  314  1  0.68199200  0.84959400  0.87822500  1
  C  315  1  0.67924300  0.90649100  0.82266400  1
  C  316  1  0.70187300  0.85806000  0.88669600  1
  C  317  1  0.71156300  0.84916500  0.90560300  1
  C  318  1  0.70151900  0.83174200  0.91688100  1
  C  319  1  0.68194600  0.82284700  0.90837000  1
  C  320  1  0.67237100  0.83164400  0.88936000  1
  C  321  1  0.61253500  0.83260600  0.83504800  1
  C  322  1  0.59298300  0.82377900  0.82667200  1
  C  323  1  0.58429600  0.83133800  0.80669200  1
  C  324  1  0.59529300  0.84831100  0.79549200  1
  C  325  1  0.61470400  0.85728200  0.80400900  1
  C  326  1  0.66808700  0.91766400  0.80564100  1
  C  327  1  0.67635800  0.93723900  0.79676700  1
  C  328  1  0.69626500  0.94607900  0.80432200  1
  C  329  1  0.70747500  0.93518700  0.82137400  1
  C  330  1  0.69910100  0.91571100  0.83034600  1
  C  342  1  0.67058400  0.88694300  0.83203500  1
  C  344  1  0.64324800  0.85898900  0.83273500  1
  C  346  1  0.67190700  0.85895500  0.85935500  1
  C  352  1  0.62351500  0.18116200  0.14669400  1
  C  353  1  0.68181700  0.18130800  0.09231400  1
  C  354  1  0.67887400  0.12438200  0.14793900  1
  C  355  1  0.70170800  0.17282900  0.08385300  1
  C  356  1  0.71141900  0.18170700  0.06494400  1
  C  357  1  0.70138800  0.19913400  0.05365400  1
  C  358  1  0.68180600  0.20804300  0.06215400  1
  C  359  1  0.67221100  0.19925900  0.08116600  1
  C  360  1  0.61240600  0.19855100  0.13607200  1
  C  361  1  0.59286700  0.20725100  0.14466900  1
  C  362  1  0.58406100  0.19915700  0.16439600  1
  C  363  1  0.59492600  0.18176900  0.17508100  1
  C  364  1  0.61432600  0.17297100  0.16637700  1
  C  365  1  0.66726300  0.11308000  0.16457100  1
  C  366  1  0.67534900  0.09351100  0.17359600  1
  C  367  1  0.69553500  0.08482200  0.16662100  1
  C  368  1  0.70724300  0.09584900  0.14999700  1
  C  369  1  0.69901800  0.11531200  0.14082500  1
  C  381  1  0.67034900  0.14393200  0.13845700  1
  C  383  1  0.64299800  0.17190500  0.13776800  1
  C  385  1  0.67170100  0.17194500  0.11117700  1
  C  391  1  0.40678200  0.84932700  0.14632900  1
  C  392  1  0.34838200  0.84955300  0.09223100  1
  C  393  1  0.35156600  0.90634200  0.14796300  1
  C  394  1  0.32853900  0.85812300  0.08376100  1
  C  395  1  0.31881700  0.84929300  0.06484300  1
  C  396  1  0.32879100  0.83183000  0.05355200  1
  C  397  1  0.34832000  0.82283000  0.06206600  1
  C  398  1  0.35792600  0.83156500  0.08108400  1
  C  399  1  0.41797400  0.83229900  0.13521700  1
  C  400  1  0.43755100  0.82346400  0.14354700  1
  C  401  1  0.44629500  0.83103000  0.16349700  1
  C  402  1  0.43534300  0.84802900  0.17470600  1
  C  403  1  0.41590400  0.85699500  0.16624600  1
  C  404  1  0.36318000  0.91758300  0.16462400  1
  C  405  1  0.35516000  0.93719200  0.17363000  1
  C  406  1  0.33504100  0.94598600  0.16660000  1
  C  407  1  0.32332900  0.93501200  0.14995200  1
  C  408  1  0.33148300  0.91551000  0.14080700  1
  C  420  1  0.36003200  0.88677300  0.13846400  1
  C  422  1  0.38728800  0.85872800  0.13760400  1
  C  424  1  0.35852200  0.85885400  0.11110000  1
  C  430  1  0.40707800  0.18113500  0.82360200  1
  C  431  1  0.34883700  0.18126500  0.87804000  1
  C  432  1  0.35173000  0.12436600  0.82238500  1
  C  433  1  0.32894200  0.17280700  0.88650800  1
  C  434  1  0.31923600  0.18170100  0.90541300  1
  C  435  1  0.32927000  0.19912000  0.91669700  1
  C  436  1  0.34885700  0.20800500  0.90819200  1
  C  437  1  0.35844800  0.19920900  0.88918200  1
  C  438  1  0.41817800  0.19852500  0.83422100  1
  C  439  1  0.43770100  0.20723800  0.82560800  1
  C  440  1  0.44648100  0.19917800  0.80585400  1
  C  441  1  0.43563800  0.18177400  0.79518700  1
  C  442  1  0.41625200  0.17296300  0.80390400  1
  C  443  1  0.36332000  0.11306900  0.80573500  1
  C  444  1  0.35522300  0.09351000  0.79670800  1
  C  445  1  0.33505600  0.08481800  0.80371400  1
  C  446  1  0.32336200  0.09584600  0.82035000  1
  C  447  1  0.33159500  0.11529900  0.82952400  1
  C  459  1  0.36026500  0.14390500  0.83187000  1
  C  461  1  0.38761400  0.17186600  0.83254800  1
  C  463  1  0.35893700  0.17189800  0.85917000  1
  C  469  1  0.85420400  0.85022000  0.37658000  1
  C  470  1  0.90866200  0.84963900  0.31836600  1
  C  471  1  0.85321600  0.90675100  0.32088400  1
  C  472  1  0.91721600  0.85803400  0.29847900  1
  C  473  1  0.93611100  0.84904800  0.28883400  1
  C  474  1  0.94729800  0.83158300  0.29891500  1
  C  475  1  0.93869300  0.82275200  0.31848800  1
  C  476  1  0.91969600  0.83164400  0.32802000  1
  C  477  1  0.86468800  0.83272200  0.38764900  1
  C  478  1  0.85600900  0.82402800  0.40715200  1
  C  479  1  0.83631900  0.83222500  0.41594800  1
  C  480  1  0.82580200  0.84975900  0.40515700  1
  C  481  1  0.83458800  0.85855100  0.38578900  1
  C  482  1  0.83620900  0.91794200  0.33206000  1
  C  483  1  0.82726600  0.93746300  0.32374700  1
  C  484  1  0.83473600  0.94624300  0.30377600  1
  C  485  1  0.85176300  0.93533300  0.29253500  1
  C  486  1  0.86080900  0.91590200  0.30095500  1
  C  498  1  0.86261600  0.88723600  0.32959200  1
  C  500  1  0.86318500  0.85940600  0.35708700  1
  C  502  1  0.88982300  0.85912400  0.32842300  1
  C  508  1  0.17645700  0.18046700  0.37628200  1
  C  509  1  0.12228200  0.18157900  0.31794200  1
  C  510  1  0.17724300  0.12392500  0.32061000  1
  C  511  1  0.11368800  0.17342200  0.29797500  1
  C  512  1  0.09487000  0.18264500  0.28839200  1
  C  513  1  0.08379600  0.20006000  0.29868100  1
  C  514  1  0.09247200  0.20869500  0.31829200  1
  C  515  1  0.11138700  0.19958400  0.32774400  1
  C  516  1  0.16598500  0.19798300  0.38734300  1
  C  517  1  0.17463500  0.20664100  0.40686600  1
  C  518  1  0.19428300  0.19838900  0.41568700  1
  C  519  1  0.20478600  0.18083300  0.40490800  1
  C  520  1  0.19602500  0.17207400  0.38552100  1
  C  521  1  0.19418100  0.11268000  0.33182700  1
  C  522  1  0.20306700  0.09311500  0.32355900  1
  C  523  1  0.19559900  0.08433400  0.30359600  1
  C  524  1  0.17862500  0.09528600  0.29232000  1
  C  525  1  0.16963600  0.11476400  0.30069600  1
  C  537  1  0.16794400  0.14351800  0.32925800  1
  C  539  1  0.16750900  0.17133900  0.35675800  1
  C  541  1  0.14100300  0.17187200  0.32798800  1
  C  547  1  0.17652900  0.85022500  0.59385900  1
  C  548  1  0.12247000  0.84911900  0.65234500  1
  C  549  1  0.17745200  0.90671500  0.64960400  1
  C  550  1  0.11389100  0.85730300  0.67231400  1
  C  551  1  0.09508700  0.84809400  0.68194100  1
  C  552  1  0.08402700  0.83064200  0.67171400  1
  C  553  1  0.09269200  0.82197900  0.65210100  1
  C  554  1  0.11158200  0.83109200  0.64259500  1
  C  555  1  0.16603500  0.83271300  0.58282800  1
  C  556  1  0.17464400  0.82404400  0.56328600  1
  C  557  1  0.19427500  0.83228000  0.55440700  1
  C  558  1  0.20480200  0.84982900  0.56515600  1
  C  559  1  0.19607500  0.85860700  0.58456100  1
  C  560  1  0.19440800  0.91794300  0.63839400  1
  C  561  1  0.20330100  0.93749700  0.64667000  1
  C  562  1  0.19581300  0.94628700  0.66662800  1
  C  563  1  0.17883300  0.93534600  0.67790400  1
  C  564  1  0.16984100  0.91587900  0.66952100  1
  C  576  1  0.16813200  0.88714300  0.64094600  1
  C  578  1  0.16762500  0.85935400  0.61341200  1
  C  580  1  0.14117400  0.85881900  0.64225100  1
  C  586  1  0.85415100  0.18066100  0.59408000  1
  C  587  1  0.90823800  0.18148200  0.65252000  1
  C  588  1  0.85306200  0.12398800  0.64949900  1
  C  589  1  0.91683600  0.17323700  0.67245000  1
  C  590  1  0.93566900  0.18240200  0.68205600  1
  C  591  1  0.94674200  0.19985500  0.67183300  1
  C  592  1  0.93805500  0.20857700  0.65226300  1
  C  593  1  0.91913900  0.19951300  0.64278200  1
  C  594  1  0.86464600  0.19817100  0.58304500  1
  C  595  1  0.85603200  0.20683900  0.56350400  1
  C  596  1  0.83640400  0.19859200  0.55464100  1
  C  597  1  0.82587100  0.18105500  0.56540600  1
  C  598  1  0.83459700  0.17228300  0.58480300  1
  C  599  1  0.83646000  0.11268500  0.63785300  1
  C  600  1  0.82744400  0.09309800  0.64588900  1
  C  601  1  0.83442200  0.08436200  0.66604500  1
  C  602  1  0.85101600  0.09538100  0.67779300  1
  C  603  1  0.86017300  0.11487700  0.66962100  1
  C  615  1  0.86248900  0.14358900  0.64102600  1
  C  617  1  0.86306100  0.17149400  0.61360600  1
  C  619  1  0.88950000  0.17184400  0.64243900  1
  C  625  1  0.62436900  0.85095700  0.15316000  1
  C  626  1  0.68141200  0.90665900  0.15286300  1
  C  627  1  0.67894600  0.85175100  0.09535300  1
  C  628  1  0.70134000  0.91521400  0.14456100  1
  C  629  1  0.71088700  0.93415600  0.15353000  1
  C  630  1  0.70060700  0.94542300  0.17082900  1
  C  631  1  0.68097800  0.93685000  0.17955100  1
  C  632  1  0.67156800  0.91778200  0.17070500  1
  C  633  1  0.61555800  0.85897500  0.17309200  1
  C  634  1  0.59664600  0.84967200  0.18242700  1
  C  635  1  0.58570300  0.83229600  0.17193700  1
  C  636  1  0.59454100  0.82388200  0.15229400  1
  C  637  1  0.61351900  0.83308900  0.14307600  1
  C  638  1  0.66783100  0.83486600  0.08394800  1
  C  639  1  0.67621800  0.82615900  0.06433400  1
  C  640  1  0.69622700  0.83371800  0.05571000  1
  C  641  1  0.70736600  0.85067300  0.06680100  1
  C  642  1  0.69886200  0.85950100  0.08630100  1
  C  654  1  0.67028200  0.86080900  0.11506200  1
  C  656  1  0.64341600  0.86047400  0.14353800  1
  C  658  1  0.67150000  0.88772300  0.14344300  1
  C  664  1  0.62378800  0.17928600  0.81761600  1
  C  665  1  0.68086100  0.12359400  0.81842000  1
  C  666  1  0.67856300  0.17910500  0.87529300  1
  C  667  1  0.70072800  0.11508600  0.82690400  1
  C  668  1  0.71034200  0.09609200  0.81812000  1
  C  669  1  0.70024900  0.08472700  0.80078200  1
  C  670  1  0.68063400  0.09321300  0.79192800  1
  C  671  1  0.67114000  0.11233500  0.80060500  1
  C  672  1  0.61499100  0.17097500  0.79781000  1
  C  673  1  0.59606400  0.18011400  0.78836300  1
  C  674  1  0.58510500  0.19767100  0.79854900  1
  C  675  1  0.59390700  0.20634600  0.81809600  1
  C  676  1  0.61290100  0.19728400  0.82744500  1
  C  677  1  0.66750400  0.19606900  0.88664500  1
  C  678  1  0.67596200  0.20486500  0.90618600  1
  C  679  1  0.69599400  0.19732400  0.91477700  1
  C  680  1  0.70709700  0.18031700  0.90371500  1
  C  681  1  0.69852100  0.17140000  0.88429800  1
  C  693  1  0.66979900  0.16988700  0.85571000  1
  C  695  1  0.64285600  0.16990100  0.82732800  1
  C  697  1  0.67093400  0.14262900  0.82764400  1
  C  703  1  0.40662500  0.17939500  0.15280300  1
  C  704  1  0.34924300  0.12412300  0.15255100  1
  C  705  1  0.35184600  0.17913800  0.09512700  1
  C  706  1  0.32928700  0.11562300  0.14427300  1
  C  707  1  0.31968700  0.09671300  0.15326900  1
  C  708  1  0.32993400  0.08543100  0.17057700  1
  C  709  1  0.34958900  0.09395800  0.17927200  1
  C  710  1  0.35905400  0.11298600  0.17039800  1
  C  711  1  0.41543000  0.17108200  0.17260700  1
  C  712  1  0.43439400  0.18016900  0.18201200  1
  C  713  1  0.44539200  0.19766800  0.17177700  1
  C  714  1  0.43659400  0.20633700  0.15222200  1
  C  715  1  0.41755900  0.19732600  0.14291500  1
  C  716  1  0.36297600  0.19601500  0.08371700  1
  C  717  1  0.35458000  0.20476300  0.06412600  1
  C  718  1  0.33454600  0.19724900  0.05552800  1
  C  719  1  0.32337900  0.18031800  0.06663700  1
  C  720  1  0.33189300  0.17145200  0.08610900  1
  C  732  1  0.36053300  0.17000400  0.11478700  1
  C  734  1  0.38749400  0.17008100  0.14315600  1
  C  736  1  0.35922100  0.14301800  0.14310500  1
  C  742  1  0.40620100  0.85097600  0.81722800  1
  C  743  1  0.34909600  0.90663600  0.81748800  1
  C  744  1  0.35159300  0.85174400  0.87501800  1
  C  745  1  0.32917400  0.91520600  0.82580100  1
  C  746  1  0.31962200  0.93415100  0.81682900  1
  C  747  1  0.32989200  0.94540300  0.79951600  1
  C  748  1  0.34951000  0.93681000  0.79078100  1
  C  749  1  0.35892400  0.91774000  0.79962900  1
  C  750  1  0.41498600  0.85899100  0.79728500  1
  C  751  1  0.43391800  0.84971500  0.78795600  1
  C  752  1  0.44490500  0.83237000  0.79846000  1
  C  753  1  0.43608900  0.82395200  0.81811200  1
  C  754  1  0.41709300  0.83313500  0.82732800  1
  C  755  1  0.36270800  0.83485800  0.88643300  1
  C  756  1  0.35431600  0.82615600  0.90604700  1
  C  757  1  0.33430800  0.83373200  0.91466700  1
  C  758  1  0.32316600  0.85068300  0.90356400  1
  C  759  1  0.33167700  0.85950700  0.88406800  1
  C  771  1  0.36025800  0.86079700  0.85531000  1
  C  773  1  0.38713600  0.86047400  0.82684500  1
  C  775  1  0.35902100  0.88770600  0.82692100  1
  C  781  1  0.84977000  0.62439100  0.14650300  1
  C  782  1  0.84936800  0.68288200  0.09269400  1
  C  783  1  0.90654000  0.67982800  0.14822500  1
  C  784  1  0.85765900  0.70277100  0.08406900  1
  C  785  1  0.84854100  0.71233800  0.06518700  1
  C  786  1  0.83110200  0.70210300  0.05410600  1
  C  787  1  0.82234200  0.68257000  0.06281100  1
  C  788  1  0.83135100  0.67313600  0.08177200  1
  C  789  1  0.83271100  0.61326200  0.13538400  1
  C  790  1  0.82386900  0.59367900  0.14366900  1
  C  791  1  0.83144700  0.58488400  0.16359200  1
  C  792  1  0.84851300  0.59574200  0.17478000  1
  C  793  1  0.85749800  0.61518200  0.16635600  1
  C  794  1  0.91789600  0.66810800  0.16474200  1
  C  795  1  0.93750400  0.67611300  0.17375500  1
  C  796  1  0.94619700  0.69631700  0.16687500  1
  C  797  1  0.93510800  0.70814600  0.15037800  1
  C  798  1  0.91559700  0.70000800  0.14122600  1
  C  810  1  0.88697300  0.67135700  0.13872100  1
  C  812  1  0.85908900  0.64395100  0.13786600  1
  C  814  1  0.85892200  0.67284000  0.11149200  1
  C  820  1  0.18047500  0.62426900  0.82387700  1
  C  821  1  0.18120000  0.68271700  0.87770900  1
  C  822  1  0.12381900  0.67999300  0.82247900  1
  C  823  1  0.17299500  0.70265300  0.88631700  1
  C  824  1  0.18218400  0.71221500  0.90516000  1
  C  825  1  0.19960000  0.70192400  0.91623200  1
  C  826  1  0.20827800  0.68234100  0.90754300  1
  C  827  1  0.19920100  0.67291300  0.88861300  1
  C  828  1  0.19753300  0.61310200  0.83497300  1
  C  829  1  0.20636300  0.59352600  0.82666000  1
  C  830  1  0.19877300  0.58476400  0.80673200  1
  C  831  1  0.18170700  0.59565600  0.79556400  1
  C  832  1  0.17273100  0.61509500  0.80401900  1
  C  833  1  0.11253700  0.66872500  0.80560700  1
  C  834  1  0.09293500  0.67695900  0.79675400  1
  C  835  1  0.08415600  0.69694100  0.80418400  1
  C  836  1  0.09516400  0.70828200  0.82106900  1
  C  837  1  0.11467600  0.69994100  0.83002300  1
  C  849  1  0.14339200  0.67134400  0.83183100  1
  C  851  1  0.17119600  0.64384200  0.83254100  1
  C  853  1  0.17156500  0.67269100  0.85895000  1
  C  859  1  0.85018100  0.40616700  0.82387900  1
  C  860  1  0.84951900  0.34779000  0.87779100  1
  C  861  1  0.90683400  0.35044400  0.82244300  1
  C  862  1  0.85773700  0.32787200  0.88642700  1
  C  863  1  0.84857100  0.31834600  0.90530800  1
  C  864  1  0.83114800  0.32864600  0.91637400  1
  C  865  1  0.82245600  0.34820700  0.90765400  1
  C  866  1  0.83152200  0.35760600  0.88869800  1
  C  867  1  0.83313800  0.41734500  0.83499600  1
  C  868  1  0.82431200  0.43692600  0.82669100  1
  C  869  1  0.83189100  0.44568100  0.80675100  1
  C  870  1  0.84893200  0.43477200  0.79555400  1
  C  871  1  0.85791000  0.41533300  0.80400400  1
  C  872  1  0.91811800  0.36172800  0.80557200  1
  C  873  1  0.93772400  0.35350100  0.79670800  1
  C  874  1  0.94650600  0.33351800  0.80412800  1
  C  875  1  0.93548600  0.32215500  0.82100000  1
  C  876  1  0.91597300  0.33048800  0.82996600  1
  C  888  1  0.88726800  0.35909500  0.83181800  1
  C  890  1  0.85946600  0.38660100  0.83254600  1
  C  892  1  0.85913300  0.35778300  0.85899600  1
  C  898  1  0.18023000  0.40634700  0.14652200  1
  C  899  1  0.18088800  0.34796300  0.09260400  1
  C  900  1  0.12361700  0.35061700  0.14799300  1
  C  901  1  0.17269500  0.32802100  0.08401200  1
  C  902  1  0.18187100  0.31846300  0.06515100  1
  C  903  1  0.19927100  0.32875400  0.05405000  1
  C  904  1  0.20793200  0.34834500  0.06272100  1
  C  905  1  0.19886100  0.35777600  0.08166200  1
  C  906  1  0.19726800  0.41752900  0.13540700  1
  C  907  1  0.20608700  0.43710400  0.14371900  1
  C  908  1  0.19850200  0.44585200  0.16366300  1
  C  909  1  0.18147700  0.43493000  0.17486500  1
  C  910  1  0.17250500  0.41549900  0.16640400  1
  C  911  1  0.11236000  0.36187000  0.16490200  1
  C  912  1  0.09277300  0.35363000  0.17378900  1
  C  913  1  0.08398700  0.33366200  0.16635400  1
  C  914  1  0.09497900  0.32232900  0.14944200  1
  C  915  1  0.11447300  0.33067600  0.14045300  1
  C  927  1  0.14316500  0.35927800  0.13859600  1
  C  929  1  0.17095100  0.38678400  0.13784800  1
  C  931  1  0.17128000  0.35797100  0.11139500  1
  C  937  1  0.35410500  0.62397400  0.31963100  1
  C  938  1  0.40851200  0.68221500  0.31925800  1
  C  939  1  0.35298800  0.67930100  0.37636900  1
  C  940  1  0.41701800  0.70208800  0.32769800  1
  C  941  1  0.43592100  0.71175500  0.31876200  1
  C  942  1  0.44716500  0.70170500  0.30130900  1
  C  943  1  0.43860900  0.68214800  0.29242800  1
  C  944  1  0.41960500  0.67259400  0.30127100  1
  C  945  1  0.36456700  0.61291400  0.30210900  1
  C  946  1  0.35588300  0.59341600  0.29343300  1
  C  947  1  0.33622900  0.58460800  0.30169500  1
  C  948  1  0.32572300  0.59540600  0.31923800  1
  C  949  1  0.33450900  0.61476500  0.32800600  1
  C  950  1  0.33635400  0.66768900  0.38766400  1
  C  951  1  0.32730600  0.67575800  0.40723600  1
  C  952  1  0.33426300  0.69592700  0.41594000  1
  C  953  1  0.35089300  0.70763600  0.40492400  1
  C  954  1  0.36008700  0.69943000  0.38545400  1
  C  966  1  0.36246500  0.67079700  0.35680000  1
  C  968  1  0.36308900  0.64343900  0.32883700  1
  C  970  1  0.38967400  0.67212400  0.32869700  1
  C  976  1  0.67646800  0.62403700  0.65075500  1
  C  977  1  0.62205100  0.68229800  0.65110900  1
  C  978  1  0.67760000  0.67937600  0.59402200  1
  C  979  1  0.61355000  0.70217800  0.64266700  1
  C  980  1  0.59463900  0.71185000  0.65159200  1
  C  981  1  0.58338300  0.70179700  0.66903300  1
  C  982  1  0.59193300  0.68223000  0.67791200  1
  C  983  1  0.61094500  0.67267200  0.66908200  1
  C  984  1  0.66599100  0.61297200  0.66826200  1
  C  985  1  0.67466900  0.59346500  0.67693600  1
  C  986  1  0.69433000  0.58465200  0.66868500  1
  C  987  1  0.70485500  0.59546000  0.65116100  1
  C  988  1  0.69607600  0.61483000  0.64239700  1
  C  989  1  0.69424000  0.66775900  0.58273400  1
  C  990  1  0.70328900  0.67582600  0.56316200  1
  C  991  1  0.69632700  0.69599800  0.55445500  1
  C  992  1  0.67969300  0.70771200  0.56546700  1
  C  993  1  0.67049600  0.69950600  0.58493600  1
  C  1005  1  0.66811800  0.67087200  0.61358800  1
  C  1007  1  0.66748700  0.64351000  0.64155000  1
  C  1009  1  0.64089800  0.67220300  0.64168000  1
  C  1015  1  0.67639000  0.40666000  0.31981900  1
  C  1016  1  0.62246500  0.34808000  0.31886200  1
  C  1017  1  0.67758100  0.35115800  0.37639700  1
  C  1018  1  0.61394600  0.32811200  0.32708400  1
  C  1019  1  0.59512100  0.31847700  0.31794200  1
  C  1020  1  0.58398000  0.32870400  0.30053100  1
  C  1021  1  0.59258800  0.34830800  0.29182400  1
  C  1022  1  0.61150100  0.35781700  0.30086200  1
  C  1023  1  0.66589600  0.41769200  0.30230200  1
  C  1024  1  0.67447600  0.43725700  0.29367600  1
  C  1025  1  0.69406100  0.44616400  0.30198500  1
  C  1026  1  0.70458300  0.43540900  0.31953900  1
  C  1027  1  0.69590000  0.41597400  0.32825500  1
  C  1028  1  0.69412300  0.36283100  0.38775700  1
  C  1029  1  0.70313600  0.35478000  0.40734600  1
  C  1030  1  0.69623300  0.33457500  0.41601000  1
  C  1031  1  0.67969600  0.32280200  0.40493400  1
  C  1032  1  0.67053400  0.33099100  0.38544200  1
  C  1044  1  0.66815500  0.35963900  0.35679700  1
  C  1046  1  0.66752400  0.38709800  0.32893200  1
  C  1048  1  0.64117200  0.35819900  0.32850800  1
  C  1054  1  0.35409300  0.40677500  0.65045400  1
  C  1055  1  0.40800200  0.34816000  0.65143300  1
  C  1056  1  0.35283800  0.35120900  0.59393600  1
  C  1057  1  0.41653700  0.32819600  0.64321100  1
  C  1058  1  0.43536700  0.31856300  0.65235600  1
  C  1059  1  0.44649600  0.32878800  0.66977000  1
  C  1060  1  0.43786700  0.34838400  0.67848200  1
  C  1061  1  0.41894900  0.35789200  0.66944100  1
  C  1062  1  0.36458500  0.41778100  0.66798400  1
  C  1063  1  0.35601500  0.43735100  0.67661700  1
  C  1064  1  0.33643000  0.44627800  0.66832000  1
  C  1065  1  0.32591800  0.43555900  0.65074000  1
  C  1066  1  0.33459500  0.41612200  0.64201400  1
  C  1067  1  0.33631700  0.36289600  0.58254900  1
  C  1068  1  0.32729400  0.35482900  0.56297500  1
  C  1069  1  0.33417600  0.33459700  0.55434700  1
  C  1070  1  0.35069000  0.32280800  0.56545400  1
  C  1071  1  0.35986100  0.33101500  0.58492900  1
  C  1083  1  0.36228000  0.35971000  0.61351700  1
  C  1085  1  0.36294400  0.38720000  0.64134400  1
  C  1087  1  0.38929000  0.35828200  0.64178300  1
  C  1093  1  0.34721500  0.62375600  0.64936500  1
  C  1094  1  0.34735300  0.68116300  0.59408500  1
  C  1095  1  0.40494700  0.67845800  0.64884900  1
  C  1096  1  0.35560100  0.70115000  0.58563300  1
  C  1097  1  0.34662600  0.71076200  0.56671600  1
  C  1098  1  0.32937900  0.70049000  0.55538100  1
  C  1099  1  0.32069800  0.68081100  0.56386400  1
  C  1100  1  0.32954400  0.67133800  0.58290700  1
  C  1101  1  0.32743100  0.61491100  0.64106100  1
  C  1102  1  0.31809400  0.59590500  0.65013100  1
  C  1103  1  0.32838900  0.58490500  0.66759700  1
  C  1104  1  0.34790600  0.59376100  0.67628100  1
  C  1105  1  0.35714300  0.61283600  0.66728800  1
  C  1106  1  0.41634400  0.66741300  0.66579300  1
  C  1107  1  0.43595400  0.67582500  0.67446900  1
  C  1108  1  0.44459100  0.69577800  0.66679700  1
  C  1109  1  0.43351800  0.70683600  0.64976900  1
  C  1110  1  0.41401700  0.69831700  0.64098900  1
  C  1122  1  0.38523700  0.66979200  0.63982300  1
  C  1124  1  0.35682700  0.64289000  0.64002800  1
  C  1126  1  0.35681200  0.67115800  0.61295700  1
  C  1132  1  0.68333600  0.62365300  0.32113700  1
  C  1133  1  0.68319800  0.68110900  0.37636500  1
  C  1134  1  0.62557000  0.67834400  0.32164500  1
  C  1135  1  0.67494000  0.70110400  0.38479700  1
  C  1136  1  0.68392200  0.71074300  0.40369000  1
  C  1137  1  0.70118100  0.70048400  0.41503100  1
  C  1138  1  0.70987400  0.68080000  0.40656800  1
  C  1139  1  0.70101900  0.67130100  0.38754600  1
  C  1140  1  0.70311900  0.61480000  0.32944800  1
  C  1141  1  0.71246100  0.59579100  0.32037900  1
  C  1142  1  0.70217500  0.58479900  0.30290800  1
  C  1143  1  0.68265900  0.59366400  0.29422100  1
  C  1144  1  0.67341700  0.61274300  0.30321100  1
  C  1145  1  0.61418500  0.66729700  0.30470100  1
  C  1146  1  0.59457300  0.67570800  0.29601700  1
  C  1147  1  0.58591900  0.69565900  0.30368300  1
  C  1148  1  0.59698000  0.70671800  0.32071300  1
  C  1149  1  0.61648300  0.69820000  0.32950200  1
  C  1161  1  0.64529000  0.66968700  0.33067000  1
  C  1163  1  0.67371800  0.64279100  0.33047000  1
  C  1165  1  0.67373300  0.67108300  0.35751100  1
  C  1171  1  0.34672400  0.40715100  0.32108200  1
  C  1172  1  0.34712700  0.34957900  0.37620200  1
  C  1173  1  0.40464800  0.35274800  0.32128500  1
  C  1174  1  0.35546900  0.32961600  0.38462000  1
  C  1175  1  0.34656000  0.31995900  0.40354700  1
  C  1176  1  0.32928100  0.33016000  0.41492000  1
  C  1177  1  0.32050000  0.34980900  0.40646500  1
  C  1178  1  0.32929300  0.35933100  0.38742200  1
  C  1179  1  0.32698400  0.41601700  0.32948700  1
  C  1180  1  0.31761400  0.43502700  0.32045000  1
  C  1181  1  0.32783200  0.44600200  0.30291600  1
  C  1182  1  0.34730100  0.43711800  0.29413600  1
  C  1183  1  0.35656900  0.41804500  0.30309500  1
  C  1184  1  0.41616400  0.36428800  0.30475500  1
  C  1185  1  0.43582400  0.35612700  0.29595800  1
  C  1186  1  0.44438500  0.33594100  0.30307500  1
  C  1187  1  0.43317600  0.32434100  0.31964800  1
  C  1188  1  0.41363100  0.33263500  0.32858500  1
  C  1200  1  0.38489900  0.36121500  0.33042200  1
  C  1202  1  0.35638100  0.38801500  0.33036700  1
  C  1204  1  0.35652700  0.35964600  0.35732900  1
  C  1210  1  0.68380600  0.40716200  0.64929800  1
  C  1211  1  0.68337700  0.34961000  0.59417000  1
  C  1212  1  0.62585800  0.35281600  0.64908300  1
  C  1213  1  0.67504200  0.32964500  0.58576200  1
  C  1214  1  0.68395100  0.31998200  0.56683600  1
  C  1215  1  0.70121300  0.33018500  0.55545000  1
  C  1216  1  0.70998800  0.34983400  0.56389200  1
  C  1217  1  0.70120200  0.35935900  0.58293800  1
  C  1218  1  0.70355100  0.41601000  0.64089400  1
  C  1219  1  0.71292300  0.43501500  0.64992500  1
  C  1220  1  0.70270500  0.44600100  0.66745000  1
  C  1221  1  0.68323000  0.43713700  0.67623200  1
  C  1222  1  0.67395800  0.41807000  0.66727700  1
  C  1223  1  0.61435600  0.36434700  0.66563300  1
  C  1224  1  0.59469000  0.35620300  0.67442200  1
  C  1225  1  0.58610600  0.33604300  0.66727500  1
  C  1226  1  0.59730000  0.32445400  0.65068100  1
  C  1227  1  0.61685200  0.33273000  0.64175300  1
  C  1239  1  0.64561200  0.36126500  0.63995100  1
  C  1241  1  0.67414300  0.38803600  0.64001300  1
  C  1243  1  0.67398400  0.35967900  0.61304400  1
  C  1249  1  0.78476200  0.01410300  0.71240100  1
  C  1250  1  0.79202000  0.99616400  0.69965500  1
  C  1251  1  0.80913000  0.99852100  0.68424800  1
  C  1252  1  0.81896400  0.01925500  0.68151100  1
  C  1253  1  0.81205600  0.03747900  0.69399000  1
  C  1254  1  0.79493500  0.03469300  0.70929800  1
  C  1258  1  0.81580400  0.98119700  0.67134000  1
  C  1259  1  0.82182600  0.05775800  0.69153900  1
  C  1260  1  0.76716800  0.01138700  0.72666200  1
  C  1264  1  0.24023500  0.01743200  0.71796600  1
  C  1265  1  0.23502700  0.03510700  0.70400500  1
  C  1266  1  0.22106500  0.03209000  0.68580000  1
  C  1267  1  0.21226000  0.01108600  0.68176600  1
  C  1268  1  0.21693700  0.99322200  0.69576600  1
  C  1269  1  0.23090900  0.99667600  0.71388800  1
  C  1273  1  0.21588000  0.04926600  0.67204100  1
  C  1274  1  0.20749800  0.97284400  0.69257500  1
  C  1275  1  0.25392800  0.02062100  0.73572500  1
  C  1279  1  0.79034900  0.01738900  0.25236900  1
  C  1280  1  0.79557600  0.03507300  0.26630700  1
  C  1281  1  0.80953700  0.03205600  0.28451400  1
  C  1282  1  0.81832600  0.01104500  0.28857200  1
  C  1283  1  0.81363300  0.99317200  0.27459500  1
  C  1284  1  0.79966000  0.99662500  0.25646900  1
  C  1288  1  0.81473900  0.04923600  0.29825800  1
  C  1289  1  0.82306100  0.97278800  0.27780700  1
  C  1290  1  0.77665500  0.02057400  0.23460800  1
  C  1294  1  0.24021700  0.01324700  0.25233800  1
  C  1295  1  0.23507200  0.99557100  0.26632200  1
  C  1296  1  0.22108800  0.99856100  0.28452300  1
  C  1297  1  0.21218400  0.01953500  0.28852700  1
  C  1298  1  0.21678700  0.03739400  0.27449500  1
  C  1299  1  0.23078900  0.03397000  0.25638200  1
  C  1303  1  0.21595900  0.98138700  0.29830800  1
  C  1304  1  0.20727400  0.05774500  0.27766300  1
  C  1305  1  0.25392400  0.01008900  0.23457200  1
  C  1309  1  0.01241900  0.74803600  0.76030600  1
  C  1310  1  0.99484700  0.73399800  0.76564000  1
  C  1311  1  0.99805300  0.71579100  0.77955500  1
  C  1312  1  0.01915400  0.71182200  0.78818000  1
  C  1313  1  0.03692400  0.72590100  0.78338600  1
  C  1314  1  0.03327400  0.74402700  0.76946600  1
  C  1318  1  0.98095200  0.70197300  0.78484800  1
  C  1319  1  0.05739900  0.72277800  0.79265800  1
  C  1320  1  0.00903000  0.76577300  0.74662300  1
  C  1324  1  0.01722900  0.74247000  0.21574900  1
  C  1325  1  0.03502100  0.72963000  0.20831200  1
  C  1326  1  0.03237200  0.71420600  0.19127000  1
  C  1327  1  0.01147900  0.71152000  0.18174500  1
  C  1328  1  0.99338700  0.72408900  0.18886300  1
  C  1329  1  0.99647800  0.73944900  0.20587800  1
  C  1333  1  0.04960000  0.70127800  0.18436900  1
  C  1334  1  0.97295700  0.72169800  0.17937600  1
  C  1335  1  0.02022700  0.75672700  0.23326400  1
  C  1339  1  0.01830200  0.28249100  0.76021500  1
  C  1340  1  0.03586100  0.29653200  0.76557100  1
  C  1341  1  0.03262600  0.31472700  0.77949300  1
  C  1342  1  0.01151000  0.31868500  0.78810000  1
  C  1343  1  0.99375400  0.30459900  0.78328900  1
  C  1344  1  0.99743000  0.28648400  0.76936100  1
  C  1348  1  0.04971300  0.32853300  0.78483800  1
  C  1349  1  0.97327000  0.30769800  0.79256400  1
  C  1350  1  0.02171900  0.26476600  0.74653000  1
  C  1354  1  0.01225200  0.28253000  0.21022600  1
  C  1355  1  0.99467400  0.29655200  0.20485800  1
  C  1356  1  0.99788900  0.31475300  0.19093800  1
  C  1357  1  0.01901000  0.31874400  0.18236400  1
  C  1358  1  0.03679000  0.30468600  0.18720000  1
  C  1359  1  0.03312700  0.28655800  0.20111300  1
  C  1363  1  0.98078200  0.32854600  0.18559200  1
  C  1364  1  0.05728100  0.30781600  0.17795300  1
  C  1365  1  0.00885200  0.26480600  0.22391700  1
  C  1369  1  0.74861300  0.79077600  0.98413700  1
  C  1370  1  0.73493200  0.79659100  0.96644300  1
  C  1371  1  0.71669300  0.81046200  0.96965500  1
  C  1372  1  0.71231000  0.81852000  0.99089800  1
  C  1373  1  0.72598700  0.81319100  0.00883400  1
  C  1374  1  0.74417900  0.79934100  0.00516500  1
  C  1378  1  0.70318300  0.81619800  0.95245300  1
  C  1379  1  0.72244800  0.82197200  0.02947300  1
  C  1380  1  0.76634800  0.77711600  0.98067800  1
  C  1384  1  0.74850800  0.24006100  0.98634700  1
  C  1385  1  0.73484600  0.23421700  0.00405600  1
  C  1386  1  0.71658600  0.22038600  0.00084700  1
  C  1387  1  0.71216800  0.21238900  0.97959000  1
  C  1388  1  0.72582400  0.21774200  0.96164100  1
  C  1389  1  0.74403500  0.23155200  0.96530800  1
  C  1393  1  0.70308000  0.21462900  0.01805500  1
  C  1394  1  0.72225600  0.20900000  0.94099300  1
  C  1395  1  0.76625400  0.25369800  0.98980100  1
  C  1399  1  0.28187500  0.79080400  0.98619600  1
  C  1400  1  0.29548200  0.79670200  0.00391700  1
  C  1401  1  0.31368700  0.81061300  0.00072300  1
  C  1402  1  0.31810500  0.81863200  0.97947200  1
  C  1403  1  0.30449600  0.81322700  0.96151200  1
  C  1404  1  0.28634100  0.79933600  0.96516100  1
  C  1408  1  0.32714800  0.81641200  0.01793700  1
  C  1409  1  0.30806500  0.82197300  0.94086300  1
  C  1410  1  0.26417300  0.77710600  0.98963400  1
  C  1414  1  0.28207700  0.24010500  0.98396100  1
  C  1415  1  0.29575300  0.23428000  0.96625500  1
  C  1416  1  0.31402500  0.22045300  0.96946300  1
  C  1417  1  0.31843900  0.21243200  0.99071300  1
  C  1418  1  0.30476200  0.21775700  0.00866000  1
  C  1419  1  0.28654300  0.23156800  0.00499300  1
  C  1423  1  0.32754500  0.21471600  0.95225900  1
  C  1424  1  0.30831800  0.20899500  0.02930500  1
  C  1425  1  0.26430200  0.25372200  0.98051100  1
  C  1429  1  0.01505800  0.79066700  0.25216000  1
  C  1430  1  0.99719100  0.79640000  0.26567200  1
  C  1431  1  0.00015900  0.81022300  0.28398500  1
  C  1432  1  0.02132700  0.81834300  0.28859400  1
  C  1433  1  0.03941400  0.81313100  0.27506700  1
  C  1434  1  0.03599600  0.79931300  0.25681500  1
  C  1438  1  0.98281500  0.81584600  0.29737900  1
  C  1439  1  0.05997400  0.82199100  0.27879500  1
  C  1440  1  0.01186900  0.77706900  0.23432500  1
  C  1444  1  0.01477000  0.24594400  0.25828300  1
  C  1445  1  0.03278500  0.23804400  0.27051200  1
  C  1446  1  0.03025900  0.22094500  0.28589200  1
  C  1447  1  0.00925900  0.21184400  0.28916300  1
  C  1448  1  0.99093700  0.21944000  0.27723100  1
  C  1449  1  0.99391700  0.23649000  0.26188200  1
  C  1453  1  0.04768500  0.21364000  0.29832400  1
  C  1454  1  0.97041500  0.21030400  0.28017300  1
  C  1455  1  0.01773400  0.26346200  0.24402300  1
  C  1459  1  0.01507500  0.78472500  0.71230600  1
  C  1460  1  0.03308400  0.79261900  0.70005400  1
  C  1461  1  0.03054100  0.80969500  0.68465100  1
  C  1462  1  0.00953600  0.81878900  0.68138500  1
  C  1463  1  0.99122000  0.81120900  0.69334200  1
  C  1464  1  0.99421500  0.79417700  0.70870700  1
  C  1468  1  0.04794900  0.81697900  0.67217700  1
  C  1469  1  0.97069200  0.82034600  0.69040900  1
  C  1470  1  0.01804800  0.76720900  0.72657600  1
  C  1474  1  0.01572000  0.24582900  0.71221400  1
  C  1475  1  0.99770500  0.23788400  0.70002000  1
  C  1476  1  0.00025200  0.22078600  0.68464300  1
  C  1477  1  0.02127100  0.21173400  0.68133200  1
  C  1478  1  0.03959200  0.21937600  0.69322700  1
  C  1479  1  0.03659200  0.23641500  0.70858100  1
  C  1483  1  0.98283200  0.21346000  0.67222100  1
  C  1484  1  0.06013400  0.21028400  0.69025200  1
  C  1485  1  0.01273700  0.26334800  0.72647200  1
  C  1489  1  0.74226100  0.01441000  0.21580300  1
  C  1490  1  0.72960000  0.99647000  0.20842700  1
  C  1491  1  0.71415400  0.99889500  0.19137000  1
  C  1492  1  0.71128200  0.01970600  0.18172700  1
  C  1493  1  0.72366600  0.03793600  0.18876800  1
  C  1494  1  0.73902800  0.03507500  0.20582200  1
  C  1498  1  0.70135800  0.98154800  0.18454900  1
  C  1499  1  0.72110200  0.05828300  0.17916800  1
  C  1500  1  0.75657800  0.01161100  0.23332300  1
  C  1504  1  0.74796400  0.01725700  0.76035600  1
  C  1505  1  0.73411900  0.03499100  0.76568700  1
  C  1506  1  0.71587600  0.03199800  0.77961700  1
  C  1507  1  0.71168400  0.01095600  0.78826700  1
  C  1508  1  0.72556900  0.99303300  0.78346900  1
  C  1509  1  0.74373400  0.99646500  0.76954000  1
  C  1513  1  0.70220700  0.04922100  0.78490500  1
  C  1514  1  0.72225700  0.97261900  0.79278200  1
  C  1515  1  0.76577800  0.02041200  0.74670800  1
  C  1519  1  0.28825700  0.01643600  0.21567400  1
  C  1520  1  0.30088000  0.03439600  0.20826500  1
  C  1521  1  0.31634500  0.03198200  0.19121100  1
  C  1522  1  0.31927000  0.01116600  0.18159900  1
  C  1523  1  0.30692400  0.99291900  0.18867000  1
  C  1524  1  0.29155400  0.99576500  0.20572600  1
  C  1528  1  0.32913700  0.04933300  0.18438200  1
  C  1529  1  0.30950700  0.97257400  0.17907600  1
  C  1530  1  0.27392300  0.01921600  0.23319700  1
  C  1534  1  0.28831000  0.01445100  0.75454200  1
  C  1535  1  0.30095500  0.99649600  0.76193000  1
  C  1536  1  0.31639000  0.99890300  0.77900000  1
  C  1537  1  0.31926800  0.01971100  0.78864000  1
  C  1538  1  0.30690500  0.03795700  0.78158200  1
  C  1539  1  0.29155800  0.03511500  0.76451300  1
  C  1543  1  0.32916400  0.98154000  0.78583500  1
  C  1544  1  0.30947600  0.05830000  0.79118700  1
  C  1545  1  0.27401300  0.01166900  0.73700700  1
  C  1549  1  0.78476800  0.74244600  0.98557200  1
  C  1550  1  0.79288300  0.73019300  0.00345900  1
  C  1551  1  0.80998400  0.71485500  0.00067700  1
  C  1552  1  0.81879800  0.71160800  0.97954600  1
  C  1553  1  0.81094500  0.72355300  0.96133600  1
  C  1554  1  0.79394300  0.73891300  0.96458000  1
  C  1558  1  0.81753800  0.70245700  0.01801200  1
  C  1559  1  0.81982400  0.72062800  0.94068800  1
  C  1560  1  0.76729700  0.75667700  0.98878400  1
  C  1564  1  0.24585000  0.74239100  0.98473500  1
  C  1565  1  0.23780800  0.73008200  0.96685700  1
  C  1566  1  0.22073300  0.71472600  0.96963500  1
  C  1567  1  0.21186100  0.71152300  0.99074900  1
  C  1568  1  0.21963700  0.72353000  0.00894800  1
  C  1569  1  0.23662000  0.73890100  0.00571000  1
  C  1573  1  0.21322500  0.70229000  0.95231000  1
  C  1574  1  0.21070600  0.72065300  0.02958300  1
  C  1575  1  0.26328300  0.75666300  0.98152900  1
  C  1579  1  0.78471500  0.28834500  0.98488500  1
  C  1580  1  0.79283700  0.30060200  0.96700100  1
  C  1581  1  0.80993800  0.31592500  0.96978500  1
  C  1582  1  0.81874800  0.31915500  0.99091400  1
  C  1583  1  0.81089300  0.30720200  0.00912000  1
  C  1584  1  0.79389500  0.29185000  0.00587400  1
  C  1588  1  0.81751900  0.32831800  0.95245600  1
  C  1589  1  0.81978000  0.31010600  0.02976500  1
  C  1590  1  0.76724200  0.27412600  0.98166800  1
  C  1594  1  0.24570000  0.28830300  0.98556800  1
  C  1595  1  0.23758200  0.30057900  0.00344600  1
  C  1596  1  0.22047600  0.31590900  0.00065900  1
  C  1597  1  0.21165200  0.31912400  0.97953100  1
  C  1598  1  0.21950000  0.30715400  0.96133400  1
  C  1599  1  0.23650400  0.29180100  0.96458300  1
  C  1603  1  0.21292600  0.32834700  0.01797500  1
  C  1604  1  0.21060900  0.31004800  0.94069200  1
  C  1605  1  0.26319300  0.27408600  0.98878500  1
  C  1609  1  0.51493900  0.74845200  0.26044900  1
  C  1610  1  0.49709400  0.73491800  0.26617300  1
  C  1611  1  0.50005600  0.71668000  0.28009600  1
  C  1612  1  0.52120300  0.71215300  0.28832000  1
  C  1613  1  0.53927200  0.72569100  0.28311200  1
  C  1614  1  0.53585500  0.74388000  0.26921200  1
  C  1618  1  0.48273100  0.70326900  0.28569400  1
  C  1619  1  0.55981800  0.72201100  0.29202500  1
  C  1620  1  0.51171500  0.76619100  0.24672400  1
  C  1624  1  0.51562900  0.74856500  0.70991200  1
  C  1625  1  0.53346800  0.73502600  0.70415600  1
  C  1626  1  0.53048200  0.71678100  0.69025400  1
  C  1627  1  0.50931900  0.71225400  0.68207600  1
  C  1628  1  0.49125600  0.72579700  0.68731300  1
  C  1629  1  0.49469700  0.74399000  0.70119700  1
  C  1633  1  0.54779900  0.70337000  0.68461300  1
  C  1634  1  0.47069600  0.72212200  0.67843300  1
  C  1635  1  0.51887300  0.76631600  0.72361300  1
  C  1639  1  0.51492300  0.28829500  0.25477600  1
  C  1640  1  0.53293100  0.30051500  0.26268600  1
  C  1641  1  0.53039800  0.31583500  0.27983600  1
  C  1642  1  0.50940000  0.31906100  0.28897000  1
  C  1643  1  0.49108700  0.30714000  0.28135500  1
  C  1644  1  0.49407100  0.29183800  0.26426400  1
  C  1648  1  0.54780900  0.32826900  0.28715300  1
  C  1649  1  0.47055900  0.31007600  0.29048500  1
  C  1650  1  0.51787200  0.27412500  0.23719000  1
  C  1654  1  0.51557100  0.28838900  0.71553500  1
  C  1655  1  0.49755700  0.30061100  0.70762300  1
  C  1656  1  0.50008300  0.31593800  0.69047500  1
  C  1657  1  0.52108300  0.31916900  0.68134700  1
  C  1658  1  0.53940200  0.30725100  0.68896900  1
  C  1659  1  0.53642400  0.29194700  0.70605800  1
  C  1663  1  0.48266200  0.32836500  0.68315300  1
  C  1664  1  0.55993000  0.31018800  0.67984600  1
  C  1665  1  0.51263100  0.27421900  0.73312200  1
  C  1669  1  0.24821900  0.79043800  0.48351900  1
  C  1670  1  0.23505900  0.79657000  0.46552400  1
  C  1671  1  0.21675200  0.81042500  0.46843500  1
  C  1672  1  0.21178300  0.81816900  0.48966500  1
  C  1673  1  0.22496900  0.81256700  0.50787300  1
  C  1674  1  0.24323300  0.79875000  0.50452300  1
  C  1678  1  0.20360800  0.81633800  0.45101500  1
  C  1679  1  0.22093300  0.82111100  0.52849400  1
  C  1680  1  0.26604800  0.77679400  0.48042800  1
  C  1684  1  0.24834900  0.24003800  0.48654000  1
  C  1685  1  0.23525100  0.23380800  0.50455100  1
  C  1686  1  0.21697100  0.21993300  0.50164000  1
  C  1687  1  0.21195700  0.21228100  0.48039200  1
  C  1688  1  0.22507600  0.21799200  0.46216400  1
  C  1689  1  0.24332000  0.23182100  0.46551200  1
  C  1693  1  0.20387300  0.21395200  0.51907700  1
  C  1694  1  0.22099300  0.20953600  0.44152200  1
  C  1695  1  0.26614100  0.25371000  0.48963700  1
  C  1699  1  0.78225500  0.79054500  0.48682600  1
  C  1700  1  0.79538500  0.79670800  0.50483000  1
  C  1701  1  0.81368800  0.81056000  0.50192000  1
  C  1702  1  0.81869400  0.81825400  0.48068200  1
  C  1703  1  0.80553700  0.81261900  0.46246600  1
  C  1704  1  0.78727200  0.79881800  0.46581400  1
  C  1708  1  0.82682100  0.81647600  0.51934500  1
  C  1709  1  0.80961000  0.82112600  0.44183400  1
  C  1710  1  0.76444000  0.77689100  0.48991700  1
  C  1714  1  0.78223800  0.24012800  0.48376100  1
  C  1715  1  0.79530900  0.23385400  0.46574300  1
  C  1716  1  0.81360500  0.21998800  0.46865900  1
  C  1717  1  0.81867900  0.21241400  0.48992200  1
  C  1718  1  0.80559200  0.21817500  0.50815800  1
  C  1719  1  0.78732000  0.23197500  0.50480200  1
  C  1723  1  0.82667300  0.21395300  0.45121800  1
  C  1724  1  0.80970100  0.20975700  0.52881200  1
  C  1725  1  0.76441900  0.25377500  0.48065900  1
  C  1729  1  0.51309000  0.78504200  0.75806100  1
  C  1730  1  0.49516400  0.79327400  0.77021100  1
  C  1731  1  0.49798500  0.81017300  0.78576000  1
  C  1732  1  0.51917400  0.81870300  0.78929800  1
  C  1733  1  0.53740600  0.81073600  0.77746400  1
  C  1734  1  0.53414300  0.79392700  0.76192200  1
  C  1738  1  0.48066900  0.81776200  0.79817700  1
  C  1739  1  0.55809500  0.81937200  0.78062900  1
  C  1740  1  0.50989300  0.76767200  0.74368200  1
  C  1744  1  0.51802400  0.24043200  0.75226200  1
  C  1745  1  0.53586700  0.23416800  0.76556800  1
  C  1746  1  0.53270700  0.22037400  0.78387700  1
  C  1747  1  0.51137600  0.21283700  0.78871400  1
  C  1748  1  0.49330700  0.21859200  0.77540300  1
  C  1749  1  0.49691100  0.23232100  0.75712400  1
  C  1753  1  0.54998300  0.21431300  0.79714400  1
  C  1754  1  0.47258700  0.21023300  0.77931600  1
  C  1755  1  0.52137300  0.25405500  0.73445800  1
  C  1759  1  0.51754900  0.78488500  0.21227000  1
  C  1760  1  0.53548100  0.79315800  0.20016200  1
  C  1761  1  0.53264600  0.81003000  0.18458200  1
  C  1762  1  0.51143400  0.81848800  0.18096900  1
  C  1763  1  0.49319800  0.81047700  0.19275700  1
  C  1764  1  0.49647500  0.79369400  0.20832700  1
  C  1768  1  0.54996300  0.81764700  0.17219000  1
  C  1769  1  0.47249200  0.81906300  0.18954900  1
  C  1770  1  0.52075300  0.76754000  0.22668100  1
  C  1774  1  0.51249500  0.24034600  0.21803900  1
  C  1775  1  0.49465400  0.23407100  0.20474300  1
  C  1776  1  0.49782100  0.22029200  0.18642400  1
  C  1777  1  0.51915800  0.21277800  0.18156900  1
  C  1778  1  0.53722800  0.21854400  0.19486900  1
  C  1779  1  0.53361600  0.23225700  0.21315700  1
  C  1783  1  0.48054200  0.21424000  0.17315700  1
  C  1784  1  0.55795800  0.21020600  0.19094300  1
  C  1785  1  0.50914300  0.25395900  0.23584900  1
  C  1789  1  0.28474600  0.74231700  0.48630100  1
  C  1790  1  0.29200000  0.72956300  0.50423000  1
  C  1791  1  0.30910400  0.71416200  0.50184200  1
  C  1792  1  0.31890700  0.71142500  0.48107600  1
  C  1793  1  0.31197900  0.72390600  0.46285700  1
  C  1794  1  0.29488000  0.73922700  0.46567900  1
  C  1798  1  0.31583100  0.70131200  0.51919000  1
  C  1799  1  0.32170500  0.72143700  0.44254800  1
  C  1800  1  0.26716800  0.75655900  0.48904100  1
  C  1804  1  0.74579600  0.74239000  0.48406900  1
  C  1805  1  0.73855500  0.72962700  0.46614600  1
  C  1806  1  0.72147200  0.71421200  0.46855000  1
  C  1807  1  0.71168000  0.71147300  0.48931800  1
  C  1808  1  0.71859200  0.72397200  0.50752800  1
  C  1809  1  0.73566900  0.73930700  0.50469400  1
  C  1813  1  0.71475500  0.70134500  0.45121300  1
  C  1814  1  0.70887400  0.72150300  0.52784000  1
  C  1815  1  0.76335100  0.75665100  0.48131400  1
  C  1819  1  0.28467300  0.28827900  0.48395800  1
  C  1820  1  0.29194200  0.30104300  0.46604600  1
  C  1821  1  0.30904200  0.31643300  0.46846600  1
  C  1822  1  0.31881000  0.31915200  0.48924100  1
  C  1823  1  0.31186400  0.30665300  0.50744400  1
  C  1824  1  0.29477900  0.29133100  0.50459000  1
  C  1828  1  0.31580700  0.32928400  0.45113600  1
  C  1829  1  0.32157000  0.30909700  0.52776300  1
  C  1830  1  0.26713300  0.27401600  0.48118100  1
  C  1834  1  0.74579900  0.28830400  0.48638600  1
  C  1835  1  0.73853400  0.30107200  0.50429900  1
  C  1836  1  0.72140500  0.31644000  0.50189400  1
  C  1837  1  0.71160900  0.31914500  0.48112700  1
  C  1838  1  0.71855200  0.30664100  0.46292600  1
  C  1839  1  0.73566100  0.29133800  0.46576600  1
  C  1843  1  0.71465600  0.32930200  0.51922600  1
  C  1844  1  0.70883900  0.30908200  0.44261200  1
  C  1845  1  0.76337000  0.27406600  0.48914600  1
  C  1849  1  0.78453300  0.51424700  0.21237600  1
  C  1850  1  0.79273100  0.49619300  0.20040400  1
  C  1851  1  0.80973600  0.49880800  0.18492300  1
  C  1852  1  0.81840900  0.51991400  0.18126800  1
  C  1853  1  0.81048000  0.53826100  0.19293200  1
  C  1854  1  0.79355800  0.53521100  0.20840600  1
  C  1858  1  0.81726800  0.48138000  0.17264800  1
  C  1859  1  0.81924000  0.55887100  0.18967200  1
  C  1860  1  0.76708600  0.51125100  0.22671200  1
  C  1864  1  0.24556600  0.51645200  0.21231200  1
  C  1865  1  0.23743300  0.53449800  0.20028700  1
  C  1866  1  0.22042600  0.53189400  0.18481800  1
  C  1867  1  0.21167300  0.51080900  0.18124000  1
  C  1868  1  0.21953100  0.49246900  0.19296300  1
  C  1869  1  0.23647000  0.49550700  0.20841200  1
  C  1873  1  0.21294000  0.54931900  0.17251400  1
  C  1874  1  0.21070800  0.47187700  0.18975400  1
  C  1875  1  0.26302600  0.51943900  0.22662300  1
  C  1879  1  0.78485900  0.51634600  0.75812000  1
  C  1880  1  0.79301900  0.53438400  0.77013100  1
  C  1881  1  0.81003400  0.53175600  0.78558800  1
  C  1882  1  0.81875700  0.51065500  0.78917900  1
  C  1883  1  0.81087100  0.49232600  0.77747100  1
  C  1884  1  0.79393300  0.49538700  0.76202300  1
  C  1888  1  0.81755300  0.54917100  0.79787600  1
  C  1889  1  0.81967500  0.47171900  0.78067800  1
  C  1890  1  0.76741300  0.51935800  0.74379900  1
  C  1894  1  0.24591500  0.51425000  0.75798100  1
  C  1895  1  0.23776500  0.49617500  0.76995200  1
  C  1896  1  0.22073400  0.49874700  0.78541300  1
  C  1897  1  0.21197400  0.51982600  0.78903900  1
  C  1898  1  0.21985000  0.53819100  0.77737700  1
  C  1899  1  0.23681300  0.53519000  0.76193600  1
  C  1903  1  0.21323800  0.48129700  0.79767800  1
  C  1904  1  0.21102000  0.55878000  0.78062600  1
  C  1905  1  0.26340000  0.51130000  0.74367800  1
  C  1909  1  0.74835200  0.51357600  0.71001200  1
  C  1910  1  0.73522300  0.49562500  0.70370900  1
  C  1911  1  0.71695300  0.49861500  0.68983000  1
  C  1912  1  0.71197000  0.51988800  0.68224600  1
  C  1913  1  0.72511200  0.53805800  0.68802900  1
  C  1914  1  0.74335700  0.53462900  0.70184100  1
  C  1918  1  0.70383500  0.48123600  0.68377200  1
  C  1919  1  0.72104400  0.55872800  0.67965100  1
  C  1920  1  0.76610400  0.51036900  0.72373400  1
  C  1924  1  0.74793900  0.51719100  0.26044100  1
  C  1925  1  0.73476100  0.53514700  0.26665800  1
  C  1926  1  0.71647900  0.53218600  0.28054000  1
  C  1927  1  0.71153700  0.51093800  0.28821500  1
  C  1928  1  0.72473100  0.49276500  0.28252300  1
  C  1929  1  0.74298200  0.49616700  0.26870300  1
  C  1933  1  0.70332700  0.54957700  0.28652600  1
  C  1934  1  0.72070300  0.47212100  0.29097900  1
  C  1935  1  0.76570100  0.52036700  0.24671600  1
  C  1939  1  0.28258700  0.51728100  0.70997600  1
  C  1940  1  0.29578400  0.53523700  0.70381700  1
  C  1941  1  0.31406900  0.53229200  0.68993500  1
  C  1942  1  0.31900500  0.51105700  0.68221000  1
  C  1943  1  0.30578900  0.49288800  0.68784200  1
  C  1944  1  0.28753200  0.49627500  0.70166100  1
  C  1948  1  0.32723100  0.54968700  0.68400000  1
  C  1949  1  0.30980600  0.47226300  0.67933200  1
  C  1950  1  0.26480800  0.52044100  0.72368700  1
  C  1954  1  0.28213800  0.51360400  0.26037700  1
  C  1955  1  0.29527800  0.49564000  0.26664500  1
  C  1956  1  0.31356400  0.49860600  0.28050700  1
  C  1957  1  0.31856700  0.51987100  0.28808900  1
  C  1958  1  0.30542200  0.53805500  0.28233600  1
  C  1959  1  0.28715000  0.53464800  0.26855500  1
  C  1963  1  0.32668600  0.48120900  0.28653100  1
  C  1964  1  0.30950200  0.55871500  0.29072900  1
  C  1965  1  0.26436900  0.51041800  0.24667200  1
  N  31  1  0.87528500  0.85210800  0.62118800  1
  N  33  1  0.84784100  0.87827800  0.62263700  1
  N  35  1  0.87547700  0.87823000  0.64869500  1
  N  37  1  0.96340700  0.82446400  0.67110300  1
  N  38  1  0.81847400  0.82535500  0.53650700  1
  N  39  1  0.82204700  0.96307000  0.68001100  1
  N  70  1  0.15543200  0.17834900  0.62087200  1
  N  72  1  0.18268000  0.15194400  0.62218700  1
  N  74  1  0.15501800  0.15209900  0.64823500  1
  N  76  1  0.06739700  0.20618100  0.67093100  1
  N  77  1  0.21226900  0.20512700  0.53623900  1
  N  78  1  0.20737400  0.06685800  0.67983300  1
  N  109  1  0.87508800  0.17830600  0.34945100  1
  N  111  1  0.84784200  0.15191700  0.34811800  1
  N  113  1  0.87552400  0.15206200  0.32208700  1
  N  115  1  0.96313800  0.20617700  0.29948500  1
  N  116  1  0.81825700  0.20513900  0.43406200  1
  N  117  1  0.82322500  0.06683000  0.29046200  1
  N  148  1  0.15506700  0.85237200  0.34930500  1
  N  150  1  0.18240300  0.87870700  0.34812100  1
  N  152  1  0.15479800  0.87874900  0.32206400  1
  N  154  1  0.06719000  0.82525700  0.29830100  1
  N  155  1  0.21193500  0.82527700  0.43387600  1
  N  156  1  0.20736300  0.96383100  0.29055300  1
  N  187  1  0.85148700  0.65140100  0.84521700  1
  N  189  1  0.87795700  0.65253300  0.81801200  1
  N  191  1  0.87798200  0.67850300  0.84574300  1
  N  193  1  0.82400300  0.70133700  0.93340500  1
  N  194  1  0.82391800  0.56701100  0.78870000  1
  N  195  1  0.96334900  0.70974300  0.79336300  1
  N  226  1  0.17912200  0.65167800  0.12519500  1
  N  228  1  0.15291000  0.65299400  0.15261600  1
  N  230  1  0.15278300  0.67897300  0.12488600  1
  N  232  1  0.20647500  0.70138700  0.03689000  1
  N  233  1  0.20661100  0.56717800  0.18167600  1
  N  234  1  0.06779300  0.70993100  0.17828700  1
  N  265  1  0.17919300  0.37912600  0.84503900  1
  N  267  1  0.15276900  0.37795700  0.81780300  1
  N  269  1  0.15269400  0.35202900  0.84558000  1
  N  271  1  0.20648100  0.32933100  0.93336300  1
  N  272  1  0.20684900  0.46348000  0.78848300  1
  N  273  1  0.06733500  0.32075900  0.79330000  1
  N  304  1  0.85138100  0.37921800  0.12529000  1
  N  306  1  0.87779500  0.37802700  0.15253300  1
  N  308  1  0.87785300  0.35208000  0.12477600  1
  N  310  1  0.82398900  0.32938600  0.03704500  1
  N  311  1  0.82367300  0.46356000  0.18183800  1
  N  312  1  0.96316600  0.32075200  0.17714900  1
  N  343  1  0.65220700  0.87736200  0.82394900  1
  N  345  1  0.65344200  0.85024300  0.85048600  1
  N  347  1  0.68001500  0.87733400  0.84976400  1
  N  349  1  0.70289500  0.96492600  0.79575100  1
  N  350  1  0.56534600  0.82308200  0.80002900  1
  N  351  1  0.71130200  0.82434100  0.93483000  1
  N  382  1  0.65197100  0.15352600  0.14650300  1
  N  384  1  0.65320800  0.18067500  0.12003300  1
  N  386  1  0.67982200  0.15354400  0.12075400  1
  N  388  1  0.70190200  0.06598000  0.17534300  1
  N  389  1  0.56513500  0.20729100  0.17136100  1
  N  390  1  0.71118400  0.20650200  0.03569000  1
  N  421  1  0.37840800  0.87710600  0.14644200  1
  N  423  1  0.37700300  0.85005700  0.11987800  1
  N  425  1  0.35048700  0.87724700  0.12075200  1
  N  427  1  0.32870900  0.96485500  0.17530000  1
  N  428  1  0.46526200  0.82278000  0.17014000  1
  N  429  1  0.31900400  0.82449600  0.03557800  1
  N  460  1  0.37863400  0.15349900  0.82381000  1
  N  462  1  0.37741900  0.18062900  0.85029700  1
  N  464  1  0.35080800  0.15350900  0.84959100  1
  N  466  1  0.32867900  0.06597800  0.79500400  1
  N  467  1  0.46540200  0.20731900  0.79889200  1
  N  468  1  0.31946800  0.20650600  0.93465400  1
  N  499  1  0.85450400  0.87776400  0.34800800  1
  N  501  1  0.88090500  0.85052200  0.34694200  1
  N  503  1  0.88031000  0.87751000  0.32020700  1
  N  505  1  0.82608800  0.96505200  0.29714300  1
  N  506  1  0.82924200  0.82402000  0.43479900  1
  N  507  1  0.96530400  0.82417200  0.28920400  1
  N  538  1  0.17606400  0.15291300  0.34770700  1
  N  540  1  0.14992200  0.18037300  0.34654100  1
  N  542  1  0.15037500  0.15340000  0.31979200  1
  N  544  1  0.20425600  0.06552300  0.29698300  1
  N  545  1  0.20135500  0.20657800  0.43453700  1
  N  546  1  0.06580800  0.20788500  0.28928600  1
  N  577  1  0.17621300  0.87776100  0.62246300  1
  N  579  1  0.15005300  0.85032800  0.62366700  1
  N  581  1  0.15057400  0.87726900  0.65044100  1
  N  583  1  0.20445000  0.96510100  0.67324800  1
  N  584  1  0.20131300  0.82405100  0.53555100  1
  N  585  1  0.06606000  0.82282700  0.68116400  1
  N  616  1  0.85445200  0.15307400  0.62258900  1
  N  618  1  0.88064800  0.18043500  0.62388600  1
  N  620  1  0.88006300  0.15337300  0.65057700  1
  N  622  1  0.82564800  0.06553300  0.67237200  1
  N  623  1  0.82934600  0.20678100  0.53578000  1
  N  624  1  0.96472100  0.20766400  0.68125400  1
  N  655  1  0.65225200  0.85220400  0.12485200  1
  N  657  1  0.65340000  0.87830100  0.15238900  1
  N  659  1  0.67950200  0.87857400  0.12478300  1
  N  661  1  0.70300400  0.82536500  0.03680800  1
  N  662  1  0.56778900  0.82418900  0.18126700  1
  N  663  1  0.71013800  0.96342800  0.17843900  1
  N  694  1  0.65173600  0.17839700  0.84589200  1
  N  696  1  0.65281600  0.15196100  0.81865400  1
  N  698  1  0.67897500  0.15200200  0.84616300  1
  N  700  1  0.70280200  0.20568700  0.93366100  1
  N  701  1  0.56718400  0.20540300  0.78891800  1
  N  702  1  0.71007300  0.06672400  0.79351600  1
  N  733  1  0.37866200  0.17847300  0.12452200  1
  N  735  1  0.37740900  0.15230200  0.15198900  1
  N  737  1  0.35122800  0.15227000  0.12450100  1
  N  739  1  0.32776300  0.20561500  0.03663300  1
  N  740  1  0.46332200  0.20538200  0.18139400  1
  N  741  1  0.32037200  0.06743500  0.17819200  1
  N  772  1  0.37830400  0.85220000  0.84553300  1
  N  774  1  0.37713600  0.87829200  0.81798600  1
  N  776  1  0.35102400  0.87855500  0.84557900  1
  N  778  1  0.32751700  0.82538600  0.93356700  1
  N  779  1  0.46282200  0.82428100  0.78912000  1
  N  780  1  0.32036800  0.96341800  0.79190600  1
  N  811  1  0.87744800  0.65288900  0.14666500  1
  N  813  1  0.85029300  0.65428000  0.12024300  1
  N  815  1  0.87731800  0.68095100  0.12108400  1
  N  817  1  0.96510900  0.70257300  0.17553600  1
  N  818  1  0.82308700  0.56598400  0.17024600  1
  N  819  1  0.82323900  0.71149900  0.03614300  1
  N  850  1  0.15282100  0.65285100  0.82381100  1
  N  852  1  0.18010000  0.65411900  0.85014200  1
  N  854  1  0.15315900  0.68086100  0.84944000  1
  N  856  1  0.06525200  0.70348900  0.79565700  1
  N  857  1  0.20715700  0.56588200  0.80005200  1
  N  858  1  0.20747900  0.71131600  0.93418300  1
  N  889  1  0.87782900  0.37758100  0.82379300  1
  N  891  1  0.85058800  0.37634400  0.85017800  1
  N  893  1  0.87752700  0.34959900  0.84946100  1
  N  895  1  0.96541400  0.32698300  0.79559500  1
  N  896  1  0.82352700  0.46458000  0.80009300  1
  N  897  1  0.82325500  0.31927100  0.93433500  1
  N  928  1  0.15260100  0.37776100  0.14661600  1
  N  930  1  0.17982200  0.37653300  0.12020700  1
  N  932  1  0.15290000  0.34978600  0.12094700  1
  N  934  1  0.06509400  0.32711100  0.17490300  1
  N  935  1  0.20687600  0.46473600  0.17033800  1
  N  936  1  0.20717300  0.31934000  0.03611100  1
  N  967  1  0.35440600  0.65242800  0.34723400  1
  N  969  1  0.38079800  0.65363500  0.32000100  1
  N  971  1  0.38014300  0.68025800  0.34712700  1
  N  973  1  0.32549300  0.70227000  0.43477500  1
  N  974  1  0.32914100  0.56575300  0.29354100  1
  N  975  1  0.46517000  0.71143300  0.29393400  1
  N  1006  1  0.67617600  0.65249900  0.62315700  1
  N  1008  1  0.64977300  0.65371000  0.65037800  1
  N  1010  1  0.65043300  0.68033800  0.62325200  1
  N  1012  1  0.70509500  0.70233800  0.53562000  1
  N  1013  1  0.70140900  0.56578400  0.67682800  1
  N  1014  1  0.56536700  0.71152500  0.67639000  1
  N  1045  1  0.67614400  0.37811000  0.34735000  1
  N  1047  1  0.64997300  0.37678800  0.31995200  1
  N  1049  1  0.65061800  0.35006300  0.34698000  1
  N  1051  1  0.70499400  0.32823900  0.43484300  1
  N  1052  1  0.70108400  0.46504000  0.29381700  1
  N  1053  1  0.56598800  0.31927000  0.29277900  1
  N  1084  1  0.35430400  0.37819800  0.62294500  1
  N  1086  1  0.38049900  0.37688600  0.65032300  1
  N  1088  1  0.37982400  0.35012900  0.62333300  1
  N  1090  1  0.32543800  0.32825600  0.53550700  1
  N  1091  1  0.32942200  0.46515500  0.67650100  1
  N  1092  1  0.46449100  0.31935800  0.67753400  1
  N  1123  1  0.37550900  0.65168500  0.64834200  1
  N  1125  1  0.34793600  0.65298600  0.62227700  1
  N  1127  1  0.37546500  0.67911300  0.62212900  1
  N  1129  1  0.46344600  0.70263800  0.67517800  1
  N  1130  1  0.31886900  0.56691000  0.67527100  1
  N  1131  1  0.32179800  0.71005300  0.53737700  1
  N  1162  1  0.65502400  0.65157700  0.32216100  1
  N  1164  1  0.68261800  0.65290200  0.34820500  1
  N  1166  1  0.65506700  0.67902400  0.34834500  1
  N  1168  1  0.56707300  0.70252400  0.29528200  1
  N  1169  1  0.71169400  0.56679900  0.29523900  1
  N  1170  1  0.70874900  0.71006800  0.43302800  1
  N  1201  1  0.37508200  0.37931300  0.32200200  1
  N  1203  1  0.34755800  0.37782500  0.34809800  1
  N  1205  1  0.37520500  0.35177800  0.34810000  1
  N  1207  1  0.46327400  0.32938300  0.29457100  1
  N  1208  1  0.31829900  0.46399700  0.29525700  1
  N  1209  1  0.32175100  0.32056300  0.43292800  1
  N  1240  1  0.65543700  0.37935100  0.64837600  1
  N  1242  1  0.68296100  0.37784400  0.62228000  1
  N  1244  1  0.65530300  0.35182600  0.62227200  1
  N  1246  1  0.56721400  0.32949600  0.67577200  1
  N  1247  1  0.71222900  0.46400100  0.67509400  1
  N  1248  1  0.70874800  0.32058300  0.53744700  1
