# generated using pymatgen
data_Zn4H45C78N3O13
_symmetry_space_group_name_H-M   'P 1'
_cell_length_a   15.47390000
_cell_length_b   24.74690000
_cell_length_c   57.18140000
_cell_angle_alpha   90.00000000
_cell_angle_beta   90.00000000
_cell_angle_gamma   94.60200000
_symmetry_Int_Tables_number   1
_chemical_formula_structural   Zn4H45C78N3O13
_chemical_formula_sum   'Zn32 H360 C624 N24 O104'
_cell_volume   21825.94117140
_cell_formula_units_Z   8
loop_
 _symmetry_equiv_pos_site_id
 _symmetry_equiv_pos_as_xyz
  1  'x, y, z'
loop_
 _atom_site_type_symbol
 _atom_site_label
 _atom_site_symmetry_multiplicity
 _atom_site_fract_x
 _atom_site_fract_y
 _atom_site_fract_z
 _atom_site_occupancy
  Zn  Zn1  1  0.45429000  0.24764000  0.54325000  1.0
  Zn  Zn2  1  0.55405000  0.15883000  0.51524000  1.0
  Zn  Zn3  1  0.62724000  0.27929000  0.51639000  1.0
  Zn  Zn4  1  0.45829000  0.25518000  0.48623000  1.0
  Zn  Zn5  1  0.13454000  0.72394000  0.34658000  1.0
  Zn  Zn6  1  0.04038000  0.82336000  0.32120000  1.0
  Zn  Zn7  1  0.96498000  0.69931000  0.31872000  1.0
  Zn  Zn8  1  0.14128000  0.73254000  0.29261000  1.0
  Zn  Zn9  1  0.04571000  0.75236000  0.04325000  1.0
  Zn  Zn10  1  0.94595000  0.84117000  0.01524000  1.0
  Zn  Zn11  1  0.87276000  0.72071000  0.01639000  1.0
  Zn  Zn12  1  0.04171000  0.74482000  0.98623000  1.0
  Zn  Zn13  1  0.36546000  0.27606000  0.84658000  1.0
  Zn  Zn14  1  0.45962000  0.17664000  0.82120000  1.0
  Zn  Zn15  1  0.53502000  0.30069000  0.81872000  1.0
  Zn  Zn16  1  0.35872000  0.26746000  0.79261000  1.0
  Zn  Zn17  1  0.54571000  0.75236000  0.45675000  1.0
  Zn  Zn18  1  0.44595000  0.84117000  0.48476000  1.0
  Zn  Zn19  1  0.37276000  0.72071000  0.48361000  1.0
  Zn  Zn20  1  0.54171000  0.74482000  0.51377000  1.0
  Zn  Zn21  1  0.86546000  0.27606000  0.65342000  1.0
  Zn  Zn22  1  0.95962000  0.17664000  0.67880000  1.0
  Zn  Zn23  1  0.03502000  0.30069000  0.68128000  1.0
  Zn  Zn24  1  0.85872000  0.26746000  0.70739000  1.0
  Zn  Zn25  1  0.95429000  0.24764000  0.95675000  1.0
  Zn  Zn26  1  0.05405000  0.15883000  0.98476000  1.0
  Zn  Zn27  1  0.12724000  0.27929000  0.98361000  1.0
  Zn  Zn28  1  0.95829000  0.25518000  0.01377000  1.0
  Zn  Zn29  1  0.63454000  0.72394000  0.15342000  1.0
  Zn  Zn30  1  0.54038000  0.82336000  0.17880000  1.0
  Zn  Zn31  1  0.46498000  0.69931000  0.18128000  1.0
  Zn  Zn32  1  0.64128000  0.73254000  0.20739000  1.0
  H  H1  1  0.38130000  0.07900000  0.50730000  1.0
  H  H2  1  0.21980000  0.90330000  0.32300000  1.0
  H  H3  1  0.69610000  0.44580000  0.51060000  1.0
  H  H4  1  0.90540000  0.53950000  0.32760000  1.0
  H  H5  1  0.34350000  0.17320000  0.16890000  1.0
  H  H6  1  0.87090000  0.31420000  0.16380000  1.0
  H  H7  1  0.18740000  0.28570000  0.54690000  1.0
  H  H8  1  0.77990000  0.36660000  0.53480000  1.0
  H  H9  1  0.13920000  0.17800000  0.52980000  1.0
  H  H10  1  0.14990000  0.00080000  0.44850000  1.0
  H  H11  1  0.88870000  0.24820000  0.51500000  1.0
  H  H12  1  0.79530000  0.09050000  0.51330000  1.0
  H  H13  1  0.02710000  0.22270000  0.50880000  1.0
  H  H14  1  0.06310000  0.06780000  0.47940000  1.0
  H  H15  1  0.43610000  0.99830000  0.47850000  1.0
  H  H16  1  0.58490000  0.55290000  0.35060000  1.0
  H  H17  1  0.04920000  0.98700000  0.05200000  1.0
  H  H18  1  0.01600000  0.43070000  0.48660000  1.0
  H  H19  1  0.91420000  0.32920000  0.53670000  1.0
  H  H20  1  0.95240000  0.50980000  0.45690000  1.0
  H  H21  1  0.93310000  0.06470000  0.50640000  1.0
  H  H22  1  0.05330000  0.32380000  0.54600000  1.0
  H  H23  1  0.76770000  0.37440000  0.46270000  1.0
  H  H24  1  0.22330000  0.32330000  0.47880000  1.0
  H  H25  1  0.05080000  0.61480000  0.07770000  1.0
  H  H26  1  0.50220000  0.61630000  0.35730000  1.0
  H  H27  1  0.95680000  0.51180000  0.14030000  1.0
  H  H28  1  0.82750000  0.41640000  0.42970000  1.0
  H  H29  1  0.82910000  0.61160000  0.37400000  1.0
  H  H30  1  0.41040000  0.03730000  0.41460000  1.0
  H  H31  1  0.30090000  0.86600000  0.43390000  1.0
  H  H32  1  0.38880000  0.94350000  0.44680000  1.0
  H  H33  1  0.81000000  0.56690000  0.05370000  1.0
  H  H34  1  0.08900000  0.35950000  0.47760000  1.0
  H  H35  1  0.00390000  0.58600000  0.43860000  1.0
  H  H36  1  0.06410000  0.62810000  0.40580000  1.0
  H  H37  1  0.68520000  0.65240000  0.29940000  1.0
  H  H38  1  0.80150000  0.49620000  0.08030000  1.0
  H  H39  1  0.53700000  0.34660000  0.42930000  1.0
  H  H40  1  0.16990000  0.00090000  0.33980000  1.0
  H  H41  1  0.81910000  0.61720000  0.30210000  1.0
  H  H42  1  0.28070000  0.15360000  0.52820000  1.0
  H  H43  1  0.44030000  0.10150000  0.44340000  1.0
  H  H44  1  0.04140000  0.54450000  0.10470000  1.0
  H  H45  1  0.31550000  0.81840000  0.31200000  1.0
  H  H46  1  0.12010000  0.93260000  0.37690000  1.0
  H  H47  1  0.16640000  0.98680000  0.40800000  1.0
  H  H48  1  0.40720000  0.68840000  0.28750000  1.0
  H  H49  1  0.25210000  0.81080000  0.40330000  1.0
  H  H50  1  0.59730000  0.38980000  0.39580000  1.0
  H  H51  1  0.45360000  0.78940000  0.31500000  1.0
  H  H52  1  0.64550000  0.47360000  0.38020000  1.0
  H  H53  1  0.53380000  0.92180000  0.35360000  1.0
  H  H54  1  0.86560000  0.40830000  0.08970000  1.0
  H  H55  1  0.36280000  0.64670000  0.35510000  1.0
  H  H56  1  0.54070000  0.65500000  0.28920000  1.0
  H  H57  1  0.72460000  0.57520000  0.44700000  1.0
  H  H58  1  0.44590000  0.00840000  0.37540000  1.0
  H  H59  1  0.10960000  0.05130000  0.07860000  1.0
  H  H60  1  0.20560000  0.98760000  0.14030000  1.0
  H  H61  1  0.25640000  0.94080000  0.10680000  1.0
  H  H62  1  0.23210000  0.84030000  0.23590000  1.0
  H  H63  1  0.19420000  0.87360000  0.08150000  1.0
  H  H64  1  0.65680000  0.88680000  0.35690000  1.0
  H  H65  1  0.93960000  0.46130000  0.36030000  1.0
  H  H66  1  0.85460000  0.33600000  0.11620000  1.0
  H  H67  1  0.21540000  0.07130000  0.36530000  1.0
  H  H68  1  0.76960000  0.57090000  0.40730000  1.0
  H  H69  1  0.66250000  0.52630000  0.47910000  1.0
  H  H70  1  0.35140000  0.14560000  0.21570000  1.0
  H  H71  1  0.97790000  0.50770000  0.18910000  1.0
  H  H72  1  0.25140000  0.10620000  0.09250000  1.0
  H  H73  1  0.22780000  0.97680000  0.18890000  1.0
  H  H74  1  0.30890000  0.16610000  0.12080000  1.0
  H  H75  1  0.87530000  0.41000000  0.39090000  1.0
  H  H76  1  0.11930000  0.60500000  0.24430000  1.0
  H  H77  1  0.27150000  0.91270000  0.21130000  1.0
  H  H78  1  0.71780000  0.75860000  0.30130000  1.0
  H  H79  1  0.17850000  0.94620000  0.28730000  1.0
  H  H80  1  0.32930000  0.21350000  0.40390000  1.0
  H  H81  1  0.89390000  0.32640000  0.21080000  1.0
  H  H82  1  0.92940000  0.39280000  0.24000000  1.0
  H  H83  1  0.08830000  0.53530000  0.21740000  1.0
  H  H84  1  0.21390000  0.01850000  0.26190000  1.0
  H  H85  1  0.79440000  0.85880000  0.35390000  1.0
  H  H86  1  0.30550000  0.14980000  0.37450000  1.0
  H  H87  1  0.32480000  0.07290000  0.24130000  1.0
  H  H88  1  0.58040000  0.78710000  0.30320000  1.0
  H  H89  1  0.89410000  0.47410000  0.25940000  1.0
  H  H90  1  0.91590000  0.55080000  0.28340000  1.0
  H  H91  1  0.11870000  0.92100000  0.00730000  1.0
  H  H92  1  0.28020000  0.09670000  0.82300000  1.0
  H  H93  1  0.80390000  0.55420000  0.01060000  1.0
  H  H94  1  0.59460000  0.46050000  0.82760000  1.0
  H  H95  1  0.15650000  0.82680000  0.66890000  1.0
  H  H96  1  0.62910000  0.68580000  0.66380000  1.0
  H  H97  1  0.31260000  0.71430000  0.04690000  1.0
  H  H98  1  0.72010000  0.63340000  0.03480000  1.0
  H  H99  1  0.36080000  0.82200000  0.02980000  1.0
  H  H100  1  0.35010000  0.99920000  0.94850000  1.0
  H  H101  1  0.61130000  0.75180000  0.01500000  1.0
  H  H102  1  0.70470000  0.90950000  0.01330000  1.0
  H  H103  1  0.47290000  0.77730000  0.00880000  1.0
  H  H104  1  0.43690000  0.93220000  0.97940000  1.0
  H  H105  1  0.06390000  0.00170000  0.97850000  1.0
  H  H106  1  0.91510000  0.44710000  0.85060000  1.0
  H  H107  1  0.45080000  0.01300000  0.55200000  1.0
  H  H108  1  0.48400000  0.56930000  0.98660000  1.0
  H  H109  1  0.58580000  0.67080000  0.03670000  1.0
  H  H110  1  0.54760000  0.49020000  0.95690000  1.0
  H  H111  1  0.56690000  0.93530000  0.00640000  1.0
  H  H112  1  0.44670000  0.67620000  0.04600000  1.0
  H  H113  1  0.73230000  0.62560000  0.96270000  1.0
  H  H114  1  0.27670000  0.67670000  0.97880000  1.0
  H  H115  1  0.44920000  0.38520000  0.57770000  1.0
  H  H116  1  0.99780000  0.38370000  0.85730000  1.0
  H  H117  1  0.54320000  0.48820000  0.64030000  1.0
  H  H118  1  0.67250000  0.58360000  0.92970000  1.0
  H  H119  1  0.67090000  0.38840000  0.87400000  1.0
  H  H120  1  0.08960000  0.96270000  0.91460000  1.0
  H  H121  1  0.19910000  0.13400000  0.93390000  1.0
  H  H122  1  0.11120000  0.05650000  0.94680000  1.0
  H  H123  1  0.69000000  0.43310000  0.55370000  1.0
  H  H124  1  0.41100000  0.64050000  0.97760000  1.0
  H  H125  1  0.49610000  0.41400000  0.93860000  1.0
  H  H126  1  0.43590000  0.37190000  0.90580000  1.0
  H  H127  1  0.81480000  0.34760000  0.79940000  1.0
  H  H128  1  0.69850000  0.50380000  0.58030000  1.0
  H  H129  1  0.96300000  0.65340000  0.92930000  1.0
  H  H130  1  0.33010000  0.99910000  0.83980000  1.0
  H  H131  1  0.68090000  0.38280000  0.80210000  1.0
  H  H132  1  0.21930000  0.84640000  0.02820000  1.0
  H  H133  1  0.05970000  0.89850000  0.94340000  1.0
  H  H134  1  0.45860000  0.45550000  0.60470000  1.0
  H  H135  1  0.18450000  0.18160000  0.81200000  1.0
  H  H136  1  0.37990000  0.06740000  0.87690000  1.0
  H  H137  1  0.33360000  0.01320000  0.90800000  1.0
  H  H138  1  0.09280000  0.31160000  0.78750000  1.0
  H  H139  1  0.24790000  0.18920000  0.90330000  1.0
  H  H140  1  0.90270000  0.61020000  0.89580000  1.0
  H  H141  1  0.04640000  0.21060000  0.81500000  1.0
  H  H142  1  0.85450000  0.52640000  0.88020000  1.0
  H  H143  1  0.96620000  0.07820000  0.85360000  1.0
  H  H144  1  0.63440000  0.59170000  0.58970000  1.0
  H  H145  1  0.13720000  0.35330000  0.85510000  1.0
  H  H146  1  0.95930000  0.34500000  0.78920000  1.0
  H  H147  1  0.77540000  0.42480000  0.94700000  1.0
  H  H148  1  0.05410000  0.99160000  0.87540000  1.0
  H  H149  1  0.39040000  0.94870000  0.57860000  1.0
  H  H150  1  0.29440000  0.01240000  0.64030000  1.0
  H  H151  1  0.24360000  0.05920000  0.60680000  1.0
  H  H152  1  0.26790000  0.15970000  0.73590000  1.0
  H  H153  1  0.30580000  0.12640000  0.58150000  1.0
  H  H154  1  0.84320000  0.11320000  0.85690000  1.0
  H  H155  1  0.56040000  0.53870000  0.86030000  1.0
  H  H156  1  0.64540000  0.66400000  0.61620000  1.0
  H  H157  1  0.28460000  0.92870000  0.86530000  1.0
  H  H158  1  0.73040000  0.42910000  0.90730000  1.0
  H  H159  1  0.83750000  0.47370000  0.97910000  1.0
  H  H160  1  0.14860000  0.85440000  0.71570000  1.0
  H  H161  1  0.52210000  0.49230000  0.68910000  1.0
  H  H162  1  0.24860000  0.89380000  0.59250000  1.0
  H  H163  1  0.27220000  0.02320000  0.68890000  1.0
  H  H164  1  0.19110000  0.83390000  0.62080000  1.0
  H  H165  1  0.62470000  0.59000000  0.89090000  1.0
  H  H166  1  0.38070000  0.39500000  0.74430000  1.0
  H  H167  1  0.22850000  0.08730000  0.71130000  1.0
  H  H168  1  0.78220000  0.24140000  0.80130000  1.0
  H  H169  1  0.32150000  0.05380000  0.78730000  1.0
  H  H170  1  0.17070000  0.78650000  0.90390000  1.0
  H  H171  1  0.60610000  0.67360000  0.71080000  1.0
  H  H172  1  0.57060000  0.60720000  0.74000000  1.0
  H  H173  1  0.41170000  0.46470000  0.71740000  1.0
  H  H174  1  0.28610000  0.98150000  0.76190000  1.0
  H  H175  1  0.70560000  0.14120000  0.85390000  1.0
  H  H176  1  0.19450000  0.85020000  0.87450000  1.0
  H  H177  1  0.17520000  0.92710000  0.74130000  1.0
  H  H178  1  0.91960000  0.21290000  0.80320000  1.0
  H  H179  1  0.60590000  0.52590000  0.75940000  1.0
  H  H180  1  0.58410000  0.44920000  0.78340000  1.0
  H  H181  1  0.61870000  0.92100000  0.49270000  1.0
  H  H182  1  0.78020000  0.09670000  0.67700000  1.0
  H  H183  1  0.30390000  0.55420000  0.48940000  1.0
  H  H184  1  0.09460000  0.46050000  0.67240000  1.0
  H  H185  1  0.65650000  0.82680000  0.83110000  1.0
  H  H186  1  0.12910000  0.68580000  0.83620000  1.0
  H  H187  1  0.81260000  0.71430000  0.45310000  1.0
  H  H188  1  0.22010000  0.63340000  0.46520000  1.0
  H  H189  1  0.86080000  0.82200000  0.47020000  1.0
  H  H190  1  0.85010000  0.99920000  0.55150000  1.0
  H  H191  1  0.11130000  0.75180000  0.48500000  1.0
  H  H192  1  0.20470000  0.90950000  0.48670000  1.0
  H  H193  1  0.97290000  0.77730000  0.49120000  1.0
  H  H194  1  0.93690000  0.93220000  0.52060000  1.0
  H  H195  1  0.56390000  0.00170000  0.52150000  1.0
  H  H196  1  0.41510000  0.44710000  0.64940000  1.0
  H  H197  1  0.95080000  0.01300000  0.94800000  1.0
  H  H198  1  0.98400000  0.56930000  0.51340000  1.0
  H  H199  1  0.08580000  0.67080000  0.46330000  1.0
  H  H200  1  0.04760000  0.49020000  0.54310000  1.0
  H  H201  1  0.06690000  0.93530000  0.49360000  1.0
  H  H202  1  0.94670000  0.67620000  0.45400000  1.0
  H  H203  1  0.23230000  0.62560000  0.53730000  1.0
  H  H204  1  0.77670000  0.67670000  0.52120000  1.0
  H  H205  1  0.94920000  0.38520000  0.92230000  1.0
  H  H206  1  0.49780000  0.38370000  0.64270000  1.0
  H  H207  1  0.04320000  0.48820000  0.85970000  1.0
  H  H208  1  0.17250000  0.58360000  0.57030000  1.0
  H  H209  1  0.17090000  0.38840000  0.62600000  1.0
  H  H210  1  0.58960000  0.96270000  0.58540000  1.0
  H  H211  1  0.69910000  0.13400000  0.56610000  1.0
  H  H212  1  0.61120000  0.05650000  0.55320000  1.0
  H  H213  1  0.19000000  0.43310000  0.94630000  1.0
  H  H214  1  0.91100000  0.64050000  0.52240000  1.0
  H  H215  1  0.99610000  0.41400000  0.56140000  1.0
  H  H216  1  0.93590000  0.37190000  0.59420000  1.0
  H  H217  1  0.31480000  0.34760000  0.70060000  1.0
  H  H218  1  0.19850000  0.50380000  0.91970000  1.0
  H  H219  1  0.46300000  0.65340000  0.57070000  1.0
  H  H220  1  0.83010000  0.99910000  0.66020000  1.0
  H  H221  1  0.18090000  0.38280000  0.69790000  1.0
  H  H222  1  0.71930000  0.84640000  0.47180000  1.0
  H  H223  1  0.55970000  0.89850000  0.55660000  1.0
  H  H224  1  0.95860000  0.45550000  0.89530000  1.0
  H  H225  1  0.68450000  0.18160000  0.68800000  1.0
  H  H226  1  0.87990000  0.06740000  0.62310000  1.0
  H  H227  1  0.83360000  0.01320000  0.59200000  1.0
  H  H228  1  0.59280000  0.31160000  0.71250000  1.0
  H  H229  1  0.74790000  0.18920000  0.59670000  1.0
  H  H230  1  0.40270000  0.61020000  0.60420000  1.0
  H  H231  1  0.54640000  0.21060000  0.68500000  1.0
  H  H232  1  0.35450000  0.52640000  0.61980000  1.0
  H  H233  1  0.46620000  0.07820000  0.64640000  1.0
  H  H234  1  0.13440000  0.59170000  0.91030000  1.0
  H  H235  1  0.63720000  0.35330000  0.64490000  1.0
  H  H236  1  0.45930000  0.34500000  0.71080000  1.0
  H  H237  1  0.27540000  0.42480000  0.55300000  1.0
  H  H238  1  0.55410000  0.99160000  0.62460000  1.0
  H  H239  1  0.89040000  0.94870000  0.92140000  1.0
  H  H240  1  0.79440000  0.01240000  0.85970000  1.0
  H  H241  1  0.74360000  0.05920000  0.89320000  1.0
  H  H242  1  0.76790000  0.15970000  0.76410000  1.0
  H  H243  1  0.80580000  0.12640000  0.91850000  1.0
  H  H244  1  0.34320000  0.11320000  0.64310000  1.0
  H  H245  1  0.06040000  0.53870000  0.63970000  1.0
  H  H246  1  0.14540000  0.66400000  0.88380000  1.0
  H  H247  1  0.78460000  0.92870000  0.63470000  1.0
  H  H248  1  0.23040000  0.42910000  0.59270000  1.0
  H  H249  1  0.33750000  0.47370000  0.52090000  1.0
  H  H250  1  0.64860000  0.85440000  0.78430000  1.0
  H  H251  1  0.02210000  0.49230000  0.81090000  1.0
  H  H252  1  0.74860000  0.89380000  0.90750000  1.0
  H  H253  1  0.77220000  0.02320000  0.81110000  1.0
  H  H254  1  0.69110000  0.83390000  0.87920000  1.0
  H  H255  1  0.12470000  0.59000000  0.60910000  1.0
  H  H256  1  0.88070000  0.39500000  0.75570000  1.0
  H  H257  1  0.72850000  0.08730000  0.78870000  1.0
  H  H258  1  0.28220000  0.24140000  0.69870000  1.0
  H  H259  1  0.82150000  0.05380000  0.71270000  1.0
  H  H260  1  0.67070000  0.78650000  0.59610000  1.0
  H  H261  1  0.10610000  0.67360000  0.78920000  1.0
  H  H262  1  0.07060000  0.60720000  0.76000000  1.0
  H  H263  1  0.91170000  0.46470000  0.78260000  1.0
  H  H264  1  0.78610000  0.98150000  0.73810000  1.0
  H  H265  1  0.20560000  0.14120000  0.64610000  1.0
  H  H266  1  0.69450000  0.85020000  0.62550000  1.0
  H  H267  1  0.67520000  0.92710000  0.75870000  1.0
  H  H268  1  0.41960000  0.21290000  0.69680000  1.0
  H  H269  1  0.10590000  0.52590000  0.74060000  1.0
  H  H270  1  0.08410000  0.44920000  0.71660000  1.0
  H  H271  1  0.88130000  0.07900000  0.99270000  1.0
  H  H272  1  0.71980000  0.90330000  0.17700000  1.0
  H  H273  1  0.19610000  0.44580000  0.98940000  1.0
  H  H274  1  0.40540000  0.53950000  0.17240000  1.0
  H  H275  1  0.84350000  0.17320000  0.33110000  1.0
  H  H276  1  0.37090000  0.31420000  0.33620000  1.0
  H  H277  1  0.68740000  0.28570000  0.95310000  1.0
  H  H278  1  0.27990000  0.36660000  0.96520000  1.0
  H  H279  1  0.63920000  0.17800000  0.97020000  1.0
  H  H280  1  0.64990000  0.00080000  0.05150000  1.0
  H  H281  1  0.38870000  0.24820000  0.98500000  1.0
  H  H282  1  0.29530000  0.09050000  0.98670000  1.0
  H  H283  1  0.52710000  0.22270000  0.99120000  1.0
  H  H284  1  0.56310000  0.06780000  0.02060000  1.0
  H  H285  1  0.93610000  0.99830000  0.02150000  1.0
  H  H286  1  0.08490000  0.55290000  0.14940000  1.0
  H  H287  1  0.54920000  0.98700000  0.44800000  1.0
  H  H288  1  0.51600000  0.43070000  0.01340000  1.0
  H  H289  1  0.41420000  0.32920000  0.96330000  1.0
  H  H290  1  0.45240000  0.50980000  0.04310000  1.0
  H  H291  1  0.43310000  0.06470000  0.99360000  1.0
  H  H292  1  0.55330000  0.32380000  0.95400000  1.0
  H  H293  1  0.26770000  0.37440000  0.03730000  1.0
  H  H294  1  0.72330000  0.32330000  0.02120000  1.0
  H  H295  1  0.55080000  0.61480000  0.42230000  1.0
  H  H296  1  0.00220000  0.61630000  0.14270000  1.0
  H  H297  1  0.45680000  0.51180000  0.35970000  1.0
  H  H298  1  0.32750000  0.41640000  0.07030000  1.0
  H  H299  1  0.32910000  0.61160000  0.12600000  1.0
  H  H300  1  0.91040000  0.03730000  0.08540000  1.0
  H  H301  1  0.80090000  0.86600000  0.06610000  1.0
  H  H302  1  0.88880000  0.94350000  0.05320000  1.0
  H  H303  1  0.31000000  0.56690000  0.44630000  1.0
  H  H304  1  0.58900000  0.35950000  0.02240000  1.0
  H  H305  1  0.50390000  0.58600000  0.06140000  1.0
  H  H306  1  0.56410000  0.62810000  0.09420000  1.0
  H  H307  1  0.18520000  0.65240000  0.20060000  1.0
  H  H308  1  0.30150000  0.49620000  0.41970000  1.0
  H  H309  1  0.03700000  0.34660000  0.07070000  1.0
  H  H310  1  0.66990000  0.00090000  0.16020000  1.0
  H  H311  1  0.31910000  0.61720000  0.19790000  1.0
  H  H312  1  0.78070000  0.15360000  0.97180000  1.0
  H  H313  1  0.94030000  0.10150000  0.05660000  1.0
  H  H314  1  0.54140000  0.54450000  0.39530000  1.0
  H  H315  1  0.81550000  0.81840000  0.18800000  1.0
  H  H316  1  0.62010000  0.93260000  0.12310000  1.0
  H  H317  1  0.66640000  0.98680000  0.09200000  1.0
  H  H318  1  0.90720000  0.68840000  0.21250000  1.0
  H  H319  1  0.75210000  0.81080000  0.09670000  1.0
  H  H320  1  0.09730000  0.38980000  0.10420000  1.0
  H  H321  1  0.95360000  0.78940000  0.18500000  1.0
  H  H322  1  0.14550000  0.47360000  0.11980000  1.0
  H  H323  1  0.03380000  0.92180000  0.14640000  1.0
  H  H324  1  0.36560000  0.40830000  0.41030000  1.0
  H  H325  1  0.86280000  0.64670000  0.14490000  1.0
  H  H326  1  0.04070000  0.65500000  0.21080000  1.0
  H  H327  1  0.22460000  0.57520000  0.05300000  1.0
  H  H328  1  0.94590000  0.00840000  0.12460000  1.0
  H  H329  1  0.60960000  0.05130000  0.42140000  1.0
  H  H330  1  0.70560000  0.98760000  0.35970000  1.0
  H  H331  1  0.75640000  0.94080000  0.39320000  1.0
  H  H332  1  0.73210000  0.84030000  0.26410000  1.0
  H  H333  1  0.69420000  0.87360000  0.41850000  1.0
  H  H334  1  0.15680000  0.88680000  0.14310000  1.0
  H  H335  1  0.43960000  0.46130000  0.13970000  1.0
  H  H336  1  0.35460000  0.33600000  0.38380000  1.0
  H  H337  1  0.71540000  0.07130000  0.13470000  1.0
  H  H338  1  0.26960000  0.57090000  0.09270000  1.0
  H  H339  1  0.16250000  0.52630000  0.02090000  1.0
  H  H340  1  0.85140000  0.14560000  0.28430000  1.0
  H  H341  1  0.47790000  0.50770000  0.31090000  1.0
  H  H342  1  0.75140000  0.10620000  0.40750000  1.0
  H  H343  1  0.72780000  0.97680000  0.31110000  1.0
  H  H344  1  0.80890000  0.16610000  0.37920000  1.0
  H  H345  1  0.37530000  0.41000000  0.10910000  1.0
  H  H346  1  0.61930000  0.60500000  0.25570000  1.0
  H  H347  1  0.77150000  0.91270000  0.28870000  1.0
  H  H348  1  0.21780000  0.75860000  0.19870000  1.0
  H  H349  1  0.67850000  0.94620000  0.21270000  1.0
  H  H350  1  0.82930000  0.21350000  0.09610000  1.0
  H  H351  1  0.39390000  0.32640000  0.28920000  1.0
  H  H352  1  0.42940000  0.39280000  0.26000000  1.0
  H  H353  1  0.58830000  0.53530000  0.28260000  1.0
  H  H354  1  0.71390000  0.01850000  0.23810000  1.0
  H  H355  1  0.29440000  0.85880000  0.14610000  1.0
  H  H356  1  0.80550000  0.14980000  0.12550000  1.0
  H  H357  1  0.82480000  0.07290000  0.25870000  1.0
  H  H358  1  0.08040000  0.78710000  0.19680000  1.0
  H  H359  1  0.39410000  0.47410000  0.24060000  1.0
  H  H360  1  0.41590000  0.55080000  0.21660000  1.0
  C  C1  1  0.25590000  0.09460000  0.50325000  1.0
  C  C2  1  0.71190000  0.54380000  0.34272000  1.0
  C  C3  1  0.73830000  0.18902000  0.51840000  1.0
  C  C4  1  0.30660000  0.27977000  0.51345000  1.0
  C  C5  1  0.81960000  0.42160000  0.50875000  1.0
  C  C6  1  0.21920000  0.30160000  0.51309000  1.0
  C  C7  1  0.19170000  0.07036000  0.48799000  1.0
  C  C8  1  0.99630000  0.14040000  0.50765000  1.0
  C  C9  1  0.16820000  0.30139000  0.53287000  1.0
  C  C10  1  0.08640000  0.12465000  0.50508000  1.0
  C  C11  1  0.32120000  0.03260000  0.48170000  1.0
  C  C12  1  0.88880000  0.44030000  0.49445000  1.0
  C  C13  1  0.82680000  0.37930000  0.52497000  1.0
  C  C14  1  0.15320000  0.15010000  0.51937000  1.0
  C  C15  1  0.36570000  0.96510000  0.35255000  1.0
  C  C16  1  0.61120000  0.32470000  0.47006000  1.0
  C  C17  1  0.23410000  0.03189000  0.47371000  1.0
  C  C18  1  0.11160000  0.92310000  0.06490000  1.0
  C  C19  1  0.78240000  0.56320000  0.32865000  1.0
  C  C20  1  0.20700000  0.00000000  0.45450000  1.0
  C  C21  1  0.97690000  0.37460000  0.51143000  1.0
  C  C22  1  0.06090000  0.34720000  0.51196000  1.0
  C  C23  1  0.95280000  0.62540000  0.38658000  1.0
  C  C24  1  0.89780000  0.21090000  0.51340000  1.0
  C  C25  1  0.84250000  0.11740000  0.51230000  1.0
  C  C26  1  0.93920000  0.64530000  0.04666000  1.0
  C  C27  1  0.82740000  0.17220000  0.51471000  1.0
  C  C28  1  0.98010000  0.19560000  0.50982000  1.0
  C  C29  1  0.85820000  0.48170000  0.47909000  1.0
  C  C30  1  0.40810000  0.91830000  0.34351000  1.0
  C  C31  1  0.10670000  0.08490000  0.48925000  1.0
  C  C32  1  0.92500000  0.43480000  0.15190000  1.0
  C  C33  1  0.23750000  0.93240000  0.42411000  1.0
  C  C34  1  0.37910000  0.99920000  0.47245000  1.0
  C  C35  1  0.74160000  0.50330000  0.35797000  1.0
  C  C36  1  0.63180000  0.56600000  0.34087000  1.0
  C  C37  1  0.17960000  0.86530000  0.38668000  1.0
  C  C38  1  0.26580000  0.96690000  0.44430000  1.0
  C  C39  1  0.08920000  0.97690000  0.06352000  1.0
  C  C40  1  0.06950000  0.87970000  0.04959000  1.0
  C  C41  1  0.51000000  0.85470000  0.33303000  1.0
  C  C42  1  0.96830000  0.41730000  0.49600000  1.0
  C  C43  1  0.93160000  0.59860000  0.06314000  1.0
  C  C44  1  0.84290000  0.54480000  0.44762000  1.0
  C  C45  1  0.90680000  0.35741000  0.52579000  1.0
  C  C46  1  0.88040000  0.57230000  0.42659000  1.0
  C  C47  1  0.89300000  0.51160000  0.46074000  1.0
  C  C48  1  0.64710000  0.35370000  0.44897000  1.0
  C  C49  1  0.92470000  0.10200000  0.50850000  1.0
  C  C50  1  0.08850000  0.32410000  0.53236000  1.0
  C  C51  1  0.73340000  0.37670000  0.44898000  1.0
  C  C52  1  0.71780000  0.40810000  0.40940000  1.0
  C  C53  1  0.53660000  0.63130000  0.32341000  1.0
  C  C54  1  0.18890000  0.32350000  0.49253000  1.0
  C  C55  1  0.99980000  0.59070000  0.07834000  1.0
  C  C56  1  0.48250000  0.63020000  0.34296000  1.0
  C  C57  1  0.93480000  0.47650000  0.13554000  1.0
  C  C58  1  0.62040000  0.60690000  0.32498000  1.0
  C  C59  1  0.60020000  0.83720000  0.33204000  1.0
  C  C60  1  0.76850000  0.40240000  0.42958000  1.0
  C  C61  1  0.86480000  0.60690000  0.38722000  1.0
  C  C62  1  0.35420000  0.08760000  0.39175000  1.0
  C  C63  1  0.39480000  0.07340000  0.41240000  1.0
  C  C64  1  0.26350000  0.87920000  0.42242000  1.0
  C  C65  1  0.34990000  0.96680000  0.45361000  1.0
  C  C66  1  0.85710000  0.56240000  0.06399000  1.0
  C  C67  1  0.10970000  0.34560000  0.49181000  1.0
  C  C68  1  0.98970000  0.65470000  0.36553000  1.0
  C  C69  1  0.15080000  0.82970000  0.36730000  1.0
  C  C70  1  0.96800000  0.59100000  0.42548000  1.0
  C  C71  1  0.34330000  0.88880000  0.33041000  1.0
  C  C72  1  0.37130000  0.67190000  0.32138000  1.0
  C  C73  1  0.00410000  0.61650000  0.40603000  1.0
  C  C74  1  0.83080000  0.49990000  0.35204000  1.0
  C  C75  1  0.69280000  0.62470000  0.31055000  1.0
  C  C76  1  0.85240000  0.52030000  0.07976000  1.0
  C  C77  1  0.91240000  0.46660000  0.11222000  1.0
  C  C78  1  0.77090000  0.48640000  0.48568000  1.0
  C  C79  1  0.59620000  0.36020000  0.42927000  1.0
  C  C80  1  0.92090000  0.51240000  0.09493000  1.0
  C  C81  1  0.22530000  0.00190000  0.34704000  1.0
  C  C82  1  0.22120000  0.04140000  0.11368000  1.0
  C  C83  1  0.77250000  0.60430000  0.31195000  1.0
  C  C84  1  0.28100000  0.96190000  0.34263000  1.0
  C  C85  1  0.23700000  0.13600000  0.51864000  1.0
  C  C86  1  0.41200000  0.11120000  0.42947000  1.0
  C  C87  1  0.40780000  0.20720000  0.44508000  1.0
  C  C88  1  0.99470000  0.54870000  0.09426000  1.0
  C  C89  1  0.35990000  0.83970000  0.32002000  1.0
  C  C90  1  0.15600000  0.91860000  0.38858000  1.0
  C  C91  1  0.38800000  0.16450000  0.42659000  1.0
  C  C92  1  0.18410000  0.95100000  0.40701000  1.0
  C  C93  1  0.42600000  0.67340000  0.30170000  1.0
  C  C94  1  0.23470000  0.84670000  0.40422000  1.0
  C  C95  1  0.63190000  0.38660000  0.40939000  1.0
  C  C96  1  0.44190000  0.82320000  0.32170000  1.0
  C  C97  1  0.76980000  0.80240000  0.32851000  1.0
  C  C98  1  0.75610000  0.43900000  0.38901000  1.0
  C  C99  1  0.70500000  0.47210000  0.37635000  1.0
  C  C100  1  0.49040000  0.90160000  0.34476000  1.0
  C  C101  1  0.85590000  0.78020000  0.32735000  1.0
  C  C102  1  0.26970000  0.05440000  0.17845000  1.0
  C  C103  1  0.19970000  0.88650000  0.26445000  1.0
  C  C104  1  0.28440000  0.69190000  0.32046000  1.0
  C  C105  1  0.88160000  0.41470000  0.10558000  1.0
  C  C106  1  0.39960000  0.64930000  0.34177000  1.0
  C  C107  1  0.17190000  0.84010000  0.28005000  1.0
  C  C108  1  0.18720000  0.00100000  0.09550000  1.0
  C  C109  1  0.50530000  0.65360000  0.30280000  1.0
  C  C110  1  0.33460000  0.04500000  0.37350000  1.0
  C  C111  1  0.75800000  0.55070000  0.45514000  1.0
  C  C112  1  0.39030000  0.00680000  0.36833000  1.0
  C  C113  1  0.12610000  0.01520000  0.07911000  1.0
  C  C114  1  0.22520000  0.02380000  0.13647000  1.0
  C  C115  1  0.21290000  0.94950000  0.09600000  1.0
  C  C116  1  0.22900000  0.87640000  0.24124000  1.0
  C  C117  1  0.17620000  0.90940000  0.08097000  1.0
  C  C118  1  0.66770000  0.85940000  0.34595000  1.0
  C  C119  1  0.88060000  0.46460000  0.36437000  1.0
  C  C120  1  0.87340000  0.37150000  0.12128000  1.0
  C  C121  1  0.25250000  0.04330000  0.36227000  1.0
  C  C122  1  0.25790000  0.05870000  0.15395000  1.0
  C  C123  1  0.82980000  0.58190000  0.40695000  1.0
  C  C124  1  0.29300000  0.11240000  0.14780000  1.0
  C  C125  1  0.72020000  0.52180000  0.47427000  1.0
  C  C126  1  0.32750000  0.11140000  0.21018000  1.0
  C  C127  1  0.89360000  0.38220000  0.14485000  1.0
  C  C128  1  0.96170000  0.47120000  0.19346000  1.0
  C  C129  1  0.96310000  0.45570000  0.21740000  1.0
  C  C130  1  0.25360000  0.09440000  0.10825000  1.0
  C  C131  1  0.27070000  0.01870000  0.21790000  1.0
  C  C132  1  0.93680000  0.43340000  0.17666000  1.0
  C  C133  1  0.25210000  0.01090000  0.19436000  1.0
  C  C134  1  0.28850000  0.13010000  0.12496000  1.0
  C  C135  1  0.84220000  0.43440000  0.38257000  1.0
  C  C136  1  0.07030000  0.58000000  0.24682000  1.0
  C  C137  1  0.25250000  0.91950000  0.22679000  1.0
  C  C138  1  0.70480000  0.78380000  0.31307000  1.0
  C  C139  1  0.01880000  0.58670000  0.26560000  1.0
  C  C140  1  0.24910000  0.97310000  0.23432000  1.0
  C  C141  1  0.19640000  0.93920000  0.27176000  1.0
  C  C142  1  0.98630000  0.49760000  0.23495000  1.0
  C  C143  1  0.34690000  0.17790000  0.40602000  1.0
  C  C144  1  0.91020000  0.36290000  0.20660000  1.0
  C  C145  1  0.93360000  0.40230000  0.22389000  1.0
  C  C146  1  0.30900000  0.10290000  0.18656000  1.0
  C  C147  1  0.05340000  0.53720000  0.23103000  1.0
  C  C148  1  0.21910000  0.98240000  0.25676000  1.0
  C  C149  1  0.74990000  0.84250000  0.34417000  1.0
  C  C150  1  0.33180000  0.13990000  0.38875000  1.0
  C  C151  1  0.91180000  0.37880000  0.18378000  1.0
  C  C152  1  0.30980000  0.06840000  0.22530000  1.0
  C  C153  1  0.02960000  0.63680000  0.28017000  1.0
  C  C154  1  0.62270000  0.80020000  0.31425000  1.0
  C  C155  1  0.93740000  0.50200000  0.25546000  1.0
  C  C156  1  0.95210000  0.54720000  0.27016000  1.0
  C  C157  1  0.24410000  0.90540000  0.00325000  1.0
  C  C158  1  0.78810000  0.45620000  0.84272000  1.0
  C  C159  1  0.76170000  0.81098000  0.01840000  1.0
  C  C160  1  0.19340000  0.72023000  0.01345000  1.0
  C  C161  1  0.68040000  0.57840000  0.00875000  1.0
  C  C162  1  0.28080000  0.69840000  0.01309000  1.0
  C  C163  1  0.30830000  0.92964000  0.98799000  1.0
  C  C164  1  0.50370000  0.85960000  0.00765000  1.0
  C  C165  1  0.33180000  0.69861000  0.03287000  1.0
  C  C166  1  0.41360000  0.87535000  0.00508000  1.0
  C  C167  1  0.17880000  0.96740000  0.98170000  1.0
  C  C168  1  0.61120000  0.55970000  0.99445000  1.0
  C  C169  1  0.67320000  0.62070000  0.02497000  1.0
  C  C170  1  0.34680000  0.84990000  0.01937000  1.0
  C  C171  1  0.13430000  0.03490000  0.85255000  1.0
  C  C172  1  0.88880000  0.67530000  0.97006000  1.0
  C  C173  1  0.26590000  0.96811000  0.97371000  1.0
  C  C174  1  0.38840000  0.07690000  0.56490000  1.0
  C  C175  1  0.71760000  0.43680000  0.82865000  1.0
  C  C176  1  0.29300000  0.00000000  0.95450000  1.0
  C  C177  1  0.52310000  0.62540000  0.01143000  1.0
  C  C178  1  0.43910000  0.65280000  0.01196000  1.0
  C  C179  1  0.54720000  0.37460000  0.88658000  1.0
  C  C180  1  0.60220000  0.78910000  0.01340000  1.0
  C  C181  1  0.65750000  0.88260000  0.01230000  1.0
  C  C182  1  0.56080000  0.35470000  0.54666000  1.0
  C  C183  1  0.67260000  0.82780000  0.01471000  1.0
  C  C184  1  0.51990000  0.80440000  0.00982000  1.0
  C  C185  1  0.64180000  0.51830000  0.97909000  1.0
  C  C186  1  0.09190000  0.08170000  0.84351000  1.0
  C  C187  1  0.39330000  0.91510000  0.98925000  1.0
  C  C188  1  0.57500000  0.56520000  0.65190000  1.0
  C  C189  1  0.26250000  0.06760000  0.92411000  1.0
  C  C190  1  0.12090000  0.00080000  0.97245000  1.0
  C  C191  1  0.75840000  0.49670000  0.85797000  1.0
  C  C192  1  0.86820000  0.43400000  0.84087000  1.0
  C  C193  1  0.32040000  0.13470000  0.88668000  1.0
  C  C194  1  0.23420000  0.03310000  0.94430000  1.0
  C  C195  1  0.41080000  0.02310000  0.56352000  1.0
  C  C196  1  0.43050000  0.12030000  0.54959000  1.0
  C  C197  1  0.99000000  0.14530000  0.83303000  1.0
  C  C198  1  0.53170000  0.58270000  0.99600000  1.0
  C  C199  1  0.56840000  0.40140000  0.56314000  1.0
  C  C200  1  0.65710000  0.45520000  0.94762000  1.0
  C  C201  1  0.59320000  0.64259000  0.02579000  1.0
  C  C202  1  0.61960000  0.42770000  0.92659000  1.0
  C  C203  1  0.60700000  0.48840000  0.96074000  1.0
  C  C204  1  0.85290000  0.64630000  0.94897000  1.0
  C  C205  1  0.57530000  0.89800000  0.00850000  1.0
  C  C206  1  0.41150000  0.67590000  0.03236000  1.0
  C  C207  1  0.76660000  0.62330000  0.94898000  1.0
  C  C208  1  0.78220000  0.59190000  0.90940000  1.0
  C  C209  1  0.96340000  0.36870000  0.82341000  1.0
  C  C210  1  0.31110000  0.67650000  0.99253000  1.0
  C  C211  1  0.50020000  0.40930000  0.57834000  1.0
  C  C212  1  0.01750000  0.36980000  0.84296000  1.0
  C  C213  1  0.56520000  0.52350000  0.63554000  1.0
  C  C214  1  0.87960000  0.39310000  0.82498000  1.0
  C  C215  1  0.89980000  0.16280000  0.83204000  1.0
  C  C216  1  0.73150000  0.59760000  0.92958000  1.0
  C  C217  1  0.63520000  0.39310000  0.88722000  1.0
  C  C218  1  0.14580000  0.91240000  0.89175000  1.0
  C  C219  1  0.10520000  0.92660000  0.91240000  1.0
  C  C220  1  0.23650000  0.12080000  0.92242000  1.0
  C  C221  1  0.15010000  0.03320000  0.95361000  1.0
  C  C222  1  0.64290000  0.43760000  0.56399000  1.0
  C  C223  1  0.39030000  0.65440000  0.99181000  1.0
  C  C224  1  0.51030000  0.34530000  0.86553000  1.0
  C  C225  1  0.34920000  0.17030000  0.86730000  1.0
  C  C226  1  0.53200000  0.40900000  0.92548000  1.0
  C  C227  1  0.15670000  0.11120000  0.83041000  1.0
  C  C228  1  0.12870000  0.32810000  0.82138000  1.0
  C  C229  1  0.49590000  0.38350000  0.90603000  1.0
  C  C230  1  0.66920000  0.50010000  0.85204000  1.0
  C  C231  1  0.80720000  0.37530000  0.81055000  1.0
  C  C232  1  0.64760000  0.47970000  0.57976000  1.0
  C  C233  1  0.58760000  0.53340000  0.61222000  1.0
  C  C234  1  0.72910000  0.51360000  0.98568000  1.0
  C  C235  1  0.90380000  0.63980000  0.92927000  1.0
  C  C236  1  0.57910000  0.48760000  0.59493000  1.0
  C  C237  1  0.27470000  0.99810000  0.84704000  1.0
  C  C238  1  0.27880000  0.95860000  0.61368000  1.0
  C  C239  1  0.72750000  0.39570000  0.81195000  1.0
  C  C240  1  0.21900000  0.03810000  0.84263000  1.0
  C  C241  1  0.26300000  0.86400000  0.01864000  1.0
  C  C242  1  0.08800000  0.88880000  0.92947000  1.0
  C  C243  1  0.09220000  0.79280000  0.94508000  1.0
  C  C244  1  0.50530000  0.45130000  0.59426000  1.0
  C  C245  1  0.14010000  0.16030000  0.82002000  1.0
  C  C246  1  0.34400000  0.08140000  0.88858000  1.0
  C  C247  1  0.11200000  0.83550000  0.92659000  1.0
  C  C248  1  0.31590000  0.04900000  0.90701000  1.0
  C  C249  1  0.07400000  0.32660000  0.80170000  1.0
  C  C250  1  0.26530000  0.15330000  0.90422000  1.0
  C  C251  1  0.86810000  0.61340000  0.90939000  1.0
  C  C252  1  0.05810000  0.17680000  0.82170000  1.0
  C  C253  1  0.73020000  0.19760000  0.82851000  1.0
  C  C254  1  0.74390000  0.56100000  0.88901000  1.0
  C  C255  1  0.79500000  0.52790000  0.87635000  1.0
  C  C256  1  0.00960000  0.09840000  0.84476000  1.0
  C  C257  1  0.64410000  0.21980000  0.82735000  1.0
  C  C258  1  0.23030000  0.94560000  0.67845000  1.0
  C  C259  1  0.30030000  0.11350000  0.76445000  1.0
  C  C260  1  0.21560000  0.30810000  0.82046000  1.0
  C  C261  1  0.61840000  0.58530000  0.60558000  1.0
  C  C262  1  0.10040000  0.35070000  0.84177000  1.0
  C  C263  1  0.32810000  0.15990000  0.78005000  1.0
  C  C264  1  0.31280000  0.99900000  0.59550000  1.0
  C  C265  1  0.99470000  0.34640000  0.80280000  1.0
  C  C266  1  0.16540000  0.95500000  0.87350000  1.0
  C  C267  1  0.74200000  0.44930000  0.95514000  1.0
  C  C268  1  0.10970000  0.99320000  0.86833000  1.0
  C  C269  1  0.37390000  0.98480000  0.57911000  1.0
  C  C270  1  0.27480000  0.97620000  0.63647000  1.0
  C  C271  1  0.28710000  0.05050000  0.59600000  1.0
  C  C272  1  0.27100000  0.12360000  0.74124000  1.0
  C  C273  1  0.32380000  0.09060000  0.58097000  1.0
  C  C274  1  0.83230000  0.14060000  0.84595000  1.0
  C  C275  1  0.61940000  0.53540000  0.86437000  1.0
  C  C276  1  0.62660000  0.62850000  0.62128000  1.0
  C  C277  1  0.24750000  0.95670000  0.86227000  1.0
  C  C278  1  0.24210000  0.94130000  0.65395000  1.0
  C  C279  1  0.67020000  0.41810000  0.90695000  1.0
  C  C280  1  0.20700000  0.88760000  0.64780000  1.0
  C  C281  1  0.77980000  0.47820000  0.97427000  1.0
  C  C282  1  0.17250000  0.88860000  0.71018000  1.0
  C  C283  1  0.60640000  0.61780000  0.64485000  1.0
  C  C284  1  0.53830000  0.52880000  0.69346000  1.0
  C  C285  1  0.53690000  0.54430000  0.71740000  1.0
  C  C286  1  0.24640000  0.90560000  0.60825000  1.0
  C  C287  1  0.22930000  0.98130000  0.71790000  1.0
  C  C288  1  0.56320000  0.56660000  0.67666000  1.0
  C  C289  1  0.24790000  0.98910000  0.69436000  1.0
  C  C290  1  0.21150000  0.86990000  0.62496000  1.0
  C  C291  1  0.65780000  0.56560000  0.88257000  1.0
  C  C292  1  0.42970000  0.42000000  0.74682000  1.0
  C  C293  1  0.24750000  0.08050000  0.72679000  1.0
  C  C294  1  0.79520000  0.21620000  0.81307000  1.0
  C  C295  1  0.48120000  0.41330000  0.76560000  1.0
  C  C296  1  0.25090000  0.02690000  0.73432000  1.0
  C  C297  1  0.30360000  0.06080000  0.77176000  1.0
  C  C298  1  0.51370000  0.50240000  0.73495000  1.0
  C  C299  1  0.15310000  0.82210000  0.90602000  1.0
  C  C300  1  0.58980000  0.63710000  0.70660000  1.0
  C  C301  1  0.56640000  0.59770000  0.72389000  1.0
  C  C302  1  0.19100000  0.89710000  0.68656000  1.0
  C  C303  1  0.44660000  0.46280000  0.73103000  1.0
  C  C304  1  0.28090000  0.01760000  0.75676000  1.0
  C  C305  1  0.75010000  0.15750000  0.84417000  1.0
  C  C306  1  0.16820000  0.86010000  0.88875000  1.0
  C  C307  1  0.58820000  0.62120000  0.68378000  1.0
  C  C308  1  0.19020000  0.93160000  0.72530000  1.0
  C  C309  1  0.47040000  0.36320000  0.78017000  1.0
  C  C310  1  0.87730000  0.19980000  0.81425000  1.0
  C  C311  1  0.56260000  0.49800000  0.75546000  1.0
  C  C312  1  0.54790000  0.45280000  0.77016000  1.0
  C  C313  1  0.74410000  0.90540000  0.49675000  1.0
  C  C314  1  0.28810000  0.45620000  0.65728000  1.0
  C  C315  1  0.26170000  0.81098000  0.48160000  1.0
  C  C316  1  0.69340000  0.72023000  0.48655000  1.0
  C  C317  1  0.18040000  0.57840000  0.49125000  1.0
  C  C318  1  0.78080000  0.69840000  0.48691000  1.0
  C  C319  1  0.80830000  0.92964000  0.51201000  1.0
  C  C320  1  0.00370000  0.85960000  0.49235000  1.0
  C  C321  1  0.83180000  0.69861000  0.46713000  1.0
  C  C322  1  0.91360000  0.87535000  0.49492000  1.0
  C  C323  1  0.67880000  0.96740000  0.51830000  1.0
  C  C324  1  0.11120000  0.55970000  0.50555000  1.0
  C  C325  1  0.17320000  0.62070000  0.47503000  1.0
  C  C326  1  0.84680000  0.84990000  0.48063000  1.0
  C  C327  1  0.63430000  0.03490000  0.64745000  1.0
  C  C328  1  0.38880000  0.67530000  0.52994000  1.0
  C  C329  1  0.76590000  0.96811000  0.52629000  1.0
  C  C330  1  0.88840000  0.07690000  0.93510000  1.0
  C  C331  1  0.21760000  0.43680000  0.67135000  1.0
  C  C332  1  0.79300000  0.00000000  0.54550000  1.0
  C  C333  1  0.02310000  0.62540000  0.48857000  1.0
  C  C334  1  0.93910000  0.65280000  0.48804000  1.0
  C  C335  1  0.04720000  0.37460000  0.61342000  1.0
  C  C336  1  0.10220000  0.78910000  0.48660000  1.0
  C  C337  1  0.15750000  0.88260000  0.48770000  1.0
  C  C338  1  0.06080000  0.35470000  0.95334000  1.0
  C  C339  1  0.17260000  0.82780000  0.48529000  1.0
  C  C340  1  0.01990000  0.80440000  0.49018000  1.0
  C  C341  1  0.14180000  0.51830000  0.52091000  1.0
  C  C342  1  0.59190000  0.08170000  0.65649000  1.0
  C  C343  1  0.89330000  0.91510000  0.51075000  1.0
  C  C344  1  0.07500000  0.56520000  0.84810000  1.0
  C  C345  1  0.76250000  0.06760000  0.57589000  1.0
  C  C346  1  0.62090000  0.00080000  0.52755000  1.0
  C  C347  1  0.25840000  0.49670000  0.64203000  1.0
  C  C348  1  0.36820000  0.43400000  0.65913000  1.0
  C  C349  1  0.82040000  0.13470000  0.61332000  1.0
  C  C350  1  0.73420000  0.03310000  0.55570000  1.0
  C  C351  1  0.91080000  0.02310000  0.93648000  1.0
  C  C352  1  0.93050000  0.12030000  0.95041000  1.0
  C  C353  1  0.49000000  0.14530000  0.66697000  1.0
  C  C354  1  0.03170000  0.58270000  0.50400000  1.0
  C  C355  1  0.06840000  0.40140000  0.93686000  1.0
  C  C356  1  0.15710000  0.45520000  0.55238000  1.0
  C  C357  1  0.09320000  0.64259000  0.47421000  1.0
  C  C358  1  0.11960000  0.42770000  0.57341000  1.0
  C  C359  1  0.10700000  0.48840000  0.53926000  1.0
  C  C360  1  0.35290000  0.64630000  0.55103000  1.0
  C  C361  1  0.07530000  0.89800000  0.49150000  1.0
  C  C362  1  0.91150000  0.67590000  0.46764000  1.0
  C  C363  1  0.26660000  0.62330000  0.55102000  1.0
  C  C364  1  0.28220000  0.59190000  0.59060000  1.0
  C  C365  1  0.46340000  0.36870000  0.67659000  1.0
  C  C366  1  0.81110000  0.67650000  0.50747000  1.0
  C  C367  1  0.00020000  0.40930000  0.92166000  1.0
  C  C368  1  0.51750000  0.36980000  0.65704000  1.0
  C  C369  1  0.06520000  0.52350000  0.86446000  1.0
  C  C370  1  0.37960000  0.39310000  0.67502000  1.0
  C  C371  1  0.39980000  0.16280000  0.66796000  1.0
  C  C372  1  0.23150000  0.59760000  0.57042000  1.0
  C  C373  1  0.13520000  0.39310000  0.61278000  1.0
  C  C374  1  0.64580000  0.91240000  0.60825000  1.0
  C  C375  1  0.60520000  0.92660000  0.58760000  1.0
  C  C376  1  0.73650000  0.12080000  0.57758000  1.0
  C  C377  1  0.65010000  0.03320000  0.54639000  1.0
  C  C378  1  0.14290000  0.43760000  0.93601000  1.0
  C  C379  1  0.89030000  0.65440000  0.50819000  1.0
  C  C380  1  0.01030000  0.34530000  0.63447000  1.0
  C  C381  1  0.84920000  0.17030000  0.63270000  1.0
  C  C382  1  0.03200000  0.40900000  0.57452000  1.0
  C  C383  1  0.65670000  0.11120000  0.66959000  1.0
  C  C384  1  0.62870000  0.32810000  0.67862000  1.0
  C  C385  1  0.99590000  0.38350000  0.59397000  1.0
  C  C386  1  0.16920000  0.50010000  0.64796000  1.0
  C  C387  1  0.30720000  0.37530000  0.68945000  1.0
  C  C388  1  0.14760000  0.47970000  0.92024000  1.0
  C  C389  1  0.08760000  0.53340000  0.88778000  1.0
  C  C390  1  0.22910000  0.51360000  0.51432000  1.0
  C  C391  1  0.40380000  0.63980000  0.57073000  1.0
  C  C392  1  0.07910000  0.48760000  0.90507000  1.0
  C  C393  1  0.77470000  0.99810000  0.65296000  1.0
  C  C394  1  0.77880000  0.95860000  0.88632000  1.0
  C  C395  1  0.22750000  0.39570000  0.68805000  1.0
  C  C396  1  0.71900000  0.03810000  0.65737000  1.0
  C  C397  1  0.76300000  0.86400000  0.48136000  1.0
  C  C398  1  0.58800000  0.88880000  0.57053000  1.0
  C  C399  1  0.59220000  0.79280000  0.55492000  1.0
  C  C400  1  0.00530000  0.45130000  0.90574000  1.0
  C  C401  1  0.64010000  0.16030000  0.67998000  1.0
  C  C402  1  0.84400000  0.08140000  0.61142000  1.0
  C  C403  1  0.61200000  0.83550000  0.57341000  1.0
  C  C404  1  0.81590000  0.04900000  0.59299000  1.0
  C  C405  1  0.57400000  0.32660000  0.69830000  1.0
  C  C406  1  0.76530000  0.15330000  0.59578000  1.0
  C  C407  1  0.36810000  0.61340000  0.59061000  1.0
  C  C408  1  0.55810000  0.17680000  0.67830000  1.0
  C  C409  1  0.23020000  0.19760000  0.67149000  1.0
  C  C410  1  0.24390000  0.56100000  0.61099000  1.0
  C  C411  1  0.29500000  0.52790000  0.62365000  1.0
  C  C412  1  0.50960000  0.09840000  0.65524000  1.0
  C  C413  1  0.14410000  0.21980000  0.67265000  1.0
  C  C414  1  0.73030000  0.94560000  0.82155000  1.0
  C  C415  1  0.80030000  0.11350000  0.73555000  1.0
  C  C416  1  0.71560000  0.30810000  0.67954000  1.0
  C  C417  1  0.11840000  0.58530000  0.89442000  1.0
  C  C418  1  0.60040000  0.35070000  0.65823000  1.0
  C  C419  1  0.82810000  0.15990000  0.71995000  1.0
  C  C420  1  0.81280000  0.99900000  0.90450000  1.0
  C  C421  1  0.49470000  0.34640000  0.69720000  1.0
  C  C422  1  0.66540000  0.95500000  0.62650000  1.0
  C  C423  1  0.24200000  0.44930000  0.54486000  1.0
  C  C424  1  0.60970000  0.99320000  0.63167000  1.0
  C  C425  1  0.87390000  0.98480000  0.92089000  1.0
  C  C426  1  0.77480000  0.97620000  0.86353000  1.0
  C  C427  1  0.78710000  0.05050000  0.90400000  1.0
  C  C428  1  0.77100000  0.12360000  0.75876000  1.0
  C  C429  1  0.82380000  0.09060000  0.91903000  1.0
  C  C430  1  0.33230000  0.14060000  0.65405000  1.0
  C  C431  1  0.11940000  0.53540000  0.63563000  1.0
  C  C432  1  0.12660000  0.62850000  0.87872000  1.0
  C  C433  1  0.74750000  0.95670000  0.63773000  1.0
  C  C434  1  0.74210000  0.94130000  0.84605000  1.0
  C  C435  1  0.17020000  0.41810000  0.59305000  1.0
  C  C436  1  0.70700000  0.88760000  0.85220000  1.0
  C  C437  1  0.27980000  0.47820000  0.52573000  1.0
  C  C438  1  0.67250000  0.88860000  0.78982000  1.0
  C  C439  1  0.10640000  0.61780000  0.85515000  1.0
  C  C440  1  0.03830000  0.52880000  0.80654000  1.0
  C  C441  1  0.03690000  0.54430000  0.78260000  1.0
  C  C442  1  0.74640000  0.90560000  0.89175000  1.0
  C  C443  1  0.72930000  0.98130000  0.78210000  1.0
  C  C444  1  0.06320000  0.56660000  0.82334000  1.0
  C  C445  1  0.74790000  0.98910000  0.80564000  1.0
  C  C446  1  0.71150000  0.86990000  0.87504000  1.0
  C  C447  1  0.15780000  0.56560000  0.61743000  1.0
  C  C448  1  0.92970000  0.42000000  0.75318000  1.0
  C  C449  1  0.74750000  0.08050000  0.77321000  1.0
  C  C450  1  0.29520000  0.21620000  0.68693000  1.0
  C  C451  1  0.98120000  0.41330000  0.73440000  1.0
  C  C452  1  0.75090000  0.02690000  0.76568000  1.0
  C  C453  1  0.80360000  0.06080000  0.72824000  1.0
  C  C454  1  0.01370000  0.50240000  0.76505000  1.0
  C  C455  1  0.65310000  0.82210000  0.59398000  1.0
  C  C456  1  0.08980000  0.63710000  0.79340000  1.0
  C  C457  1  0.06640000  0.59770000  0.77611000  1.0
  C  C458  1  0.69100000  0.89710000  0.81344000  1.0
  C  C459  1  0.94660000  0.46280000  0.76897000  1.0
  C  C460  1  0.78090000  0.01760000  0.74324000  1.0
  C  C461  1  0.25010000  0.15750000  0.65583000  1.0
  C  C462  1  0.66820000  0.86010000  0.61125000  1.0
  C  C463  1  0.08820000  0.62120000  0.81622000  1.0
  C  C464  1  0.69020000  0.93160000  0.77470000  1.0
  C  C465  1  0.97040000  0.36320000  0.71983000  1.0
  C  C466  1  0.37730000  0.19980000  0.68575000  1.0
  C  C467  1  0.06260000  0.49800000  0.74454000  1.0
  C  C468  1  0.04790000  0.45280000  0.72984000  1.0
  C  C469  1  0.75590000  0.09460000  0.99675000  1.0
  C  C470  1  0.21190000  0.54380000  0.15728000  1.0
  C  C471  1  0.23830000  0.18902000  0.98160000  1.0
  C  C472  1  0.80660000  0.27977000  0.98655000  1.0
  C  C473  1  0.31960000  0.42160000  0.99125000  1.0
  C  C474  1  0.71920000  0.30160000  0.98691000  1.0
  C  C475  1  0.69170000  0.07036000  0.01201000  1.0
  C  C476  1  0.49630000  0.14040000  0.99235000  1.0
  C  C477  1  0.66820000  0.30139000  0.96713000  1.0
  C  C478  1  0.58640000  0.12465000  0.99492000  1.0
  C  C479  1  0.82120000  0.03260000  0.01830000  1.0
  C  C480  1  0.38880000  0.44030000  0.00555000  1.0
  C  C481  1  0.32680000  0.37930000  0.97503000  1.0
  C  C482  1  0.65320000  0.15010000  0.98063000  1.0
  C  C483  1  0.86570000  0.96510000  0.14745000  1.0
  C  C484  1  0.11120000  0.32470000  0.02994000  1.0
  C  C485  1  0.73410000  0.03189000  0.02629000  1.0
  C  C486  1  0.61160000  0.92310000  0.43510000  1.0
  C  C487  1  0.28240000  0.56320000  0.17135000  1.0
  C  C488  1  0.70700000  0.00000000  0.04550000  1.0
  C  C489  1  0.47690000  0.37460000  0.98857000  1.0
  C  C490  1  0.56090000  0.34720000  0.98804000  1.0
  C  C491  1  0.45280000  0.62540000  0.11342000  1.0
  C  C492  1  0.39780000  0.21090000  0.98660000  1.0
  C  C493  1  0.34250000  0.11740000  0.98770000  1.0
  C  C494  1  0.43920000  0.64530000  0.45334000  1.0
  C  C495  1  0.32740000  0.17220000  0.98529000  1.0
  C  C496  1  0.48010000  0.19560000  0.99018000  1.0
  C  C497  1  0.35820000  0.48170000  0.02091000  1.0
  C  C498  1  0.90810000  0.91830000  0.15649000  1.0
  C  C499  1  0.60670000  0.08490000  0.01075000  1.0
  C  C500  1  0.42500000  0.43480000  0.34810000  1.0
  C  C501  1  0.73750000  0.93240000  0.07589000  1.0
  C  C502  1  0.87910000  0.99920000  0.02755000  1.0
  C  C503  1  0.24160000  0.50330000  0.14203000  1.0
  C  C504  1  0.13180000  0.56600000  0.15913000  1.0
  C  C505  1  0.67960000  0.86530000  0.11332000  1.0
  C  C506  1  0.76580000  0.96690000  0.05570000  1.0
  C  C507  1  0.58920000  0.97690000  0.43648000  1.0
  C  C508  1  0.56950000  0.87970000  0.45041000  1.0
  C  C509  1  0.01000000  0.85470000  0.16697000  1.0
  C  C510  1  0.46830000  0.41730000  0.00400000  1.0
  C  C511  1  0.43160000  0.59860000  0.43686000  1.0
  C  C512  1  0.34290000  0.54480000  0.05238000  1.0
  C  C513  1  0.40680000  0.35741000  0.97421000  1.0
  C  C514  1  0.38040000  0.57230000  0.07341000  1.0
  C  C515  1  0.39300000  0.51160000  0.03926000  1.0
  C  C516  1  0.14710000  0.35370000  0.05103000  1.0
  C  C517  1  0.42470000  0.10200000  0.99150000  1.0
  C  C518  1  0.58850000  0.32410000  0.96764000  1.0
  C  C519  1  0.23340000  0.37670000  0.05102000  1.0
  C  C520  1  0.21780000  0.40810000  0.09060000  1.0
  C  C521  1  0.03660000  0.63130000  0.17659000  1.0
  C  C522  1  0.68890000  0.32350000  0.00747000  1.0
  C  C523  1  0.49980000  0.59070000  0.42166000  1.0
  C  C524  1  0.98250000  0.63020000  0.15704000  1.0
  C  C525  1  0.43480000  0.47650000  0.36446000  1.0
  C  C526  1  0.12040000  0.60690000  0.17502000  1.0
  C  C527  1  0.10020000  0.83720000  0.16796000  1.0
  C  C528  1  0.26850000  0.40240000  0.07042000  1.0
  C  C529  1  0.36480000  0.60690000  0.11278000  1.0
  C  C530  1  0.85420000  0.08760000  0.10825000  1.0
  C  C531  1  0.89480000  0.07340000  0.08760000  1.0
  C  C532  1  0.76350000  0.87920000  0.07758000  1.0
  C  C533  1  0.84990000  0.96680000  0.04639000  1.0
  C  C534  1  0.35710000  0.56240000  0.43601000  1.0
  C  C535  1  0.60970000  0.34560000  0.00819000  1.0
  C  C536  1  0.48970000  0.65470000  0.13447000  1.0
  C  C537  1  0.65080000  0.82970000  0.13270000  1.0
  C  C538  1  0.46800000  0.59100000  0.07452000  1.0
  C  C539  1  0.84330000  0.88880000  0.16959000  1.0
  C  C540  1  0.87130000  0.67190000  0.17862000  1.0
  C  C541  1  0.50410000  0.61650000  0.09397000  1.0
  C  C542  1  0.33080000  0.49990000  0.14796000  1.0
  C  C543  1  0.19280000  0.62470000  0.18945000  1.0
  C  C544  1  0.35240000  0.52030000  0.42024000  1.0
  C  C545  1  0.41240000  0.46660000  0.38778000  1.0
  C  C546  1  0.27090000  0.48640000  0.01432000  1.0
  C  C547  1  0.09620000  0.36020000  0.07073000  1.0
  C  C548  1  0.42090000  0.51240000  0.40507000  1.0
  C  C549  1  0.72530000  0.00190000  0.15296000  1.0
  C  C550  1  0.72120000  0.04140000  0.38632000  1.0
  C  C551  1  0.27250000  0.60430000  0.18805000  1.0
  C  C552  1  0.78100000  0.96190000  0.15737000  1.0
  C  C553  1  0.73700000  0.13600000  0.98136000  1.0
  C  C554  1  0.91200000  0.11120000  0.07053000  1.0
  C  C555  1  0.90780000  0.20720000  0.05492000  1.0
  C  C556  1  0.49470000  0.54870000  0.40574000  1.0
  C  C557  1  0.85990000  0.83970000  0.17998000  1.0
  C  C558  1  0.65600000  0.91860000  0.11142000  1.0
  C  C559  1  0.88800000  0.16450000  0.07341000  1.0
  C  C560  1  0.68410000  0.95100000  0.09299000  1.0
  C  C561  1  0.92600000  0.67340000  0.19830000  1.0
  C  C562  1  0.73470000  0.84670000  0.09578000  1.0
  C  C563  1  0.13190000  0.38660000  0.09061000  1.0
  C  C564  1  0.94190000  0.82320000  0.17830000  1.0
  C  C565  1  0.26980000  0.80240000  0.17149000  1.0
  C  C566  1  0.25610000  0.43900000  0.11099000  1.0
  C  C567  1  0.20500000  0.47210000  0.12365000  1.0
  C  C568  1  0.99040000  0.90160000  0.15524000  1.0
  C  C569  1  0.35590000  0.78020000  0.17265000  1.0
  C  C570  1  0.76970000  0.05440000  0.32155000  1.0
  C  C571  1  0.69970000  0.88650000  0.23555000  1.0
  C  C572  1  0.78440000  0.69190000  0.17954000  1.0
  C  C573  1  0.38160000  0.41470000  0.39442000  1.0
  C  C574  1  0.89960000  0.64930000  0.15823000  1.0
  C  C575  1  0.67190000  0.84010000  0.21995000  1.0
  C  C576  1  0.68720000  0.00100000  0.40450000  1.0
  C  C577  1  0.00530000  0.65360000  0.19720000  1.0
  C  C578  1  0.83460000  0.04500000  0.12650000  1.0
  C  C579  1  0.25800000  0.55070000  0.04486000  1.0
  C  C580  1  0.89030000  0.00680000  0.13167000  1.0
  C  C581  1  0.62610000  0.01520000  0.42089000  1.0
  C  C582  1  0.72520000  0.02380000  0.36353000  1.0
  C  C583  1  0.71290000  0.94950000  0.40400000  1.0
  C  C584  1  0.72900000  0.87640000  0.25876000  1.0
  C  C585  1  0.67620000  0.90940000  0.41903000  1.0
  C  C586  1  0.16770000  0.85940000  0.15405000  1.0
  C  C587  1  0.38060000  0.46460000  0.13563000  1.0
  C  C588  1  0.37340000  0.37150000  0.37872000  1.0
  C  C589  1  0.75250000  0.04330000  0.13773000  1.0
  C  C590  1  0.75790000  0.05870000  0.34605000  1.0
  C  C591  1  0.32980000  0.58190000  0.09305000  1.0
  C  C592  1  0.79300000  0.11240000  0.35220000  1.0
  C  C593  1  0.22020000  0.52180000  0.02573000  1.0
  C  C594  1  0.82750000  0.11140000  0.28982000  1.0
  C  C595  1  0.39360000  0.38220000  0.35515000  1.0
  C  C596  1  0.46170000  0.47120000  0.30654000  1.0
  C  C597  1  0.46310000  0.45570000  0.28260000  1.0
  C  C598  1  0.75360000  0.09440000  0.39175000  1.0
  C  C599  1  0.77070000  0.01870000  0.28210000  1.0
  C  C600  1  0.43680000  0.43340000  0.32334000  1.0
  C  C601  1  0.75210000  0.01090000  0.30564000  1.0
  C  C602  1  0.78850000  0.13010000  0.37504000  1.0
  C  C603  1  0.34220000  0.43440000  0.11743000  1.0
  C  C604  1  0.57030000  0.58000000  0.25318000  1.0
  C  C605  1  0.75250000  0.91950000  0.27321000  1.0
  C  C606  1  0.20480000  0.78380000  0.18693000  1.0
  C  C607  1  0.51880000  0.58670000  0.23440000  1.0
  C  C608  1  0.74910000  0.97310000  0.26568000  1.0
  C  C609  1  0.69640000  0.93920000  0.22824000  1.0
  C  C610  1  0.48630000  0.49760000  0.26505000  1.0
  C  C611  1  0.84690000  0.17790000  0.09398000  1.0
  C  C612  1  0.41020000  0.36290000  0.29340000  1.0
  C  C613  1  0.43360000  0.40230000  0.27611000  1.0
  C  C614  1  0.80900000  0.10290000  0.31344000  1.0
  C  C615  1  0.55340000  0.53720000  0.26897000  1.0
  C  C616  1  0.71910000  0.98240000  0.24324000  1.0
  C  C617  1  0.24990000  0.84250000  0.15583000  1.0
  C  C618  1  0.83180000  0.13990000  0.11125000  1.0
  C  C619  1  0.41180000  0.37880000  0.31622000  1.0
  C  C620  1  0.80980000  0.06840000  0.27470000  1.0
  C  C621  1  0.52960000  0.63680000  0.21983000  1.0
  C  C622  1  0.12270000  0.80020000  0.18575000  1.0
  C  C623  1  0.43740000  0.50200000  0.24454000  1.0
  C  C624  1  0.45210000  0.54720000  0.22984000  1.0
  N  N1  1  0.33270000  0.07105000  0.49959000  1.0
  N  N2  1  0.26830000  0.91492000  0.33012000  1.0
  N  N3  1  0.74700000  0.45000000  0.50372000  1.0
  N  N4  1  0.85410000  0.53520000  0.33428000  1.0
  N  N5  1  0.32150000  0.13930000  0.16797000  1.0
  N  N6  1  0.88760000  0.34900000  0.16402000  1.0
  N  N7  1  0.16730000  0.92895000  0.99959000  1.0
  N  N8  1  0.23170000  0.08508000  0.83012000  1.0
  N  N9  1  0.75300000  0.55000000  0.00372000  1.0
  N  N10  1  0.64590000  0.46480000  0.83428000  1.0
  N  N11  1  0.17850000  0.86070000  0.66797000  1.0
  N  N12  1  0.61240000  0.65100000  0.66402000  1.0
  N  N13  1  0.66730000  0.92895000  0.50041000  1.0
  N  N14  1  0.73170000  0.08508000  0.66988000  1.0
  N  N15  1  0.25300000  0.55000000  0.49628000  1.0
  N  N16  1  0.14590000  0.46480000  0.66572000  1.0
  N  N17  1  0.67850000  0.86070000  0.83203000  1.0
  N  N18  1  0.11240000  0.65100000  0.83598000  1.0
  N  N19  1  0.83270000  0.07105000  0.00041000  1.0
  N  N20  1  0.76830000  0.91492000  0.16988000  1.0
  N  N21  1  0.24700000  0.45000000  0.99628000  1.0
  N  N22  1  0.35410000  0.53520000  0.16572000  1.0
  N  N23  1  0.82150000  0.13930000  0.33203000  1.0
  N  N24  1  0.38760000  0.34900000  0.33598000  1.0
  O  O1  1  0.33080000  0.25874000  0.53238000  1.0
  O  O2  1  0.73050000  0.23923000  0.51995000  1.0
  O  O3  1  0.01100000  0.66932000  0.04241000  1.0
  O  O4  1  0.67700000  0.15204000  0.51970000  1.0
  O  O5  1  0.01780000  0.89467000  0.03388000  1.0
  O  O6  1  0.86640000  0.66039000  0.03857000  1.0
  O  O7  1  0.09940000  0.84665000  0.35226000  1.0
  O  O8  1  0.07000000  0.74564000  0.31953000  1.0
  O  O9  1  0.08900000  0.83263000  0.05282000  1.0
  O  O10  1  0.52040000  0.23174000  0.51373000  1.0
  O  O11  1  0.91930000  0.80520000  0.33757000  1.0
  O  O12  1  0.26020000  0.71316000  0.30173000  1.0
  O  O13  1  0.85950000  0.73702000  0.31555000  1.0
  O  O14  1  0.23990000  0.68761000  0.33887000  1.0
  O  O15  1  0.07030000  0.67055000  0.36673000  1.0
  O  O16  1  0.35110000  0.28321000  0.49442000  1.0
  O  O17  1  0.15350000  0.85114000  0.30123000  1.0
  O  O18  1  0.17470000  0.78215000  0.36712000  1.0
  O  O19  1  0.93930000  0.66210000  0.34897000  1.0
  O  O20  1  0.66090000  0.31488000  0.48598000  1.0
  O  O21  1  0.44100000  0.19188000  0.46491000  1.0
  O  O22  1  0.17120000  0.79323000  0.27154000  1.0
  O  O23  1  0.53000000  0.31285000  0.46993000  1.0
  O  O24  1  0.97050000  0.64400000  0.29544000  1.0
  O  O25  1  0.39110000  0.25470000  0.44147000  1.0
  O  O26  1  0.09500000  0.66920000  0.27611000  1.0
  O  O27  1  0.16920000  0.74126000  0.03238000  1.0
  O  O28  1  0.76950000  0.76077000  0.01995000  1.0
  O  O29  1  0.48900000  0.33068000  0.54241000  1.0
  O  O30  1  0.82300000  0.84796000  0.01970000  1.0
  O  O31  1  0.48220000  0.10533000  0.53388000  1.0
  O  O32  1  0.63360000  0.33961000  0.53857000  1.0
  O  O33  1  0.40060000  0.15335000  0.85226000  1.0
  O  O34  1  0.43000000  0.25436000  0.81953000  1.0
  O  O35  1  0.41100000  0.16737000  0.55282000  1.0
  O  O36  1  0.97960000  0.76826000  0.01373000  1.0
  O  O37  1  0.58070000  0.19480000  0.83757000  1.0
  O  O38  1  0.23980000  0.28684000  0.80173000  1.0
  O  O39  1  0.64050000  0.26298000  0.81555000  1.0
  O  O40  1  0.26010000  0.31239000  0.83887000  1.0
  O  O41  1  0.42970000  0.32945000  0.86673000  1.0
  O  O42  1  0.14890000  0.71679000  0.99442000  1.0
  O  O43  1  0.34650000  0.14886000  0.80123000  1.0
  O  O44  1  0.32530000  0.21785000  0.86712000  1.0
  O  O45  1  0.56070000  0.33790000  0.84897000  1.0
  O  O46  1  0.83910000  0.68512000  0.98598000  1.0
  O  O47  1  0.05900000  0.80812000  0.96491000  1.0
  O  O48  1  0.32880000  0.20677000  0.77154000  1.0
  O  O49  1  0.97000000  0.68715000  0.96993000  1.0
  O  O50  1  0.52950000  0.35600000  0.79544000  1.0
  O  O51  1  0.10890000  0.74530000  0.94147000  1.0
  O  O52  1  0.40500000  0.33080000  0.77611000  1.0
  O  O53  1  0.66920000  0.74126000  0.46762000  1.0
  O  O54  1  0.26950000  0.76077000  0.48005000  1.0
  O  O55  1  0.98900000  0.33068000  0.95759000  1.0
  O  O56  1  0.32300000  0.84796000  0.48030000  1.0
  O  O57  1  0.98220000  0.10533000  0.96612000  1.0
  O  O58  1  0.13360000  0.33961000  0.96143000  1.0
  O  O59  1  0.90060000  0.15335000  0.64774000  1.0
  O  O60  1  0.93000000  0.25436000  0.68047000  1.0
  O  O61  1  0.91100000  0.16737000  0.94718000  1.0
  O  O62  1  0.47960000  0.76826000  0.48627000  1.0
  O  O63  1  0.08070000  0.19480000  0.66243000  1.0
  O  O64  1  0.73980000  0.28684000  0.69827000  1.0
  O  O65  1  0.14050000  0.26298000  0.68445000  1.0
  O  O66  1  0.76010000  0.31239000  0.66113000  1.0
  O  O67  1  0.92970000  0.32945000  0.63327000  1.0
  O  O68  1  0.64890000  0.71679000  0.50558000  1.0
  O  O69  1  0.84650000  0.14886000  0.69877000  1.0
  O  O70  1  0.82530000  0.21785000  0.63288000  1.0
  O  O71  1  0.06070000  0.33790000  0.65103000  1.0
  O  O72  1  0.33910000  0.68512000  0.51402000  1.0
  O  O73  1  0.55900000  0.80812000  0.53509000  1.0
  O  O74  1  0.82880000  0.20677000  0.72846000  1.0
  O  O75  1  0.47000000  0.68715000  0.53007000  1.0
  O  O76  1  0.02950000  0.35600000  0.70456000  1.0
  O  O77  1  0.60890000  0.74530000  0.55853000  1.0
  O  O78  1  0.90500000  0.33080000  0.72389000  1.0
  O  O79  1  0.83080000  0.25874000  0.96762000  1.0
  O  O80  1  0.23050000  0.23923000  0.98005000  1.0
  O  O81  1  0.51100000  0.66932000  0.45759000  1.0
  O  O82  1  0.17700000  0.15204000  0.98030000  1.0
  O  O83  1  0.51780000  0.89467000  0.46612000  1.0
  O  O84  1  0.36640000  0.66039000  0.46143000  1.0
  O  O85  1  0.59940000  0.84665000  0.14774000  1.0
  O  O86  1  0.57000000  0.74564000  0.18047000  1.0
  O  O87  1  0.58900000  0.83263000  0.44718000  1.0
  O  O88  1  0.02040000  0.23174000  0.98627000  1.0
  O  O89  1  0.41930000  0.80520000  0.16243000  1.0
  O  O90  1  0.76020000  0.71316000  0.19827000  1.0
  O  O91  1  0.35950000  0.73702000  0.18445000  1.0
  O  O92  1  0.73990000  0.68761000  0.16113000  1.0
  O  O93  1  0.57030000  0.67055000  0.13327000  1.0
  O  O94  1  0.85110000  0.28321000  0.00558000  1.0
  O  O95  1  0.65350000  0.85114000  0.19877000  1.0
  O  O96  1  0.67470000  0.78215000  0.13288000  1.0
  O  O97  1  0.43930000  0.66210000  0.15103000  1.0
  O  O98  1  0.16090000  0.31488000  0.01402000  1.0
  O  O99  1  0.94100000  0.19188000  0.03509000  1.0
  O  O100  1  0.67120000  0.79323000  0.22846000  1.0
  O  O101  1  0.03000000  0.31285000  0.03007000  1.0
  O  O102  1  0.47050000  0.64400000  0.20456000  1.0
  O  O103  1  0.89110000  0.25470000  0.05853000  1.0
  O  O104  1  0.59500000  0.66920000  0.22389000  1.0
