# generated using pymatgen
data_H9C16(NO)2
_symmetry_space_group_name_H-M   'P 1'
_cell_length_a   29.66850000
_cell_length_b   29.66850000
_cell_length_c   45.69900000
_cell_angle_alpha   90.00000000
_cell_angle_beta   90.00000000
_cell_angle_gamma   90.00000000
_symmetry_Int_Tables_number   1
_chemical_formula_structural   H9C16(NO)2
_chemical_formula_sum   'H432 C768 N96 O96'
_cell_volume   40225.16885593
_cell_formula_units_Z   48
loop_
 _symmetry_equiv_pos_site_id
 _symmetry_equiv_pos_as_xyz
  1  'x, y, z'
loop_
 _atom_site_type_symbol
 _atom_site_label
 _atom_site_symmetry_multiplicity
 _atom_site_fract_x
 _atom_site_fract_y
 _atom_site_fract_z
 _atom_site_occupancy
  H  7  1  0.19104000  0.05649300  0.14307500  1
  H  16  1  0.09020100  0.05592700  0.10232100  1
  H  19  1  0.09625200  0.19011000  0.13588400  1
  H  20  1  0.18353100  0.19057000  0.10908500  1
  H  21  1  0.10981700  0.08692900  0.23594600  1
  H  22  1  0.17064800  0.08733400  0.00917400  1
  H  29  1  0.59003600  0.15331200  0.64230800  1
  H  38  1  0.69090700  0.15353700  0.60156300  1
  H  41  1  0.68515700  0.01992300  0.63606900  1
  H  42  1  0.59779100  0.01882300  0.60925000  1
  H  43  1  0.67114900  0.12464500  0.73547400  1
  H  44  1  0.60998300  0.12092000  0.50879700  1
  H  51  1  0.08741200  0.55581400  0.60403300  1
  H  60  1  0.18825000  0.55455400  0.64450500  1
  H  63  1  0.18243400  0.68926900  0.61152400  1
  H  64  1  0.09540700  0.68960900  0.63871700  1
  H  65  1  0.16831500  0.58682700  0.51115600  1
  H  66  1  0.10788300  0.58458600  0.73787900  1
  H  73  1  0.68931600  0.65413100  0.10405100  1
  H  82  1  0.58830700  0.65452500  0.14446600  1
  H  85  1  0.59455600  0.52043300  0.11045300  1
  H  86  1  0.68163800  0.51983700  0.13765100  1
  H  87  1  0.60911000  0.62428100  0.01072600  1
  H  88  1  0.66887400  0.62314800  0.23754600  1
  H  95  1  0.84305800  0.40799400  0.35336000  1
  H  104  1  0.84247800  0.30290500  0.39371800  1
  H  107  1  0.96975100  0.30811900  0.36407800  1
  H  108  1  0.97012200  0.40139500  0.38300000  1
  H  109  1  0.91709600  0.36788500  0.25963600  1
  H  110  1  0.91685300  0.34221100  0.48752500  1
  H  117  1  0.93538500  0.80195100  0.85434300  1
  H  126  1  0.93695500  0.90714600  0.89473400  1
  H  129  1  0.80991500  0.90332400  0.86491000  1
  H  130  1  0.80848600  0.80981400  0.88375700  1
  H  131  1  0.86209800  0.84285900  0.76052900  1
  H  132  1  0.86200100  0.86825000  0.98843400  1
  H  139  1  0.34398100  0.30164900  0.89277300  1
  H  148  1  0.34225500  0.40565200  0.85189700  1
  H  151  1  0.47026200  0.40204900  0.88160400  1
  H  152  1  0.47151300  0.30928700  0.86293200  1
  H  153  1  0.41778600  0.34327900  0.98626700  1
  H  154  1  0.41686200  0.36623000  0.75820500  1
  H  161  1  0.43553500  0.90675200  0.39359100  1
  H  170  1  0.43599000  0.80253000  0.35273200  1
  H  173  1  0.30837200  0.80747800  0.38268300  1
  H  174  1  0.30800200  0.90048600  0.36405900  1
  H  175  1  0.36171300  0.86600200  0.48723400  1
  H  176  1  0.36144300  0.84291000  0.25919000  1
  H  189  1  0.89313800  0.95053200  0.97466300  1
  H  190  1  0.05447900  0.93395200  0.96651400  1
  H  191  1  0.00681100  0.88839600  0.93636500  1
  H  192  1  0.13506200  0.00676300  0.02468000  1
  H  193  1  0.02293700  0.07776800  0.05810000  1
  H  194  1  0.97462800  0.03353300  0.02739300  1
  H  207  1  0.88659600  0.25968600  0.47357700  1
  H  208  1  0.72511200  0.27492800  0.46553600  1
  H  209  1  0.77235400  0.32094900  0.43540400  1
  H  210  1  0.64526600  0.20171800  0.52392000  1
  H  211  1  0.75800800  0.13157800  0.55723800  1
  H  212  1  0.80588400  0.17598000  0.52634500  1
  H  225  1  0.38565800  0.44859600  0.77195400  1
  H  226  1  0.22438300  0.43123100  0.77996700  1
  H  227  1  0.27222300  0.38596100  0.81019800  1
  H  228  1  0.14356200  0.50421400  0.72195500  1
  H  229  1  0.25552000  0.57575500  0.68879200  1
  H  230  1  0.30393300  0.53134700  0.71929900  1
  H  243  1  0.39198400  0.76018200  0.27271700  1
  H  244  1  0.55341100  0.77620600  0.28059700  1
  H  245  1  0.50602800  0.82163100  0.31101800  1
  H  246  1  0.63347900  0.70373500  0.22194600  1
  H  247  1  0.52107000  0.63278100  0.18889100  1
  H  248  1  0.47300900  0.67705700  0.21974200  1
  H  261  1  0.14832000  0.70392100  0.52985200  1
  H  262  1  0.30757600  0.67108500  0.52567700  1
  H  263  1  0.26051900  0.62762400  0.55773300  1
  H  264  1  0.38674000  0.75233600  0.47001500  1
  H  265  1  0.27192200  0.82079200  0.43831200  1
  H  266  1  0.22578700  0.77607100  0.46990300  1
  H  279  1  0.64774300  0.50771300  0.22063700  1
  H  280  1  0.80811200  0.53530100  0.22075600  1
  H  281  1  0.76077900  0.57957700  0.18938900  1
  H  282  1  0.88788300  0.45106000  0.27387500  1
  H  283  1  0.77285900  0.38971600  0.31099400  1
  H  284  1  0.72625400  0.43556600  0.28033700  1
  H  297  1  0.63490500  0.20534800  0.71836200  1
  H  298  1  0.47547300  0.17288600  0.71985000  1
  H  299  1  0.52359200  0.12954500  0.68845100  1
  H  300  1  0.39449900  0.25251300  0.77529300  1
  H  301  1  0.50780400  0.32279700  0.80759800  1
  H  302  1  0.55510300  0.27845800  0.77652100  1
  H  315  1  0.89275400  0.45581600  0.47114900  1
  H  316  1  0.05372200  0.43234700  0.46929900  1
  H  317  1  0.00687700  0.38764300  0.43815900  1
  H  318  1  0.13281400  0.50574400  0.52766200  1
  H  319  1  0.02068300  0.57976900  0.55818100  1
  H  320  1  0.97296700  0.53617100  0.52665300  1
  H  333  1  0.88526800  0.75454700  0.97192800  1
  H  334  1  0.72444100  0.77892300  0.96987800  1
  H  335  1  0.77165900  0.82352900  0.93890500  1
  H  336  1  0.64464900  0.70517500  0.02766900  1
  H  337  1  0.75635300  0.63068200  0.05836300  1
  H  338  1  0.80443800  0.67441500  0.02716100  1
  H  351  1  0.38534800  0.95626500  0.27622100  1
  H  352  1  0.22442900  0.93242200  0.27772600  1
  H  353  1  0.27125900  0.88756300  0.30878800  1
  H  354  1  0.14544600  0.00588700  0.21931800  1
  H  355  1  0.25756000  0.08027700  0.18915700  1
  H  356  1  0.30520500  0.03671200  0.22073800  1
  H  369  1  0.14936400  0.20274500  0.02625800  1
  H  370  1  0.30974700  0.17527400  0.02566400  1
  H  371  1  0.26265700  0.13093500  0.05714900  1
  H  372  1  0.38906900  0.25965800  0.97232000  1
  H  373  1  0.27368200  0.32032000  0.93520300  1
  H  374  1  0.22735800  0.27459500  0.96612500  1
  H  387  1  0.65063900  0.00714100  0.71760700  1
  H  388  1  0.81021200  0.03851200  0.72155700  1
  H  389  1  0.76351200  0.08214800  0.68937000  1
  H  390  1  0.88871600  0.95624500  0.77710300  1
  H  391  1  0.77310900  0.88990900  0.80948000  1
  H  392  1  0.72741700  0.93502400  0.77786400  1
  H  405  1  0.39097000  0.94929500  0.47312500  1
  H  406  1  0.55257200  0.93352100  0.46662300  1
  H  407  1  0.50585900  0.88785600  0.43589800  1
  H  408  1  0.63126500  0.00576900  0.52618000  1
  H  409  1  0.51835700  0.07789800  0.55736100  1
  H  410  1  0.47091000  0.03342900  0.52618700  1
  H  423  1  0.89024600  0.75941700  0.77479200  1
  H  424  1  0.05203500  0.77279800  0.78148200  1
  H  425  1  0.00592900  0.81920800  0.81210200  1
  H  426  1  0.12977600  0.70012200  0.72165100  1
  H  427  1  0.01596500  0.62980900  0.69009700  1
  H  428  1  0.96910400  0.67435100  0.72161400  1
  H  441  1  0.13023000  0.20400100  0.21761200  1
  H  442  1  0.97068100  0.17237500  0.22103300  1
  H  443  1  0.01775900  0.12856100  0.18919900  1
  H  444  1  0.89154000  0.25414800  0.27638900  1
  H  445  1  0.00652100  0.32177800  0.30858000  1
  H  446  1  0.05264100  0.27682000  0.27713100  1
  H  459  1  0.39156600  0.45670900  0.96889300  1
  H  460  1  0.55271300  0.43439600  0.96881400  1
  H  461  1  0.50698500  0.38921400  0.93726000  1
  H  462  1  0.62948200  0.50711600  0.02886500  1
  H  463  1  0.51654400  0.58221900  0.05687000  1
  H  464  1  0.46994200  0.53856000  0.02464200  1
  H  471  1  0.19104000  0.35984500  0.14307500  1
  H  480  1  0.09020100  0.35927900  0.10232100  1
  H  483  1  0.09625200  0.49346200  0.13588400  1
  H  484  1  0.18353100  0.49392200  0.10908500  1
  H  485  1  0.10981700  0.39028100  0.23594600  1
  H  486  1  0.17064800  0.39068600  0.00917400  1
  H  493  1  0.59003600  0.45666400  0.64230800  1
  H  502  1  0.69090700  0.45688900  0.60156300  1
  H  505  1  0.68515700  0.32327500  0.63606900  1
  H  506  1  0.59779100  0.32217500  0.60925000  1
  H  507  1  0.67114900  0.42799700  0.73547400  1
  H  508  1  0.60998300  0.42427200  0.50879700  1
  H  515  1  0.08741200  0.85916600  0.60403300  1
  H  524  1  0.18825000  0.85790600  0.64450500  1
  H  527  1  0.18243400  0.99262100  0.61152400  1
  H  528  1  0.09540700  0.99296100  0.63871700  1
  H  529  1  0.16831500  0.89017900  0.51115600  1
  H  530  1  0.10788300  0.88793800  0.73787900  1
  H  537  1  0.68931600  0.95748300  0.10405100  1
  H  546  1  0.58830700  0.95787700  0.14446600  1
  H  549  1  0.59455600  0.82378500  0.11045300  1
  H  550  1  0.68163800  0.82318900  0.13765100  1
  H  551  1  0.60911000  0.92763300  0.01072600  1
  H  552  1  0.66887400  0.92650000  0.23754600  1
  H  559  1  0.84305800  0.71134600  0.35336000  1
  H  568  1  0.84247800  0.60625700  0.39371800  1
  H  571  1  0.96975100  0.61147100  0.36407800  1
  H  572  1  0.97012200  0.70474700  0.38300000  1
  H  573  1  0.91709600  0.67123700  0.25963600  1
  H  574  1  0.91685300  0.64556300  0.48752500  1
  H  581  1  0.93538500  0.10530300  0.85434300  1
  H  590  1  0.93695500  0.21049800  0.89473400  1
  H  593  1  0.80991500  0.20667600  0.86491000  1
  H  594  1  0.80848600  0.11316600  0.88375700  1
  H  595  1  0.86209800  0.14621100  0.76052900  1
  H  596  1  0.86200100  0.17160200  0.98843400  1
  H  603  1  0.34398100  0.60500100  0.89277300  1
  H  612  1  0.34225500  0.70900400  0.85189700  1
  H  615  1  0.47026200  0.70540100  0.88160400  1
  H  616  1  0.47151300  0.61263900  0.86293200  1
  H  617  1  0.41778600  0.64663100  0.98626700  1
  H  618  1  0.41686200  0.66958200  0.75820500  1
  H  625  1  0.43553500  0.21010400  0.39359100  1
  H  634  1  0.43599000  0.10588200  0.35273200  1
  H  637  1  0.30837200  0.11083000  0.38268300  1
  H  638  1  0.30800200  0.20383800  0.36405900  1
  H  639  1  0.36171300  0.16935400  0.48723400  1
  H  640  1  0.36144300  0.14626200  0.25919000  1
  H  653  1  0.89313800  0.25388400  0.97466300  1
  H  654  1  0.05447900  0.23730400  0.96651400  1
  H  655  1  0.00681100  0.19174800  0.93636500  1
  H  656  1  0.13506200  0.31011500  0.02468000  1
  H  657  1  0.02293700  0.38112000  0.05810000  1
  H  658  1  0.97462800  0.33688500  0.02739300  1
  H  671  1  0.88659600  0.56303800  0.47357700  1
  H  672  1  0.72511200  0.57828000  0.46553600  1
  H  673  1  0.77235400  0.62430100  0.43540400  1
  H  674  1  0.64526600  0.50507000  0.52392000  1
  H  675  1  0.75800800  0.43493000  0.55723800  1
  H  676  1  0.80588400  0.47933200  0.52634500  1
  H  689  1  0.38565800  0.75194800  0.77195400  1
  H  690  1  0.22438300  0.73458300  0.77996700  1
  H  691  1  0.27222300  0.68931300  0.81019800  1
  H  692  1  0.14356200  0.80756600  0.72195500  1
  H  693  1  0.25552000  0.87910700  0.68879200  1
  H  694  1  0.30393300  0.83469900  0.71929900  1
  H  707  1  0.39198400  0.06353400  0.27271700  1
  H  708  1  0.55341100  0.07955800  0.28059700  1
  H  709  1  0.50602800  0.12498300  0.31101800  1
  H  710  1  0.63347900  0.00708704  0.22194600  1
  H  711  1  0.52107000  0.93613300  0.18889100  1
  H  712  1  0.47300900  0.98040900  0.21974200  1
  H  725  1  0.14832000  0.00727304  0.52985200  1
  H  726  1  0.30757600  0.97443700  0.52567700  1
  H  727  1  0.26051900  0.93097600  0.55773300  1
  H  728  1  0.38674000  0.05568800  0.47001500  1
  H  729  1  0.27192200  0.12414400  0.43831200  1
  H  730  1  0.22578700  0.07942300  0.46990300  1
  H  743  1  0.64774300  0.81106500  0.22063700  1
  H  744  1  0.80811200  0.83865300  0.22075600  1
  H  745  1  0.76077900  0.88292900  0.18938900  1
  H  746  1  0.88788300  0.75441200  0.27387500  1
  H  747  1  0.77285900  0.69306800  0.31099400  1
  H  748  1  0.72625400  0.73891800  0.28033700  1
  H  761  1  0.63490500  0.50870000  0.71836200  1
  H  762  1  0.47547300  0.47623800  0.71985000  1
  H  763  1  0.52359200  0.43289700  0.68845100  1
  H  764  1  0.39449900  0.55586500  0.77529300  1
  H  765  1  0.50780400  0.62614900  0.80759800  1
  H  766  1  0.55510300  0.58181000  0.77652100  1
  H  779  1  0.89275400  0.75916800  0.47114900  1
  H  780  1  0.05372200  0.73569900  0.46929900  1
  H  781  1  0.00687700  0.69099500  0.43815900  1
  H  782  1  0.13281400  0.80909600  0.52766200  1
  H  783  1  0.02068300  0.88312100  0.55818100  1
  H  784  1  0.97296700  0.83952300  0.52665300  1
  H  797  1  0.88526800  0.05789900  0.97192800  1
  H  798  1  0.72444100  0.08227500  0.96987800  1
  H  799  1  0.77165900  0.12688100  0.93890500  1
  H  800  1  0.64464900  0.00852704  0.02766900  1
  H  801  1  0.75635300  0.93403400  0.05836300  1
  H  802  1  0.80443800  0.97776700  0.02716100  1
  H  815  1  0.38534800  0.25961700  0.27622100  1
  H  816  1  0.22442900  0.23577400  0.27772600  1
  H  817  1  0.27125900  0.19091500  0.30878800  1
  H  818  1  0.14544600  0.30923900  0.21931800  1
  H  819  1  0.25756000  0.38362900  0.18915700  1
  H  820  1  0.30520500  0.34006400  0.22073800  1
  H  833  1  0.14936400  0.50609700  0.02625800  1
  H  834  1  0.30974700  0.47862600  0.02566400  1
  H  835  1  0.26265700  0.43428700  0.05714900  1
  H  836  1  0.38906900  0.56301000  0.97232000  1
  H  837  1  0.27368200  0.62367200  0.93520300  1
  H  838  1  0.22735800  0.57794700  0.96612500  1
  H  851  1  0.65063900  0.31049300  0.71760700  1
  H  852  1  0.81021200  0.34186400  0.72155700  1
  H  853  1  0.76351200  0.38550000  0.68937000  1
  H  854  1  0.88871600  0.25959700  0.77710300  1
  H  855  1  0.77310900  0.19326100  0.80948000  1
  H  856  1  0.72741700  0.23837600  0.77786400  1
  H  869  1  0.39097000  0.25264700  0.47312500  1
  H  870  1  0.55257200  0.23687300  0.46662300  1
  H  871  1  0.50585900  0.19120800  0.43589800  1
  H  872  1  0.63126500  0.30912100  0.52618000  1
  H  873  1  0.51835700  0.38125000  0.55736100  1
  H  874  1  0.47091000  0.33678100  0.52618700  1
  H  887  1  0.89024600  0.06276900  0.77479200  1
  H  888  1  0.05203500  0.07615000  0.78148200  1
  H  889  1  0.00592900  0.12256000  0.81210200  1
  H  890  1  0.12977600  0.00347404  0.72165100  1
  H  891  1  0.01596500  0.93316100  0.69009700  1
  H  892  1  0.96910400  0.97770300  0.72161400  1
  H  905  1  0.13023000  0.50735300  0.21761200  1
  H  906  1  0.97068100  0.47572700  0.22103300  1
  H  907  1  0.01775900  0.43191300  0.18919900  1
  H  908  1  0.89154000  0.55750000  0.27638900  1
  H  909  1  0.00652100  0.62513000  0.30858000  1
  H  910  1  0.05264100  0.58017200  0.27713100  1
  H  923  1  0.39156600  0.76006100  0.96889300  1
  H  924  1  0.55271300  0.73774800  0.96881400  1
  H  925  1  0.50698500  0.69256600  0.93726000  1
  H  926  1  0.62948200  0.81046800  0.02886500  1
  H  927  1  0.51654400  0.88557100  0.05687000  1
  H  928  1  0.46994200  0.84191200  0.02464200  1
  H  935  1  0.19104000  0.66319700  0.14307500  1
  H  944  1  0.09020100  0.66263100  0.10232100  1
  H  947  1  0.09625200  0.79681400  0.13588400  1
  H  948  1  0.18353100  0.79727400  0.10908500  1
  H  949  1  0.10981700  0.69363300  0.23594600  1
  H  950  1  0.17064800  0.69403800  0.00917400  1
  H  957  1  0.59003600  0.76001600  0.64230800  1
  H  966  1  0.69090700  0.76024100  0.60156300  1
  H  969  1  0.68515700  0.62662700  0.63606900  1
  H  970  1  0.59779100  0.62552700  0.60925000  1
  H  971  1  0.67114900  0.73134900  0.73547400  1
  H  972  1  0.60998300  0.72762400  0.50879700  1
  H  979  1  0.08741200  0.16251800  0.60403300  1
  H  988  1  0.18825000  0.16125800  0.64450500  1
  H  991  1  0.18243400  0.29597300  0.61152400  1
  H  992  1  0.09540700  0.29631300  0.63871700  1
  H  993  1  0.16831500  0.19353100  0.51115600  1
  H  994  1  0.10788300  0.19129000  0.73787900  1
  H  1001  1  0.68931600  0.26083500  0.10405100  1
  H  1010  1  0.58830700  0.26122900  0.14446600  1
  H  1013  1  0.59455600  0.12713700  0.11045300  1
  H  1014  1  0.68163800  0.12654100  0.13765100  1
  H  1015  1  0.60911000  0.23098500  0.01072600  1
  H  1016  1  0.66887400  0.22985200  0.23754600  1
  H  1023  1  0.84305800  0.01469810  0.35336000  1
  H  1032  1  0.84247800  0.90960900  0.39371800  1
  H  1035  1  0.96975100  0.91482300  0.36407800  1
  H  1036  1  0.97012200  0.00809908  0.38300000  1
  H  1037  1  0.91709600  0.97458900  0.25963600  1
  H  1038  1  0.91685300  0.94891500  0.48752500  1
  H  1045  1  0.93538500  0.40865500  0.85434300  1
  H  1054  1  0.93695500  0.51385000  0.89473400  1
  H  1057  1  0.80991500  0.51002800  0.86491000  1
  H  1058  1  0.80848600  0.41651800  0.88375700  1
  H  1059  1  0.86209800  0.44956300  0.76052900  1
  H  1060  1  0.86200100  0.47495400  0.98843400  1
  H  1067  1  0.34398100  0.90835300  0.89277300  1
  H  1076  1  0.34225500  0.01235610  0.85189700  1
  H  1079  1  0.47026200  0.00875308  0.88160400  1
  H  1080  1  0.47151300  0.91599100  0.86293200  1
  H  1081  1  0.41778600  0.94998300  0.98626700  1
  H  1082  1  0.41686200  0.97293400  0.75820500  1
  H  1089  1  0.43553500  0.51345600  0.39359100  1
  H  1098  1  0.43599000  0.40923400  0.35273200  1
  H  1101  1  0.30837200  0.41418200  0.38268300  1
  H  1102  1  0.30800200  0.50719000  0.36405900  1
  H  1103  1  0.36171300  0.47270600  0.48723400  1
  H  1104  1  0.36144300  0.44961400  0.25919000  1
  H  1117  1  0.89313800  0.55723600  0.97466300  1
  H  1118  1  0.05447900  0.54065600  0.96651400  1
  H  1119  1  0.00681100  0.49510000  0.93636500  1
  H  1120  1  0.13506200  0.61346700  0.02468000  1
  H  1121  1  0.02293700  0.68447200  0.05810000  1
  H  1122  1  0.97462800  0.64023700  0.02739300  1
  H  1135  1  0.88659600  0.86639000  0.47357700  1
  H  1136  1  0.72511200  0.88163200  0.46553600  1
  H  1137  1  0.77235400  0.92765300  0.43540400  1
  H  1138  1  0.64526600  0.80842200  0.52392000  1
  H  1139  1  0.75800800  0.73828200  0.55723800  1
  H  1140  1  0.80588400  0.78268400  0.52634500  1
  H  1153  1  0.38565800  0.05530010  0.77195400  1
  H  1154  1  0.22438300  0.03793510  0.77996700  1
  H  1155  1  0.27222300  0.99266500  0.81019800  1
  H  1156  1  0.14356200  0.11091800  0.72195500  1
  H  1157  1  0.25552000  0.18245900  0.68879200  1
  H  1158  1  0.30393300  0.13805100  0.71929900  1
  H  1171  1  0.39198400  0.36688600  0.27271700  1
  H  1172  1  0.55341100  0.38291000  0.28059700  1
  H  1173  1  0.50602800  0.42833500  0.31101800  1
  H  1174  1  0.63347900  0.31043900  0.22194600  1
  H  1175  1  0.52107000  0.23948500  0.18889100  1
  H  1176  1  0.47300900  0.28376100  0.21974200  1
  H  1189  1  0.14832000  0.31062500  0.52985200  1
  H  1190  1  0.30757600  0.27778900  0.52567700  1
  H  1191  1  0.26051900  0.23432800  0.55773300  1
  H  1192  1  0.38674000  0.35904000  0.47001500  1
  H  1193  1  0.27192200  0.42749600  0.43831200  1
  H  1194  1  0.22578700  0.38277500  0.46990300  1
  H  1207  1  0.64774300  0.11441700  0.22063700  1
  H  1208  1  0.80811200  0.14200500  0.22075600  1
  H  1209  1  0.76077900  0.18628100  0.18938900  1
  H  1210  1  0.88788300  0.05776410  0.27387500  1
  H  1211  1  0.77285900  0.99642000  0.31099400  1
  H  1212  1  0.72625400  0.04227010  0.28033700  1
  H  1225  1  0.63490500  0.81205200  0.71836200  1
  H  1226  1  0.47547300  0.77959000  0.71985000  1
  H  1227  1  0.52359200  0.73624900  0.68845100  1
  H  1228  1  0.39449900  0.85921700  0.77529300  1
  H  1229  1  0.50780400  0.92950100  0.80759800  1
  H  1230  1  0.55510300  0.88516200  0.77652100  1
  H  1243  1  0.89275400  0.06252010  0.47114900  1
  H  1244  1  0.05372200  0.03905110  0.46929900  1
  H  1245  1  0.00687700  0.99434700  0.43815900  1
  H  1246  1  0.13281400  0.11244800  0.52766200  1
  H  1247  1  0.02068300  0.18647300  0.55818100  1
  H  1248  1  0.97296700  0.14287500  0.52665300  1
  H  1261  1  0.88526800  0.36125100  0.97192800  1
  H  1262  1  0.72444100  0.38562700  0.96987800  1
  H  1263  1  0.77165900  0.43023300  0.93890500  1
  H  1264  1  0.64464900  0.31187900  0.02766900  1
  H  1265  1  0.75635300  0.23738600  0.05836300  1
  H  1266  1  0.80443800  0.28111900  0.02716100  1
  H  1279  1  0.38534800  0.56296900  0.27622100  1
  H  1280  1  0.22442900  0.53912600  0.27772600  1
  H  1281  1  0.27125900  0.49426700  0.30878800  1
  H  1282  1  0.14544600  0.61259100  0.21931800  1
  H  1283  1  0.25756000  0.68698100  0.18915700  1
  H  1284  1  0.30520500  0.64341600  0.22073800  1
  H  1297  1  0.14936400  0.80944900  0.02625800  1
  H  1298  1  0.30974700  0.78197800  0.02566400  1
  H  1299  1  0.26265700  0.73763900  0.05714900  1
  H  1300  1  0.38906900  0.86636200  0.97232000  1
  H  1301  1  0.27368200  0.92702400  0.93520300  1
  H  1302  1  0.22735800  0.88129900  0.96612500  1
  H  1315  1  0.65063900  0.61384500  0.71760700  1
  H  1316  1  0.81021200  0.64521600  0.72155700  1
  H  1317  1  0.76351200  0.68885200  0.68937000  1
  H  1318  1  0.88871600  0.56294900  0.77710300  1
  H  1319  1  0.77310900  0.49661300  0.80948000  1
  H  1320  1  0.72741700  0.54172800  0.77786400  1
  H  1333  1  0.39097000  0.55599900  0.47312500  1
  H  1334  1  0.55257200  0.54022500  0.46662300  1
  H  1335  1  0.50585900  0.49456000  0.43589800  1
  H  1336  1  0.63126500  0.61247300  0.52618000  1
  H  1337  1  0.51835700  0.68460200  0.55736100  1
  H  1338  1  0.47091000  0.64013300  0.52618700  1
  H  1351  1  0.89024600  0.36612100  0.77479200  1
  H  1352  1  0.05203500  0.37950200  0.78148200  1
  H  1353  1  0.00592900  0.42591200  0.81210200  1
  H  1354  1  0.12977600  0.30682600  0.72165100  1
  H  1355  1  0.01596500  0.23651300  0.69009700  1
  H  1356  1  0.96910400  0.28105500  0.72161400  1
  H  1369  1  0.13023000  0.81070500  0.21761200  1
  H  1370  1  0.97068100  0.77907900  0.22103300  1
  H  1371  1  0.01775900  0.73526500  0.18919900  1
  H  1372  1  0.89154000  0.86085200  0.27638900  1
  H  1373  1  0.00652100  0.92848200  0.30858000  1
  H  1374  1  0.05264100  0.88352400  0.27713100  1
  H  1387  1  0.39156600  0.06341310  0.96889300  1
  H  1388  1  0.55271300  0.04110010  0.96881400  1
  H  1389  1  0.50698500  0.99591800  0.93726000  1
  H  1390  1  0.62948200  0.11382000  0.02886500  1
  H  1391  1  0.51654400  0.18892300  0.05687000  1
  H  1392  1  0.46994200  0.14526400  0.02464200  1
  C  1  1  0.13940700  0.10507100  0.13807200  1
  C  2  1  0.16887600  0.07695600  0.15402600  1
  C  3  1  0.16742900  0.07587800  0.18487300  1
  C  4  1  0.13662800  0.10403400  0.19988900  1
  C  5  1  0.10776300  0.13334800  0.18410900  1
  C  6  1  0.10888000  0.13349700  0.15312700  1
  C  9  1  0.14137900  0.10498800  0.10714100  1
  C  10  1  0.17148500  0.13372300  0.09198400  1
  C  11  1  0.17240600  0.13356400  0.06099100  1
  C  12  1  0.14374400  0.10389600  0.04531500  1
  C  13  1  0.11332600  0.07543100  0.06042800  1
  C  14  1  0.11209300  0.07657400  0.09128200  1
  C  23  1  0.64187900  0.10486600  0.63768000  1
  C  24  1  0.61227800  0.13313400  0.65341500  1
  C  25  1  0.61366700  0.13473400  0.68425200  1
  C  26  1  0.64452800  0.10692400  0.69948900  1
  C  27  1  0.67351100  0.07743900  0.68393700  1
  C  28  1  0.67245600  0.07677300  0.65295600  1
  C  31  1  0.63989300  0.10439500  0.60675100  1
  C  32  1  0.60973700  0.07544300  0.59181000  1
  C  33  1  0.60864100  0.07522300  0.56081800  1
  C  34  1  0.63716700  0.10475000  0.54492700  1
  C  35  1  0.66762600  0.13343800  0.55982500  1
  C  36  1  0.66902900  0.13267900  0.59067900  1
  C  45  1  0.13908200  0.60433400  0.60911200  1
  C  46  1  0.10951100  0.57639200  0.59311400  1
  C  47  1  0.11086000  0.57553200  0.56226700  1
  C  48  1  0.14164100  0.60375700  0.54729000  1
  C  49  1  0.17059200  0.63293000  0.56311800  1
  C  50  1  0.16959400  0.63283900  0.59410300  1
  C  53  1  0.13725600  0.60388200  0.64004700  1
  C  54  1  0.10723000  0.63243400  0.65541500  1
  C  55  1  0.10628100  0.63171300  0.68640700  1
  C  56  1  0.13484200  0.60167400  0.70186300  1
  C  57  1  0.16517600  0.57338200  0.68654100  1
  C  58  1  0.16641700  0.57506700  0.65569500  1
  C  67  1  0.63763500  0.60551700  0.10868800  1
  C  68  1  0.66727900  0.63372500  0.09294500  1
  C  69  1  0.66615000  0.63503000  0.06209800  1
  C  70  1  0.63552500  0.60696300  0.04686200  1
  C  71  1  0.60650800  0.57752100  0.06242700  1
  C  72  1  0.60729300  0.57716700  0.09341500  1
  C  75  1  0.63938800  0.60536900  0.13962600  1
  C  76  1  0.66952700  0.57665500  0.15477100  1
  C  77  1  0.67050200  0.57682700  0.18576300  1
  C  78  1  0.64187200  0.60651100  0.20145000  1
  C  79  1  0.61144200  0.63498200  0.18634900  1
  C  80  1  0.61015100  0.63382000  0.15549600  1
  C  89  1  0.88952100  0.35446300  0.35809800  1
  C  90  1  0.86269800  0.38524600  0.34228100  1
  C  91  1  0.86296800  0.38544500  0.31140300  1
  C  92  1  0.89020200  0.35396800  0.29623900  1
  C  93  1  0.91664400  0.32227500  0.31189300  1
  C  94  1  0.91698800  0.32324100  0.34288300  1
  C  97  1  0.88949100  0.35594900  0.38904800  1
  C  98  1  0.91728800  0.38682700  0.40430000  1
  C  99  1  0.91693800  0.38774700  0.43529200  1
  C  100  1  0.89009800  0.35633400  0.45091200  1
  C  101  1  0.86251300  0.32518900  0.43571200  1
  C  102  1  0.86231400  0.32544500  0.40483200  1
  C  111  1  0.88958200  0.85606500  0.85900900  1
  C  112  1  0.91607100  0.82494100  0.84323400  1
  C  113  1  0.91588300  0.82470900  0.81235500  1
  C  114  1  0.88908300  0.85651300  0.79714700  1
  C  115  1  0.86298500  0.88854400  0.81276000  1
  C  116  1  0.86253700  0.88760000  0.84374800  1
  C  119  1  0.88946400  0.85455500  0.88996100  1
  C  120  1  0.86136000  0.82388300  0.90515200  1
  C  121  1  0.86162700  0.82288900  0.93614400  1
  C  122  1  0.88870900  0.85401900  0.95182500  1
  C  123  1  0.91661400  0.88494800  0.93668600  1
  C  124  1  0.91687000  0.88477900  0.90580600  1
  C  133  1  0.39020800  0.35532900  0.88774200  1
  C  134  1  0.36350300  0.32464700  0.90372700  1
  C  135  1  0.36377600  0.32484600  0.93460100  1
  C  136  1  0.39084500  0.35665400  0.94959500  1
  C  137  1  0.41712200  0.38829000  0.93377200  1
  C  138  1  0.41750600  0.38689500  0.90278900  1
  C  141  1  0.39014400  0.35344200  0.85679800  1
  C  142  1  0.41835200  0.32277700  0.84168200  1
  C  143  1  0.41787400  0.32139900  0.81069500  1
  C  144  1  0.39047100  0.35215800  0.79493900  1
  C  145  1  0.36245500  0.38306900  0.81000300  1
  C  146  1  0.36239700  0.38326500  0.84088300  1
  C  155  1  0.38884600  0.85344600  0.38868500  1
  C  156  1  0.41587500  0.88393300  0.40459800  1
  C  157  1  0.41571600  0.88381500  0.43547400  1
  C  158  1  0.38842200  0.85228300  0.45054400  1
  C  159  1  0.36180800  0.82084300  0.43479300  1
  C  160  1  0.36131900  0.82216700  0.40381000  1
  C  163  1  0.38875500  0.85530700  0.35773900  1
  C  164  1  0.36087000  0.88633600  0.34268200  1
  C  165  1  0.36122800  0.88773500  0.31169600  1
  C  166  1  0.38815200  0.85662500  0.29588200  1
  C  167  1  0.41584800  0.82535600  0.31088200  1
  C  168  1  0.41605400  0.82515000  0.34176300  1
  C  177  1  0.08394200  0.04654400  0.04474900  1
  C  178  1  0.03683200  0.05314300  0.04525900  1
  C  179  1  0.00854500  0.02742000  0.02703900  1
  C  180  1  0.02737200  0.99480100  0.00798500  1
  C  182  1  0.10121800  0.01289700  0.02603200  1
  C  183  1  0.00101300  0.96834900  0.98842700  1
  C  184  1  0.02032200  0.93788900  0.96810900  1
  C  185  1  0.99236400  0.91141300  0.95017300  1
  C  186  1  0.94503800  0.91494200  0.95226700  1
  C  187  1  0.92715700  0.94655500  0.97221900  1
  C  195  1  0.69673800  0.16233800  0.54394500  1
  C  196  1  0.74389200  0.15604100  0.54436900  1
  C  197  1  0.77192500  0.18189000  0.52606000  1
  C  198  1  0.75279400  0.21430100  0.50698300  1
  C  200  1  0.67915400  0.19578400  0.52519800  1
  C  201  1  0.77889600  0.24092000  0.48737400  1
  C  202  1  0.75929900  0.27122600  0.46707400  1
  C  203  1  0.78700900  0.29795500  0.44913500  1
  C  204  1  0.83436500  0.29486500  0.45123100  1
  C  205  1  0.85254300  0.26335300  0.47114000  1
  C  213  1  0.19458600  0.54425000  0.70200700  1
  C  214  1  0.24169000  0.55090300  0.70148000  1
  C  215  1  0.27003900  0.52508800  0.71960100  1
  C  216  1  0.25129100  0.49229900  0.73856400  1
  C  218  1  0.17739600  0.51040300  0.72060700  1
  C  219  1  0.27772400  0.46588700  0.75810300  1
  C  220  1  0.25852300  0.43535000  0.77841600  1
  C  221  1  0.28657600  0.40907000  0.79641400  1
  C  222  1  0.33388800  0.41282500  0.79435300  1
  C  223  1  0.35165500  0.44447100  0.77438300  1
  C  231  1  0.58218600  0.66397300  0.20205000  1
  C  232  1  0.53506500  0.65743700  0.20166100  1
  C  233  1  0.50693100  0.68318500  0.21996600  1
  C  234  1  0.52592400  0.71576200  0.23898100  1
  C  236  1  0.59962200  0.69762500  0.22070300  1
  C  237  1  0.49973800  0.74214600  0.25867800  1
  C  238  1  0.51923700  0.77236000  0.27907600  1
  C  239  1  0.49144700  0.79874500  0.29718000  1
  C  240  1  0.44410000  0.79538500  0.29515800  1
  C  241  1  0.42602400  0.76401100  0.27512000  1
  C  249  1  0.33395500  0.79038600  0.45041300  1
  C  250  1  0.28678400  0.79633200  0.45082900  1
  C  251  1  0.25978400  0.77039500  0.46967100  1
  C  252  1  0.27995300  0.73834400  0.48855800  1
  C  254  1  0.35268300  0.75736800  0.46901900  1
  C  255  1  0.25465500  0.71254600  0.50905500  1
  C  256  1  0.27400000  0.67864500  0.52691600  1
  C  257  1  0.24651900  0.65338900  0.54592700  1
  C  258  1  0.19981600  0.66202500  0.54752700  1
  C  259  1  0.18204300  0.69680900  0.52994000  1
  C  267  1  0.83518100  0.41597600  0.29580500  1
  C  268  1  0.78779100  0.41276700  0.29742900  1
  C  269  1  0.76046500  0.43936100  0.27916000  1
  C  270  1  0.78048700  0.46962500  0.25900800  1
  C  272  1  0.85378000  0.44747400  0.27605700  1
  C  273  1  0.75482000  0.49601700  0.23903800  1
  C  274  1  0.77425100  0.52886300  0.22040500  1
  C  275  1  0.74657900  0.55460800  0.20180300  1
  C  276  1  0.69954200  0.54759400  0.20142400  1
  C  277  1  0.68163800  0.51381000  0.21977300  1
  C  285  1  0.44639200  0.29149000  0.79512500  1
  C  286  1  0.49349600  0.29803500  0.79506000  1
  C  287  1  0.52118500  0.27231200  0.77651900  1
  C  288  1  0.50180100  0.23981700  0.75760800  1
  C  290  1  0.42845400  0.25811100  0.77646200  1
  C  291  1  0.52784900  0.21403300  0.73749600  1
  C  292  1  0.50911800  0.18031500  0.71922400  1
  C  293  1  0.53725300  0.15514200  0.70057600  1
  C  294  1  0.58408700  0.16343700  0.69987400  1
  C  295  1  0.60121600  0.19813900  0.71780600  1
  C  303  1  0.08155800  0.54686200  0.54640000  1
  C  304  1  0.03462300  0.55456700  0.54584400  1
  C  305  1  0.00672200  0.52924100  0.52713200  1
  C  306  1  0.02579100  0.49594300  0.50868300  1
  C  308  1  0.09905000  0.51257300  0.52828100  1
  C  309  1  0.99997900  0.46996600  0.48855400  1
  C  310  1  0.01971500  0.43797200  0.46943700  1
  C  311  1  0.99228000  0.41200200  0.45088600  1
  C  312  1  0.94508500  0.41785300  0.45097700  1
  C  313  1  0.92677600  0.45072000  0.46987100  1
  C  321  1  0.69564900  0.66382800  0.04648700  1
  C  322  1  0.74257100  0.65600800  0.04605600  1
  C  323  1  0.77069200  0.68141200  0.02753300  1
  C  324  1  0.75185700  0.71489900  0.00912400  1
  C  326  1  0.67839900  0.69830500  0.02842000  1
  C  327  1  0.77790100  0.74092000  0.98914100  1
  C  328  1  0.75842300  0.77315200  0.97008300  1
  C  329  1  0.78607800  0.79906900  0.95163900  1
  C  330  1  0.83323300  0.79292400  0.95176300  1
  C  331  1  0.85128200  0.75986900  0.97062200  1
  C  339  1  0.19670300  0.04713800  0.20071000  1
  C  340  1  0.24362000  0.05495000  0.20138700  1
  C  341  1  0.27147700  0.02965700  0.22014500  1
  C  342  1  0.25238900  0.99627800  0.23852400  1
  C  344  1  0.17920400  0.01275200  0.21874800  1
  C  345  1  0.27816000  0.97030700  0.25868200  1
  C  346  1  0.25841900  0.93815200  0.27768500  1
  C  347  1  0.28584100  0.91210800  0.29620400  1
  C  348  1  0.33302500  0.91801600  0.29618400  1
  C  349  1  0.35132800  0.95110500  0.27744800  1
  C  357  1  0.33614700  0.29439000  0.95037600  1
  C  358  1  0.28874400  0.29744500  0.94883300  1
  C  359  1  0.26159000  0.27094000  0.96726500  1
  C  360  1  0.28180000  0.24089600  0.98747500  1
  C  362  1  0.35494200  0.26314400  0.97021500  1
  C  363  1  0.25630100  0.21453800  0.00755500  1
  C  364  1  0.27589000  0.18170700  0.02613100  1
  C  365  1  0.24836000  0.15592100  0.04479900  1
  C  366  1  0.20132300  0.16290200  0.04531700  1
  C  367  1  0.18327300  0.19670700  0.02704400  1
  C  375  1  0.83550800  0.91920900  0.79703600  1
  C  376  1  0.78824600  0.91401200  0.79681200  1
  C  377  1  0.76150000  0.94017800  0.77795600  1
  C  378  1  0.78200700  0.97172600  0.75887100  1
  C  380  1  0.85459900  0.95171500  0.77820100  1
  C  381  1  0.75692600  0.99769300  0.73835200  1
  C  382  1  0.77656700  0.03125600  0.72036000  1
  C  383  1  0.74928900  0.05662400  0.70128500  1
  C  384  1  0.70249800  0.04844400  0.69978400  1
  C  385  1  0.68442200  0.01397300  0.71749500  1
  C  393  1  0.57954300  0.04579000  0.54535800  1
  C  394  1  0.53251700  0.05286100  0.54498600  1
  C  395  1  0.50477400  0.02700700  0.52649300  1
  C  396  1  0.52413400  0.99401300  0.50793900  1
  C  398  1  0.59736700  0.01183300  0.52711000  1
  C  399  1  0.49840300  0.96758700  0.48802200  1
  C  400  1  0.51836100  0.93731300  0.46784900  1
  C  401  1  0.49097800  0.91080000  0.44956400  1
  C  402  1  0.44360100  0.91413300  0.45117200  1
  C  403  1  0.42506300  0.94557400  0.47098200  1
  C  411  1  0.07755000  0.66097000  0.70229400  1
  C  412  1  0.03043700  0.65448100  0.70262400  1
  C  413  1  0.00304100  0.68037400  0.72131600  1
  C  414  1  0.02282400  0.71286300  0.74005800  1
  C  416  1  0.09581600  0.69442200  0.72074700  1
  C  417  1  0.99743400  0.73948700  0.76004800  1
  C  418  1  0.01778000  0.76943800  0.78025800  1
  C  419  1  0.99074600  0.79637600  0.79850000  1
  C  420  1  0.94332600  0.79380700  0.79680400  1
  C  421  1  0.92438700  0.76259600  0.77699600  1
  C  429  1  0.94439800  0.29180300  0.29622100  1
  C  430  1  0.99161300  0.29741800  0.29600500  1
  C  431  1  0.01860800  0.27135200  0.27723800  1
  C  432  1  0.99840100  0.23945700  0.25826000  1
  C  434  1  0.92561300  0.25900000  0.27747900  1
  C  435  1  0.02372800  0.21345200  0.23789200  1
  C  436  1  0.00431900  0.17970300  0.21993900  1
  C  437  1  0.03181400  0.15424400  0.20105300  1
  C  438  1  0.07860900  0.16248000  0.19972000  1
  C  439  1  0.09645500  0.19714600  0.21737000  1
  C  447  1  0.57757100  0.54846000  0.04658400  1
  C  448  1  0.53079500  0.55667000  0.04499300  1
  C  449  1  0.50358700  0.53131400  0.02587300  1
  C  450  1  0.52326800  0.49768900  0.00794600  1
  C  452  1  0.59569800  0.51393800  0.02893100  1
  C  453  1  0.49821800  0.47170500  0.98741600  1
  C  454  1  0.51868100  0.43983600  0.96853200  1
  C  455  1  0.49190800  0.41361000  0.94972200  1
  C  456  1  0.44468000  0.41911100  0.94930400  1
  C  457  1  0.42566300  0.45195300  0.96792100  1
  C  465  1  0.13940700  0.40842300  0.13807200  1
  C  466  1  0.16887600  0.38030800  0.15402600  1
  C  467  1  0.16742900  0.37923000  0.18487300  1
  C  468  1  0.13662800  0.40738600  0.19988900  1
  C  469  1  0.10776300  0.43670000  0.18410900  1
  C  470  1  0.10888000  0.43684900  0.15312700  1
  C  473  1  0.14137900  0.40834000  0.10714100  1
  C  474  1  0.17148500  0.43707500  0.09198400  1
  C  475  1  0.17240600  0.43691600  0.06099100  1
  C  476  1  0.14374400  0.40724800  0.04531500  1
  C  477  1  0.11332600  0.37878300  0.06042800  1
  C  478  1  0.11209300  0.37992600  0.09128200  1
  C  487  1  0.64187900  0.40821800  0.63768000  1
  C  488  1  0.61227800  0.43648600  0.65341500  1
  C  489  1  0.61366700  0.43808600  0.68425200  1
  C  490  1  0.64452800  0.41027600  0.69948900  1
  C  491  1  0.67351100  0.38079100  0.68393700  1
  C  492  1  0.67245600  0.38012500  0.65295600  1
  C  495  1  0.63989300  0.40774700  0.60675100  1
  C  496  1  0.60973700  0.37879500  0.59181000  1
  C  497  1  0.60864100  0.37857500  0.56081800  1
  C  498  1  0.63716700  0.40810200  0.54492700  1
  C  499  1  0.66762600  0.43679000  0.55982500  1
  C  500  1  0.66902900  0.43603100  0.59067900  1
  C  509  1  0.13908200  0.90768600  0.60911200  1
  C  510  1  0.10951100  0.87974400  0.59311400  1
  C  511  1  0.11086000  0.87888400  0.56226700  1
  C  512  1  0.14164100  0.90710900  0.54729000  1
  C  513  1  0.17059200  0.93628200  0.56311800  1
  C  514  1  0.16959400  0.93619100  0.59410300  1
  C  517  1  0.13725600  0.90723400  0.64004700  1
  C  518  1  0.10723000  0.93578600  0.65541500  1
  C  519  1  0.10628100  0.93506500  0.68640700  1
  C  520  1  0.13484200  0.90502600  0.70186300  1
  C  521  1  0.16517600  0.87673400  0.68654100  1
  C  522  1  0.16641700  0.87841900  0.65569500  1
  C  531  1  0.63763500  0.90886900  0.10868800  1
  C  532  1  0.66727900  0.93707700  0.09294500  1
  C  533  1  0.66615000  0.93838200  0.06209800  1
  C  534  1  0.63552500  0.91031500  0.04686200  1
  C  535  1  0.60650800  0.88087300  0.06242700  1
  C  536  1  0.60729300  0.88051900  0.09341500  1
  C  539  1  0.63938800  0.90872100  0.13962600  1
  C  540  1  0.66952700  0.88000700  0.15477100  1
  C  541  1  0.67050200  0.88017900  0.18576300  1
  C  542  1  0.64187200  0.90986300  0.20145000  1
  C  543  1  0.61144200  0.93833400  0.18634900  1
  C  544  1  0.61015100  0.93717200  0.15549600  1
  C  553  1  0.88952100  0.65781500  0.35809800  1
  C  554  1  0.86269800  0.68859800  0.34228100  1
  C  555  1  0.86296800  0.68879700  0.31140300  1
  C  556  1  0.89020200  0.65732000  0.29623900  1
  C  557  1  0.91664400  0.62562700  0.31189300  1
  C  558  1  0.91698800  0.62659300  0.34288300  1
  C  561  1  0.88949100  0.65930100  0.38904800  1
  C  562  1  0.91728800  0.69017900  0.40430000  1
  C  563  1  0.91693800  0.69109900  0.43529200  1
  C  564  1  0.89009800  0.65968600  0.45091200  1
  C  565  1  0.86251300  0.62854100  0.43571200  1
  C  566  1  0.86231400  0.62879700  0.40483200  1
  C  575  1  0.88958200  0.15941700  0.85900900  1
  C  576  1  0.91607100  0.12829300  0.84323400  1
  C  577  1  0.91588300  0.12806100  0.81235500  1
  C  578  1  0.88908300  0.15986500  0.79714700  1
  C  579  1  0.86298500  0.19189600  0.81276000  1
  C  580  1  0.86253700  0.19095200  0.84374800  1
  C  583  1  0.88946400  0.15790700  0.88996100  1
  C  584  1  0.86136000  0.12723500  0.90515200  1
  C  585  1  0.86162700  0.12624100  0.93614400  1
  C  586  1  0.88870900  0.15737100  0.95182500  1
  C  587  1  0.91661400  0.18830000  0.93668600  1
  C  588  1  0.91687000  0.18813100  0.90580600  1
  C  597  1  0.39020800  0.65868100  0.88774200  1
  C  598  1  0.36350300  0.62799900  0.90372700  1
  C  599  1  0.36377600  0.62819800  0.93460100  1
  C  600  1  0.39084500  0.66000600  0.94959500  1
  C  601  1  0.41712200  0.69164200  0.93377200  1
  C  602  1  0.41750600  0.69024700  0.90278900  1
  C  605  1  0.39014400  0.65679400  0.85679800  1
  C  606  1  0.41835200  0.62612900  0.84168200  1
  C  607  1  0.41787400  0.62475100  0.81069500  1
  C  608  1  0.39047100  0.65551000  0.79493900  1
  C  609  1  0.36245500  0.68642100  0.81000300  1
  C  610  1  0.36239700  0.68661700  0.84088300  1
  C  619  1  0.38884600  0.15679800  0.38868500  1
  C  620  1  0.41587500  0.18728500  0.40459800  1
  C  621  1  0.41571600  0.18716700  0.43547400  1
  C  622  1  0.38842200  0.15563500  0.45054400  1
  C  623  1  0.36180800  0.12419500  0.43479300  1
  C  624  1  0.36131900  0.12551900  0.40381000  1
  C  627  1  0.38875500  0.15865900  0.35773900  1
  C  628  1  0.36087000  0.18968800  0.34268200  1
  C  629  1  0.36122800  0.19108700  0.31169600  1
  C  630  1  0.38815200  0.15997700  0.29588200  1
  C  631  1  0.41584800  0.12870800  0.31088200  1
  C  632  1  0.41605400  0.12850200  0.34176300  1
  C  641  1  0.08394200  0.34989600  0.04474900  1
  C  642  1  0.03683200  0.35649500  0.04525900  1
  C  643  1  0.00854500  0.33077200  0.02703900  1
  C  644  1  0.02737200  0.29815300  0.00798500  1
  C  646  1  0.10121800  0.31624900  0.02603200  1
  C  647  1  0.00101300  0.27170100  0.98842700  1
  C  648  1  0.02032200  0.24124100  0.96810900  1
  C  649  1  0.99236400  0.21476500  0.95017300  1
  C  650  1  0.94503800  0.21829400  0.95226700  1
  C  651  1  0.92715700  0.24990700  0.97221900  1
  C  659  1  0.69673800  0.46569000  0.54394500  1
  C  660  1  0.74389200  0.45939300  0.54436900  1
  C  661  1  0.77192500  0.48524200  0.52606000  1
  C  662  1  0.75279400  0.51765300  0.50698300  1
  C  664  1  0.67915400  0.49913600  0.52519800  1
  C  665  1  0.77889600  0.54427200  0.48737400  1
  C  666  1  0.75929900  0.57457800  0.46707400  1
  C  667  1  0.78700900  0.60130700  0.44913500  1
  C  668  1  0.83436500  0.59821700  0.45123100  1
  C  669  1  0.85254300  0.56670500  0.47114000  1
  C  677  1  0.19458600  0.84760200  0.70200700  1
  C  678  1  0.24169000  0.85425500  0.70148000  1
  C  679  1  0.27003900  0.82844000  0.71960100  1
  C  680  1  0.25129100  0.79565100  0.73856400  1
  C  682  1  0.17739600  0.81375500  0.72060700  1
  C  683  1  0.27772400  0.76923900  0.75810300  1
  C  684  1  0.25852300  0.73870200  0.77841600  1
  C  685  1  0.28657600  0.71242200  0.79641400  1
  C  686  1  0.33388800  0.71617700  0.79435300  1
  C  687  1  0.35165500  0.74782300  0.77438300  1
  C  695  1  0.58218600  0.96732500  0.20205000  1
  C  696  1  0.53506500  0.96078900  0.20166100  1
  C  697  1  0.50693100  0.98653700  0.21996600  1
  C  698  1  0.52592400  0.01911400  0.23898100  1
  C  700  1  0.59962200  0.00097704  0.22070300  1
  C  701  1  0.49973800  0.04549800  0.25867800  1
  C  702  1  0.51923700  0.07571200  0.27907600  1
  C  703  1  0.49144700  0.10209700  0.29718000  1
  C  704  1  0.44410000  0.09873700  0.29515800  1
  C  705  1  0.42602400  0.06736300  0.27512000  1
  C  713  1  0.33395500  0.09373800  0.45041300  1
  C  714  1  0.28678400  0.09968400  0.45082900  1
  C  715  1  0.25978400  0.07374700  0.46967100  1
  C  716  1  0.27995300  0.04169600  0.48855800  1
  C  718  1  0.35268300  0.06072000  0.46901900  1
  C  719  1  0.25465500  0.01589800  0.50905500  1
  C  720  1  0.27400000  0.98199700  0.52691600  1
  C  721  1  0.24651900  0.95674100  0.54592700  1
  C  722  1  0.19981600  0.96537700  0.54752700  1
  C  723  1  0.18204300  0.00016104  0.52994000  1
  C  731  1  0.83518100  0.71932800  0.29580500  1
  C  732  1  0.78779100  0.71611900  0.29742900  1
  C  733  1  0.76046500  0.74271300  0.27916000  1
  C  734  1  0.78048700  0.77297700  0.25900800  1
  C  736  1  0.85378000  0.75082600  0.27605700  1
  C  737  1  0.75482000  0.79936900  0.23903800  1
  C  738  1  0.77425100  0.83221500  0.22040500  1
  C  739  1  0.74657900  0.85796000  0.20180300  1
  C  740  1  0.69954200  0.85094600  0.20142400  1
  C  741  1  0.68163800  0.81716200  0.21977300  1
  C  749  1  0.44639200  0.59484200  0.79512500  1
  C  750  1  0.49349600  0.60138700  0.79506000  1
  C  751  1  0.52118500  0.57566400  0.77651900  1
  C  752  1  0.50180100  0.54316900  0.75760800  1
  C  754  1  0.42845400  0.56146300  0.77646200  1
  C  755  1  0.52784900  0.51738500  0.73749600  1
  C  756  1  0.50911800  0.48366700  0.71922400  1
  C  757  1  0.53725300  0.45849400  0.70057600  1
  C  758  1  0.58408700  0.46678900  0.69987400  1
  C  759  1  0.60121600  0.50149100  0.71780600  1
  C  767  1  0.08155800  0.85021400  0.54640000  1
  C  768  1  0.03462300  0.85791900  0.54584400  1
  C  769  1  0.00672200  0.83259300  0.52713200  1
  C  770  1  0.02579100  0.79929500  0.50868300  1
  C  772  1  0.09905000  0.81592500  0.52828100  1
  C  773  1  0.99997900  0.77331800  0.48855400  1
  C  774  1  0.01971500  0.74132400  0.46943700  1
  C  775  1  0.99228000  0.71535400  0.45088600  1
  C  776  1  0.94508500  0.72120500  0.45097700  1
  C  777  1  0.92677600  0.75407200  0.46987100  1
  C  785  1  0.69564900  0.96718000  0.04648700  1
  C  786  1  0.74257100  0.95936000  0.04605600  1
  C  787  1  0.77069200  0.98476400  0.02753300  1
  C  788  1  0.75185700  0.01825100  0.00912400  1
  C  790  1  0.67839900  0.00165704  0.02842000  1
  C  791  1  0.77790100  0.04427200  0.98914100  1
  C  792  1  0.75842300  0.07650400  0.97008300  1
  C  793  1  0.78607800  0.10242100  0.95163900  1
  C  794  1  0.83323300  0.09627600  0.95176300  1
  C  795  1  0.85128200  0.06322100  0.97062200  1
  C  803  1  0.19670300  0.35049000  0.20071000  1
  C  804  1  0.24362000  0.35830200  0.20138700  1
  C  805  1  0.27147700  0.33300900  0.22014500  1
  C  806  1  0.25238900  0.29963000  0.23852400  1
  C  808  1  0.17920400  0.31610400  0.21874800  1
  C  809  1  0.27816000  0.27365900  0.25868200  1
  C  810  1  0.25841900  0.24150400  0.27768500  1
  C  811  1  0.28584100  0.21546000  0.29620400  1
  C  812  1  0.33302500  0.22136800  0.29618400  1
  C  813  1  0.35132800  0.25445700  0.27744800  1
  C  821  1  0.33614700  0.59774200  0.95037600  1
  C  822  1  0.28874400  0.60079700  0.94883300  1
  C  823  1  0.26159000  0.57429200  0.96726500  1
  C  824  1  0.28180000  0.54424800  0.98747500  1
  C  826  1  0.35494200  0.56649600  0.97021500  1
  C  827  1  0.25630100  0.51789000  0.00755500  1
  C  828  1  0.27589000  0.48505900  0.02613100  1
  C  829  1  0.24836000  0.45927300  0.04479900  1
  C  830  1  0.20132300  0.46625400  0.04531700  1
  C  831  1  0.18327300  0.50005900  0.02704400  1
  C  839  1  0.83550800  0.22256100  0.79703600  1
  C  840  1  0.78824600  0.21736400  0.79681200  1
  C  841  1  0.76150000  0.24353000  0.77795600  1
  C  842  1  0.78200700  0.27507800  0.75887100  1
  C  844  1  0.85459900  0.25506700  0.77820100  1
  C  845  1  0.75692600  0.30104500  0.73835200  1
  C  846  1  0.77656700  0.33460800  0.72036000  1
  C  847  1  0.74928900  0.35997600  0.70128500  1
  C  848  1  0.70249800  0.35179600  0.69978400  1
  C  849  1  0.68442200  0.31732500  0.71749500  1
  C  857  1  0.57954300  0.34914200  0.54535800  1
  C  858  1  0.53251700  0.35621300  0.54498600  1
  C  859  1  0.50477400  0.33035900  0.52649300  1
  C  860  1  0.52413400  0.29736500  0.50793900  1
  C  862  1  0.59736700  0.31518500  0.52711000  1
  C  863  1  0.49840300  0.27093900  0.48802200  1
  C  864  1  0.51836100  0.24066500  0.46784900  1
  C  865  1  0.49097800  0.21415200  0.44956400  1
  C  866  1  0.44360100  0.21748500  0.45117200  1
  C  867  1  0.42506300  0.24892600  0.47098200  1
  C  875  1  0.07755000  0.96432200  0.70229400  1
  C  876  1  0.03043700  0.95783300  0.70262400  1
  C  877  1  0.00304100  0.98372600  0.72131600  1
  C  878  1  0.02282400  0.01621500  0.74005800  1
  C  880  1  0.09581600  0.99777400  0.72074700  1
  C  881  1  0.99743400  0.04283900  0.76004800  1
  C  882  1  0.01778000  0.07279000  0.78025800  1
  C  883  1  0.99074600  0.09972800  0.79850000  1
  C  884  1  0.94332600  0.09715900  0.79680400  1
  C  885  1  0.92438700  0.06594800  0.77699600  1
  C  893  1  0.94439800  0.59515500  0.29622100  1
  C  894  1  0.99161300  0.60077000  0.29600500  1
  C  895  1  0.01860800  0.57470400  0.27723800  1
  C  896  1  0.99840100  0.54280900  0.25826000  1
  C  898  1  0.92561300  0.56235200  0.27747900  1
  C  899  1  0.02372800  0.51680400  0.23789200  1
  C  900  1  0.00431900  0.48305500  0.21993900  1
  C  901  1  0.03181400  0.45759600  0.20105300  1
  C  902  1  0.07860900  0.46583200  0.19972000  1
  C  903  1  0.09645500  0.50049800  0.21737000  1
  C  911  1  0.57757100  0.85181200  0.04658400  1
  C  912  1  0.53079500  0.86002200  0.04499300  1
  C  913  1  0.50358700  0.83466600  0.02587300  1
  C  914  1  0.52326800  0.80104100  0.00794600  1
  C  916  1  0.59569800  0.81729000  0.02893100  1
  C  917  1  0.49821800  0.77505700  0.98741600  1
  C  918  1  0.51868100  0.74318800  0.96853200  1
  C  919  1  0.49190800  0.71696200  0.94972200  1
  C  920  1  0.44468000  0.72246300  0.94930400  1
  C  921  1  0.42566300  0.75530500  0.96792100  1
  C  929  1  0.13940700  0.71177500  0.13807200  1
  C  930  1  0.16887600  0.68366000  0.15402600  1
  C  931  1  0.16742900  0.68258200  0.18487300  1
  C  932  1  0.13662800  0.71073800  0.19988900  1
  C  933  1  0.10776300  0.74005200  0.18410900  1
  C  934  1  0.10888000  0.74020100  0.15312700  1
  C  937  1  0.14137900  0.71169200  0.10714100  1
  C  938  1  0.17148500  0.74042700  0.09198400  1
  C  939  1  0.17240600  0.74026800  0.06099100  1
  C  940  1  0.14374400  0.71060000  0.04531500  1
  C  941  1  0.11332600  0.68213500  0.06042800  1
  C  942  1  0.11209300  0.68327800  0.09128200  1
  C  951  1  0.64187900  0.71157000  0.63768000  1
  C  952  1  0.61227800  0.73983800  0.65341500  1
  C  953  1  0.61366700  0.74143800  0.68425200  1
  C  954  1  0.64452800  0.71362800  0.69948900  1
  C  955  1  0.67351100  0.68414300  0.68393700  1
  C  956  1  0.67245600  0.68347700  0.65295600  1
  C  959  1  0.63989300  0.71109900  0.60675100  1
  C  960  1  0.60973700  0.68214700  0.59181000  1
  C  961  1  0.60864100  0.68192700  0.56081800  1
  C  962  1  0.63716700  0.71145400  0.54492700  1
  C  963  1  0.66762600  0.74014200  0.55982500  1
  C  964  1  0.66902900  0.73938300  0.59067900  1
  C  973  1  0.13908200  0.21103800  0.60911200  1
  C  974  1  0.10951100  0.18309600  0.59311400  1
  C  975  1  0.11086000  0.18223600  0.56226700  1
  C  976  1  0.14164100  0.21046100  0.54729000  1
  C  977  1  0.17059200  0.23963400  0.56311800  1
  C  978  1  0.16959400  0.23954300  0.59410300  1
  C  981  1  0.13725600  0.21058600  0.64004700  1
  C  982  1  0.10723000  0.23913800  0.65541500  1
  C  983  1  0.10628100  0.23841700  0.68640700  1
  C  984  1  0.13484200  0.20837800  0.70186300  1
  C  985  1  0.16517600  0.18008600  0.68654100  1
  C  986  1  0.16641700  0.18177100  0.65569500  1
  C  995  1  0.63763500  0.21222100  0.10868800  1
  C  996  1  0.66727900  0.24042900  0.09294500  1
  C  997  1  0.66615000  0.24173400  0.06209800  1
  C  998  1  0.63552500  0.21366700  0.04686200  1
  C  999  1  0.60650800  0.18422500  0.06242700  1
  C  1000  1  0.60729300  0.18387100  0.09341500  1
  C  1003  1  0.63938800  0.21207300  0.13962600  1
  C  1004  1  0.66952700  0.18335900  0.15477100  1
  C  1005  1  0.67050200  0.18353100  0.18576300  1
  C  1006  1  0.64187200  0.21321500  0.20145000  1
  C  1007  1  0.61144200  0.24168600  0.18634900  1
  C  1008  1  0.61015100  0.24052400  0.15549600  1
  C  1017  1  0.88952100  0.96116700  0.35809800  1
  C  1018  1  0.86269800  0.99195000  0.34228100  1
  C  1019  1  0.86296800  0.99214900  0.31140300  1
  C  1020  1  0.89020200  0.96067200  0.29623900  1
  C  1021  1  0.91664400  0.92897900  0.31189300  1
  C  1022  1  0.91698800  0.92994500  0.34288300  1
  C  1025  1  0.88949100  0.96265300  0.38904800  1
  C  1026  1  0.91728800  0.99353100  0.40430000  1
  C  1027  1  0.91693800  0.99445100  0.43529200  1
  C  1028  1  0.89009800  0.96303800  0.45091200  1
  C  1029  1  0.86251300  0.93189300  0.43571200  1
  C  1030  1  0.86231400  0.93214900  0.40483200  1
  C  1039  1  0.88958200  0.46276900  0.85900900  1
  C  1040  1  0.91607100  0.43164500  0.84323400  1
  C  1041  1  0.91588300  0.43141300  0.81235500  1
  C  1042  1  0.88908300  0.46321700  0.79714700  1
  C  1043  1  0.86298500  0.49524800  0.81276000  1
  C  1044  1  0.86253700  0.49430400  0.84374800  1
  C  1047  1  0.88946400  0.46125900  0.88996100  1
  C  1048  1  0.86136000  0.43058700  0.90515200  1
  C  1049  1  0.86162700  0.42959300  0.93614400  1
  C  1050  1  0.88870900  0.46072300  0.95182500  1
  C  1051  1  0.91661400  0.49165200  0.93668600  1
  C  1052  1  0.91687000  0.49148300  0.90580600  1
  C  1061  1  0.39020800  0.96203300  0.88774200  1
  C  1062  1  0.36350300  0.93135100  0.90372700  1
  C  1063  1  0.36377600  0.93155000  0.93460100  1
  C  1064  1  0.39084500  0.96335800  0.94959500  1
  C  1065  1  0.41712200  0.99499400  0.93377200  1
  C  1066  1  0.41750600  0.99359900  0.90278900  1
  C  1069  1  0.39014400  0.96014600  0.85679800  1
  C  1070  1  0.41835200  0.92948100  0.84168200  1
  C  1071  1  0.41787400  0.92810300  0.81069500  1
  C  1072  1  0.39047100  0.95886200  0.79493900  1
  C  1073  1  0.36245500  0.98977300  0.81000300  1
  C  1074  1  0.36239700  0.98996900  0.84088300  1
  C  1083  1  0.38884600  0.46015000  0.38868500  1
  C  1084  1  0.41587500  0.49063700  0.40459800  1
  C  1085  1  0.41571600  0.49051900  0.43547400  1
  C  1086  1  0.38842200  0.45898700  0.45054400  1
  C  1087  1  0.36180800  0.42754700  0.43479300  1
  C  1088  1  0.36131900  0.42887100  0.40381000  1
  C  1091  1  0.38875500  0.46201100  0.35773900  1
  C  1092  1  0.36087000  0.49304000  0.34268200  1
  C  1093  1  0.36122800  0.49443900  0.31169600  1
  C  1094  1  0.38815200  0.46332900  0.29588200  1
  C  1095  1  0.41584800  0.43206000  0.31088200  1
  C  1096  1  0.41605400  0.43185400  0.34176300  1
  C  1105  1  0.08394200  0.65324800  0.04474900  1
  C  1106  1  0.03683200  0.65984700  0.04525900  1
  C  1107  1  0.00854500  0.63412400  0.02703900  1
  C  1108  1  0.02737200  0.60150500  0.00798500  1
  C  1110  1  0.10121800  0.61960100  0.02603200  1
  C  1111  1  0.00101300  0.57505300  0.98842700  1
  C  1112  1  0.02032200  0.54459300  0.96810900  1
  C  1113  1  0.99236400  0.51811700  0.95017300  1
  C  1114  1  0.94503800  0.52164600  0.95226700  1
  C  1115  1  0.92715700  0.55325900  0.97221900  1
  C  1123  1  0.69673800  0.76904200  0.54394500  1
  C  1124  1  0.74389200  0.76274500  0.54436900  1
  C  1125  1  0.77192500  0.78859400  0.52606000  1
  C  1126  1  0.75279400  0.82100500  0.50698300  1
  C  1128  1  0.67915400  0.80248800  0.52519800  1
  C  1129  1  0.77889600  0.84762400  0.48737400  1
  C  1130  1  0.75929900  0.87793000  0.46707400  1
  C  1131  1  0.78700900  0.90465900  0.44913500  1
  C  1132  1  0.83436500  0.90156900  0.45123100  1
  C  1133  1  0.85254300  0.87005700  0.47114000  1
  C  1141  1  0.19458600  0.15095400  0.70200700  1
  C  1142  1  0.24169000  0.15760700  0.70148000  1
  C  1143  1  0.27003900  0.13179200  0.71960100  1
  C  1144  1  0.25129100  0.09900310  0.73856400  1
  C  1146  1  0.17739600  0.11710700  0.72060700  1
  C  1147  1  0.27772400  0.07259110  0.75810300  1
  C  1148  1  0.25852300  0.04205410  0.77841600  1
  C  1149  1  0.28657600  0.01577410  0.79641400  1
  C  1150  1  0.33388800  0.01952910  0.79435300  1
  C  1151  1  0.35165500  0.05117510  0.77438300  1
  C  1159  1  0.58218600  0.27067700  0.20205000  1
  C  1160  1  0.53506500  0.26414100  0.20166100  1
  C  1161  1  0.50693100  0.28988900  0.21996600  1
  C  1162  1  0.52592400  0.32246600  0.23898100  1
  C  1164  1  0.59962200  0.30432900  0.22070300  1
  C  1165  1  0.49973800  0.34885000  0.25867800  1
  C  1166  1  0.51923700  0.37906400  0.27907600  1
  C  1167  1  0.49144700  0.40544900  0.29718000  1
  C  1168  1  0.44410000  0.40208900  0.29515800  1
  C  1169  1  0.42602400  0.37071500  0.27512000  1
  C  1177  1  0.33395500  0.39709000  0.45041300  1
  C  1178  1  0.28678400  0.40303600  0.45082900  1
  C  1179  1  0.25978400  0.37709900  0.46967100  1
  C  1180  1  0.27995300  0.34504800  0.48855800  1
  C  1182  1  0.35268300  0.36407200  0.46901900  1
  C  1183  1  0.25465500  0.31925000  0.50905500  1
  C  1184  1  0.27400000  0.28534900  0.52691600  1
  C  1185  1  0.24651900  0.26009300  0.54592700  1
  C  1186  1  0.19981600  0.26872900  0.54752700  1
  C  1187  1  0.18204300  0.30351300  0.52994000  1
  C  1195  1  0.83518100  0.02268010  0.29580500  1
  C  1196  1  0.78779100  0.01947110  0.29742900  1
  C  1197  1  0.76046500  0.04606510  0.27916000  1
  C  1198  1  0.78048700  0.07632910  0.25900800  1
  C  1200  1  0.85378000  0.05417810  0.27605700  1
  C  1201  1  0.75482000  0.10272100  0.23903800  1
  C  1202  1  0.77425100  0.13556700  0.22040500  1
  C  1203  1  0.74657900  0.16131200  0.20180300  1
  C  1204  1  0.69954200  0.15429800  0.20142400  1
  C  1205  1  0.68163800  0.12051400  0.21977300  1
  C  1213  1  0.44639200  0.89819400  0.79512500  1
  C  1214  1  0.49349600  0.90473900  0.79506000  1
  C  1215  1  0.52118500  0.87901600  0.77651900  1
  C  1216  1  0.50180100  0.84652100  0.75760800  1
  C  1218  1  0.42845400  0.86481500  0.77646200  1
  C  1219  1  0.52784900  0.82073700  0.73749600  1
  C  1220  1  0.50911800  0.78701900  0.71922400  1
  C  1221  1  0.53725300  0.76184600  0.70057600  1
  C  1222  1  0.58408700  0.77014100  0.69987400  1
  C  1223  1  0.60121600  0.80484300  0.71780600  1
  C  1231  1  0.08155800  0.15356600  0.54640000  1
  C  1232  1  0.03462300  0.16127100  0.54584400  1
  C  1233  1  0.00672200  0.13594500  0.52713200  1
  C  1234  1  0.02579100  0.10264700  0.50868300  1
  C  1236  1  0.09905000  0.11927700  0.52828100  1
  C  1237  1  0.99997900  0.07667010  0.48855400  1
  C  1238  1  0.01971500  0.04467610  0.46943700  1
  C  1239  1  0.99228000  0.01870610  0.45088600  1
  C  1240  1  0.94508500  0.02455710  0.45097700  1
  C  1241  1  0.92677600  0.05742410  0.46987100  1
  C  1249  1  0.69564900  0.27053200  0.04648700  1
  C  1250  1  0.74257100  0.26271200  0.04605600  1
  C  1251  1  0.77069200  0.28811600  0.02753300  1
  C  1252  1  0.75185700  0.32160300  0.00912400  1
  C  1254  1  0.67839900  0.30500900  0.02842000  1
  C  1255  1  0.77790100  0.34762400  0.98914100  1
  C  1256  1  0.75842300  0.37985600  0.97008300  1
  C  1257  1  0.78607800  0.40577300  0.95163900  1
  C  1258  1  0.83323300  0.39962800  0.95176300  1
  C  1259  1  0.85128200  0.36657300  0.97062200  1
  C  1267  1  0.19670300  0.65384200  0.20071000  1
  C  1268  1  0.24362000  0.66165400  0.20138700  1
  C  1269  1  0.27147700  0.63636100  0.22014500  1
  C  1270  1  0.25238900  0.60298200  0.23852400  1
  C  1272  1  0.17920400  0.61945600  0.21874800  1
  C  1273  1  0.27816000  0.57701100  0.25868200  1
  C  1274  1  0.25841900  0.54485600  0.27768500  1
  C  1275  1  0.28584100  0.51881200  0.29620400  1
  C  1276  1  0.33302500  0.52472000  0.29618400  1
  C  1277  1  0.35132800  0.55780900  0.27744800  1
  C  1285  1  0.33614700  0.90109400  0.95037600  1
  C  1286  1  0.28874400  0.90414900  0.94883300  1
  C  1287  1  0.26159000  0.87764400  0.96726500  1
  C  1288  1  0.28180000  0.84760000  0.98747500  1
  C  1290  1  0.35494200  0.86984800  0.97021500  1
  C  1291  1  0.25630100  0.82124200  0.00755500  1
  C  1292  1  0.27589000  0.78841100  0.02613100  1
  C  1293  1  0.24836000  0.76262500  0.04479900  1
  C  1294  1  0.20132300  0.76960600  0.04531700  1
  C  1295  1  0.18327300  0.80341100  0.02704400  1
  C  1303  1  0.83550800  0.52591300  0.79703600  1
  C  1304  1  0.78824600  0.52071600  0.79681200  1
  C  1305  1  0.76150000  0.54688200  0.77795600  1
  C  1306  1  0.78200700  0.57843000  0.75887100  1
  C  1308  1  0.85459900  0.55841900  0.77820100  1
  C  1309  1  0.75692600  0.60439700  0.73835200  1
  C  1310  1  0.77656700  0.63796000  0.72036000  1
  C  1311  1  0.74928900  0.66332800  0.70128500  1
  C  1312  1  0.70249800  0.65514800  0.69978400  1
  C  1313  1  0.68442200  0.62067700  0.71749500  1
  C  1321  1  0.57954300  0.65249400  0.54535800  1
  C  1322  1  0.53251700  0.65956500  0.54498600  1
  C  1323  1  0.50477400  0.63371100  0.52649300  1
  C  1324  1  0.52413400  0.60071700  0.50793900  1
  C  1326  1  0.59736700  0.61853700  0.52711000  1
  C  1327  1  0.49840300  0.57429100  0.48802200  1
  C  1328  1  0.51836100  0.54401700  0.46784900  1
  C  1329  1  0.49097800  0.51750400  0.44956400  1
  C  1330  1  0.44360100  0.52083700  0.45117200  1
  C  1331  1  0.42506300  0.55227800  0.47098200  1
  C  1339  1  0.07755000  0.26767400  0.70229400  1
  C  1340  1  0.03043700  0.26118500  0.70262400  1
  C  1341  1  0.00304100  0.28707800  0.72131600  1
  C  1342  1  0.02282400  0.31956700  0.74005800  1
  C  1344  1  0.09581600  0.30112600  0.72074700  1
  C  1345  1  0.99743400  0.34619100  0.76004800  1
  C  1346  1  0.01778000  0.37614200  0.78025800  1
  C  1347  1  0.99074600  0.40308000  0.79850000  1
  C  1348  1  0.94332600  0.40051100  0.79680400  1
  C  1349  1  0.92438700  0.36930000  0.77699600  1
  C  1357  1  0.94439800  0.89850700  0.29622100  1
  C  1358  1  0.99161300  0.90412200  0.29600500  1
  C  1359  1  0.01860800  0.87805600  0.27723800  1
  C  1360  1  0.99840100  0.84616100  0.25826000  1
  C  1362  1  0.92561300  0.86570400  0.27747900  1
  C  1363  1  0.02372800  0.82015600  0.23789200  1
  C  1364  1  0.00431900  0.78640700  0.21993900  1
  C  1365  1  0.03181400  0.76094800  0.20105300  1
  C  1366  1  0.07860900  0.76918400  0.19972000  1
  C  1367  1  0.09645500  0.80385000  0.21737000  1
  C  1375  1  0.57757100  0.15516400  0.04658400  1
  C  1376  1  0.53079500  0.16337400  0.04499300  1
  C  1377  1  0.50358700  0.13801800  0.02587300  1
  C  1378  1  0.52326800  0.10439300  0.00794600  1
  C  1380  1  0.59569800  0.12064200  0.02893100  1
  C  1381  1  0.49821800  0.07840910  0.98741600  1
  C  1382  1  0.51868100  0.04654010  0.96853200  1
  C  1383  1  0.49190800  0.02031410  0.94972200  1
  C  1384  1  0.44468000  0.02581510  0.94930400  1
  C  1385  1  0.42566300  0.05865710  0.96792100  1
  N  181  1  0.07289700  0.98910500  0.00868400  1
  N  188  1  0.95522400  0.97127100  0.98923500  1
  N  199  1  0.70723700  0.21969800  0.50775800  1
  N  206  1  0.82470900  0.23837900  0.48815500  1
  N  217  1  0.20577700  0.48651900  0.73786400  1
  N  224  1  0.32350200  0.46902500  0.75733000  1
  N  235  1  0.57144400  0.72143400  0.23813900  1
  N  242  1  0.45393500  0.73936600  0.25795300  1
  N  253  1  0.32554200  0.73338000  0.48709400  1
  N  260  1  0.20954500  0.71995800  0.51170500  1
  N  271  1  0.82631000  0.47228100  0.25869100  1
  N  278  1  0.70936800  0.49008500  0.23755200  1
  N  289  1  0.45625400  0.23428500  0.75872200  1
  N  296  1  0.57307200  0.22131500  0.73561000  1
  N  307  1  0.07111000  0.48922200  0.51044300  1
  N  314  1  0.95434100  0.47479900  0.48762200  1
  N  325  1  0.70654000  0.72171100  0.01074200  1
  N  332  1  0.82351500  0.73583700  0.98826800  1
  N  343  1  0.20709800  0.98944500  0.23664400  1
  N  350  1  0.32378100  0.97524200  0.25971700  1
  N  361  1  0.32763000  0.23838100  0.98771000  1
  N  368  1  0.21085800  0.22044500  0.00917700  1
  N  379  1  0.82768100  0.97598300  0.76014000  1
  N  386  1  0.71174000  0.99069600  0.73577200  1
  N  397  1  0.56958300  0.98804300  0.50940100  1
  N  404  1  0.45258700  0.97032400  0.48834800  1
  N  415  1  0.06833900  0.71830000  0.73860500  1
  N  422  1  0.95158400  0.73743800  0.75966300  1
  N  433  1  0.95276300  0.23481700  0.25952200  1
  N  440  1  0.06892400  0.22051200  0.23546700  1
  N  451  1  0.56843700  0.49066100  0.01061400  1
  N  458  1  0.45258700  0.47624200  0.98596300  1
  N  645  1  0.07289700  0.29245700  0.00868400  1
  N  652  1  0.95522400  0.27462300  0.98923500  1
  N  663  1  0.70723700  0.52305000  0.50775800  1
  N  670  1  0.82470900  0.54173100  0.48815500  1
  N  681  1  0.20577700  0.78987100  0.73786400  1
  N  688  1  0.32350200  0.77237700  0.75733000  1
  N  699  1  0.57144400  0.02478600  0.23813900  1
  N  706  1  0.45393500  0.04271800  0.25795300  1
  N  717  1  0.32554200  0.03673200  0.48709400  1
  N  724  1  0.20954500  0.02331000  0.51170500  1
  N  735  1  0.82631000  0.77563300  0.25869100  1
  N  742  1  0.70936800  0.79343700  0.23755200  1
  N  753  1  0.45625400  0.53763700  0.75872200  1
  N  760  1  0.57307200  0.52466700  0.73561000  1
  N  771  1  0.07111000  0.79257400  0.51044300  1
  N  778  1  0.95434100  0.77815100  0.48762200  1
  N  789  1  0.70654000  0.02506300  0.01074200  1
  N  796  1  0.82351500  0.03918900  0.98826800  1
  N  807  1  0.20709800  0.29279700  0.23664400  1
  N  814  1  0.32378100  0.27859400  0.25971700  1
  N  825  1  0.32763000  0.54173300  0.98771000  1
  N  832  1  0.21085800  0.52379700  0.00917700  1
  N  843  1  0.82768100  0.27933500  0.76014000  1
  N  850  1  0.71174000  0.29404800  0.73577200  1
  N  861  1  0.56958300  0.29139500  0.50940100  1
  N  868  1  0.45258700  0.27367600  0.48834800  1
  N  879  1  0.06833900  0.02165200  0.73860500  1
  N  886  1  0.95158400  0.04079000  0.75966300  1
  N  897  1  0.95276300  0.53816900  0.25952200  1
  N  904  1  0.06892400  0.52386400  0.23546700  1
  N  915  1  0.56843700  0.79401300  0.01061400  1
  N  922  1  0.45258700  0.77959400  0.98596300  1
  N  1109  1  0.07289700  0.59580900  0.00868400  1
  N  1116  1  0.95522400  0.57797500  0.98923500  1
  N  1127  1  0.70723700  0.82640200  0.50775800  1
  N  1134  1  0.82470900  0.84508300  0.48815500  1
  N  1145  1  0.20577700  0.09322310  0.73786400  1
  N  1152  1  0.32350200  0.07572910  0.75733000  1
  N  1163  1  0.57144400  0.32813800  0.23813900  1
  N  1170  1  0.45393500  0.34607000  0.25795300  1
  N  1181  1  0.32554200  0.34008400  0.48709400  1
  N  1188  1  0.20954500  0.32666200  0.51170500  1
  N  1199  1  0.82631000  0.07898510  0.25869100  1
  N  1206  1  0.70936800  0.09678910  0.23755200  1
  N  1217  1  0.45625400  0.84098900  0.75872200  1
  N  1224  1  0.57307200  0.82801900  0.73561000  1
  N  1235  1  0.07111000  0.09592610  0.51044300  1
  N  1242  1  0.95434100  0.08150310  0.48762200  1
  N  1253  1  0.70654000  0.32841500  0.01074200  1
  N  1260  1  0.82351500  0.34254100  0.98826800  1
  N  1271  1  0.20709800  0.59614900  0.23664400  1
  N  1278  1  0.32378100  0.58194600  0.25971700  1
  N  1289  1  0.32763000  0.84508500  0.98771000  1
  N  1296  1  0.21085800  0.82714900  0.00917700  1
  N  1307  1  0.82768100  0.58268700  0.76014000  1
  N  1314  1  0.71174000  0.59740000  0.73577200  1
  N  1325  1  0.56958300  0.59474700  0.50940100  1
  N  1332  1  0.45258700  0.57702800  0.48834800  1
  N  1343  1  0.06833900  0.32500400  0.73860500  1
  N  1350  1  0.95158400  0.34414200  0.75966300  1
  N  1361  1  0.95276300  0.84152100  0.25952200  1
  N  1368  1  0.06892400  0.82721600  0.23546700  1
  N  1379  1  0.56843700  0.09736510  0.01061400  1
  N  1386  1  0.45258700  0.08294610  0.98596300  1
  O  8  1  0.13646000  0.10426000  0.22982100  1
  O  15  1  0.14367900  0.10408100  0.01538500  1
  O  17  1  0.08064900  0.16100500  0.13772700  1
  O  18  1  0.19942300  0.16160900  0.10732400  1
  O  30  1  0.64458900  0.10713200  0.72941900  1
  O  37  1  0.63701800  0.10427100  0.51499900  1
  O  39  1  0.70075600  0.04905000  0.63777600  1
  O  40  1  0.58187900  0.04775200  0.60736000  1
  O  52  1  0.14171700  0.60416200  0.51736000  1
  O  59  1  0.13490500  0.60135400  0.73179100  1
  O  61  1  0.19796000  0.66014400  0.60954600  1
  O  62  1  0.07939800  0.66068600  0.64027700  1
  O  74  1  0.63569700  0.60692900  0.01693100  1
  O  81  1  0.64189200  0.60638300  0.23137900  1
  O  83  1  0.57893000  0.54952800  0.10861100  1
  O  84  1  0.69749600  0.54881400  0.13941800  1
  O  96  1  0.88926200  0.35310100  0.26632300  1
  O  103  1  0.88911700  0.35715900  0.48082300  1
  O  105  1  0.94204200  0.29249300  0.35803400  1
  O  106  1  0.94266500  0.41734400  0.38917300  1
  O  118  1  0.89009400  0.85731600  0.76723400  1
  O  125  1  0.88962600  0.85309200  0.98173600  1
  O  127  1  0.83778600  0.91864300  0.85886000  1
  O  128  1  0.83577400  0.79361200  0.88996500  1
  O  140  1  0.38989800  0.35787700  0.97950600  1
  O  147  1  0.38939600  0.35092100  0.76503500  1
  O  149  1  0.44240500  0.41756700  0.88746900  1
  O  150  1  0.44424200  0.29286100  0.85694500  1
  O  162  1  0.38945000  0.85114100  0.48045300  1
  O  169  1  0.38911900  0.85787800  0.26597500  1
  O  171  1  0.33607000  0.79169000  0.38856500  1
  O  172  1  0.33543400  0.91657700  0.35799900  1
  O  472  1  0.13646000  0.40761200  0.22982100  1
  O  479  1  0.14367900  0.40743300  0.01538500  1
  O  481  1  0.08064900  0.46435700  0.13772700  1
  O  482  1  0.19942300  0.46496100  0.10732400  1
  O  494  1  0.64458900  0.41048400  0.72941900  1
  O  501  1  0.63701800  0.40762300  0.51499900  1
  O  503  1  0.70075600  0.35240200  0.63777600  1
  O  504  1  0.58187900  0.35110400  0.60736000  1
  O  516  1  0.14171700  0.90751400  0.51736000  1
  O  523  1  0.13490500  0.90470600  0.73179100  1
  O  525  1  0.19796000  0.96349600  0.60954600  1
  O  526  1  0.07939800  0.96403800  0.64027700  1
  O  538  1  0.63569700  0.91028100  0.01693100  1
  O  545  1  0.64189200  0.90973500  0.23137900  1
  O  547  1  0.57893000  0.85288000  0.10861100  1
  O  548  1  0.69749600  0.85216600  0.13941800  1
  O  560  1  0.88926200  0.65645300  0.26632300  1
  O  567  1  0.88911700  0.66051100  0.48082300  1
  O  569  1  0.94204200  0.59584500  0.35803400  1
  O  570  1  0.94266500  0.72069600  0.38917300  1
  O  582  1  0.89009400  0.16066800  0.76723400  1
  O  589  1  0.88962600  0.15644400  0.98173600  1
  O  591  1  0.83778600  0.22199500  0.85886000  1
  O  592  1  0.83577400  0.09696400  0.88996500  1
  O  604  1  0.38989800  0.66122900  0.97950600  1
  O  611  1  0.38939600  0.65427300  0.76503500  1
  O  613  1  0.44240500  0.72091900  0.88746900  1
  O  614  1  0.44424200  0.59621300  0.85694500  1
  O  626  1  0.38945000  0.15449300  0.48045300  1
  O  633  1  0.38911900  0.16123000  0.26597500  1
  O  635  1  0.33607000  0.09504200  0.38856500  1
  O  636  1  0.33543400  0.21992900  0.35799900  1
  O  936  1  0.13646000  0.71096400  0.22982100  1
  O  943  1  0.14367900  0.71078500  0.01538500  1
  O  945  1  0.08064900  0.76770900  0.13772700  1
  O  946  1  0.19942300  0.76831300  0.10732400  1
  O  958  1  0.64458900  0.71383600  0.72941900  1
  O  965  1  0.63701800  0.71097500  0.51499900  1
  O  967  1  0.70075600  0.65575400  0.63777600  1
  O  968  1  0.58187900  0.65445600  0.60736000  1
  O  980  1  0.14171700  0.21086600  0.51736000  1
  O  987  1  0.13490500  0.20805800  0.73179100  1
  O  989  1  0.19796000  0.26684800  0.60954600  1
  O  990  1  0.07939800  0.26739000  0.64027700  1
  O  1002  1  0.63569700  0.21363300  0.01693100  1
  O  1009  1  0.64189200  0.21308700  0.23137900  1
  O  1011  1  0.57893000  0.15623200  0.10861100  1
  O  1012  1  0.69749600  0.15551800  0.13941800  1
  O  1024  1  0.88926200  0.95980500  0.26632300  1
  O  1031  1  0.88911700  0.96386300  0.48082300  1
  O  1033  1  0.94204200  0.89919700  0.35803400  1
  O  1034  1  0.94266500  0.02404810  0.38917300  1
  O  1046  1  0.89009400  0.46402000  0.76723400  1
  O  1053  1  0.88962600  0.45979600  0.98173600  1
  O  1055  1  0.83778600  0.52534700  0.85886000  1
  O  1056  1  0.83577400  0.40031600  0.88996500  1
  O  1068  1  0.38989800  0.96458100  0.97950600  1
  O  1075  1  0.38939600  0.95762500  0.76503500  1
  O  1077  1  0.44240500  0.02427110  0.88746900  1
  O  1078  1  0.44424200  0.89956500  0.85694500  1
  O  1090  1  0.38945000  0.45784500  0.48045300  1
  O  1097  1  0.38911900  0.46458200  0.26597500  1
  O  1099  1  0.33607000  0.39839400  0.38856500  1
  O  1100  1  0.33543400  0.52328100  0.35799900  1
