# generated using pymatgen
data_H24C39(N2O)4
_symmetry_space_group_name_H-M   'P 1'
_cell_length_a   41.41290000
_cell_length_b   44.50830000
_cell_length_c   44.50830000
_cell_angle_alpha   90.00000000
_cell_angle_beta   90.00000000
_cell_angle_gamma   90.00000000
_symmetry_Int_Tables_number   1
_chemical_formula_structural   H24C39(N2O)4
_chemical_formula_sum   'H384 C624 N128 O64'
_cell_volume   82038.48978716
_cell_formula_units_Z   16
loop_
 _symmetry_equiv_pos_site_id
 _symmetry_equiv_pos_as_xyz
  1  'x, y, z'
loop_
 _atom_site_type_symbol
 _atom_site_label
 _atom_site_symmetry_multiplicity
 _atom_site_fract_x
 _atom_site_fract_y
 _atom_site_fract_z
 _atom_site_occupancy
  H  26  1  0.10400700  0.20177000  0.21700600  1
  H  27  1  0.14091000  0.17050500  0.19109000  1
  H  28  1  0.05259100  0.21578000  0.13642300  1
  H  29  1  0.08953700  0.18418500  0.11052400  1
  H  30  1  0.13898800  0.16916800  0.07123200  1
  H  31  1  0.17591800  0.19997100  0.04471200  1
  H  32  1  0.22733200  0.21552900  0.12500700  1
  H  33  1  0.19025900  0.18458800  0.15155300  1
  H  34  1  0.20495200  0.12951700  0.13478800  1
  H  35  1  0.22992000  0.09673000  0.16969000  1
  H  36  1  0.13948000  0.08065100  0.21024200  1
  H  37  1  0.11481400  0.11396600  0.17583300  1
  H  38  1  0.07489800  0.12937200  0.12862500  1
  H  39  1  0.16498500  0.11294500  0.08780300  1
  H  40  1  0.14070200  0.07702700  0.05581400  1
  H  41  1  0.05035800  0.09387600  0.09614800  1
  H  44  1  0.25237100  0.22328600  0.07265800  1
  H  45  1  0.02777600  0.22645200  0.18752300  1
  H  47  1  0.18771800  0.06086500  0.23331400  1
  H  49  1  0.09453300  0.04466000  0.04525000  1
  H  75  1  0.60428700  0.59690700  0.04524200  1
  H  76  1  0.64110400  0.62787900  0.07161900  1
  H  77  1  0.55231100  0.58235700  0.12541700  1
  H  78  1  0.58922400  0.61361400  0.15181200  1
  H  79  1  0.63913100  0.62829900  0.19145400  1
  H  80  1  0.67615400  0.59722600  0.21752800  1
  H  81  1  0.72709000  0.58228700  0.13685100  1
  H  82  1  0.68998000  0.61354700  0.11079000  1
  H  83  1  0.70473400  0.66853400  0.12813900  1
  H  84  1  0.72965400  0.70145600  0.09334100  1
  H  85  1  0.63913900  0.71779700  0.05302400  1
  H  86  1  0.61452100  0.68433300  0.08731800  1
  H  87  1  0.57471200  0.66855400  0.13424900  1
  H  88  1  0.66469800  0.68464100  0.17537200  1
  H  89  1  0.64039000  0.72043500  0.20747300  1
  H  90  1  0.55013800  0.70394100  0.16682500  1
  H  93  1  0.75223600  0.57249600  0.18816500  1
  H  94  1  0.52760100  0.57372900  0.07329100  1
  H  96  1  0.68736800  0.73758200  0.02992500  1
  H  98  1  0.59430700  0.75289600  0.21797900  1
  H  124  1  0.67578700  0.09665600  0.71749100  1
  H  125  1  0.63904500  0.12766300  0.69106000  1
  H  126  1  0.72832800  0.08264800  0.63753500  1
  H  127  1  0.69149400  0.11393600  0.61109500  1
  H  128  1  0.64199300  0.12840000  0.57142000  1
  H  129  1  0.60509600  0.09751200  0.54494800  1
  H  130  1  0.55319200  0.08270400  0.62511500  1
  H  131  1  0.59021000  0.11372900  0.65159600  1
  H  132  1  0.57576200  0.16870000  0.63454300  1
  H  133  1  0.55075300  0.20153200  0.66938100  1
  H  134  1  0.64113300  0.21759800  0.71006100  1
  H  135  1  0.66583300  0.18422900  0.67573100  1
  H  136  1  0.70575100  0.16878600  0.62874800  1
  H  137  1  0.61582200  0.18478500  0.58747300  1
  H  138  1  0.64014300  0.22061900  0.55542500  1
  H  139  1  0.73034500  0.20420800  0.59620600  1
  H  142  1  0.52838300  0.07462300  0.57281500  1
  H  143  1  0.75273900  0.07382500  0.68969400  1
  H  145  1  0.59286800  0.23738700  0.73306100  1
  H  147  1  0.68623300  0.25322900  0.54515900  1
  H  173  1  0.17696300  0.70062900  0.54531000  1
  H  174  1  0.13999300  0.66944200  0.57126000  1
  H  175  1  0.22710400  0.71632800  0.62627000  1
  H  176  1  0.19010700  0.68483400  0.65221400  1
  H  177  1  0.14091100  0.66893600  0.69174100  1
  H  178  1  0.10403800  0.69985000  0.71815000  1
  H  179  1  0.05344500  0.71624700  0.63756900  1
  H  180  1  0.09040300  0.68507300  0.61113400  1
  H  181  1  0.07502700  0.63000200  0.62826500  1
  H  182  1  0.05034700  0.59472500  0.59565800  1
  H  183  1  0.14068500  0.57744300  0.55552100  1
  H  184  1  0.16510500  0.61316900  0.58760500  1
  H  185  1  0.20549500  0.62989000  0.63450700  1
  H  186  1  0.11531600  0.61280700  0.67488600  1
  H  187  1  0.13965800  0.57685900  0.70678300  1
  H  188  1  0.23009500  0.59440400  0.66694100  1
  H  191  1  0.02804900  0.72397800  0.68976200  1
  H  192  1  0.25254900  0.72618200  0.57512000  1
  H  194  1  0.09444600  0.54529600  0.54485600  1
  H  196  1  0.18593500  0.54464000  0.71732100  1
  H  222  1  0.42957400  0.98442800  0.43317300  1
  H  223  1  0.39305900  0.95988200  0.40068500  1
  H  224  1  0.47420500  0.90139000  0.45221700  1
  H  225  1  0.43789200  0.87691100  0.41906600  1
  H  226  1  0.38737900  0.83804600  0.39950800  1
  H  227  1  0.35081800  0.81324000  0.43188600  1
  H  228  1  0.30686300  0.89626900  0.45226900  1
  H  229  1  0.34319200  0.92099700  0.41935600  1
  H  230  1  0.32473400  0.90481600  0.36419300  1
  H  231  1  0.30031200  0.93942100  0.33079700  1
  H  232  1  0.39191400  0.97582100  0.31093100  1
  H  233  1  0.41607800  0.94176700  0.34485300  1
  H  234  1  0.45609000  0.89448300  0.36416800  1
  H  235  1  0.36516400  0.85708800  0.34387800  1
  H  236  1  0.38956400  0.82566900  0.30737000  1
  H  237  1  0.48061300  0.86253400  0.32827400  1
  H  240  1  0.28087900  0.84887400  0.46705000  1
  H  241  1  0.49898000  0.94817200  0.46952400  1
  H  243  1  0.34503000  0.99770000  0.28852800  1
  H  245  1  0.43749200  0.81797400  0.27412000  1
  H  271  1  0.92943200  0.81354500  0.83012200  1
  H  272  1  0.89289300  0.83811600  0.86257000  1
  H  273  1  0.97400000  0.89658600  0.81095700  1
  H  274  1  0.93765700  0.92109200  0.84407200  1
  H  275  1  0.88706900  0.95996300  0.86369100  1
  H  276  1  0.85057000  0.98468700  0.83121900  1
  H  277  1  0.80673600  0.90159200  0.81086500  1
  H  278  1  0.84302000  0.87695400  0.84387200  1
  H  279  1  0.82459100  0.89323800  0.89908700  1
  H  280  1  0.80019700  0.85864700  0.93250500  1
  H  281  1  0.89180600  0.82221600  0.95229700  1
  H  282  1  0.91594800  0.85626300  0.91834600  1
  H  283  1  0.95591400  0.90345500  0.89900400  1
  H  284  1  0.86506300  0.94098700  0.91932800  1
  H  285  1  0.88953900  0.97235600  0.95583800  1
  H  286  1  0.98050600  0.93534500  0.93490000  1
  H  289  1  0.78155600  0.94847100  0.79430600  1
  H  290  1  0.99885700  0.84975000  0.79380100  1
  H  292  1  0.84491500  0.80037500  0.97476500  1
  H  294  1  0.93749000  0.97990800  0.98910200  1
  H  320  1  0.85049100  0.48499100  0.33085100  1
  H  321  1  0.88706600  0.46030100  0.36327600  1
  H  322  1  0.80679200  0.40184400  0.31045900  1
  H  323  1  0.84311100  0.37722400  0.34348400  1
  H  324  1  0.89322900  0.33814800  0.36325200  1
  H  325  1  0.92973600  0.31344100  0.33076800  1
  H  326  1  0.97347600  0.39656400  0.31035400  1
  H  327  1  0.93722400  0.42119800  0.34343300  1
  H  328  1  0.95592900  0.40390500  0.39852600  1
  H  329  1  0.98059000  0.43587900  0.43430800  1
  H  330  1  0.88966000  0.47293200  0.45532200  1
  H  331  1  0.86513300  0.44153800  0.41889300  1
  H  332  1  0.82448400  0.39453800  0.39859600  1
  H  333  1  0.91531600  0.35690900  0.41885700  1
  H  334  1  0.89083300  0.32549900  0.45530400  1
  H  335  1  0.79987400  0.36254800  0.43439300  1
  H  338  1  0.99948800  0.34922900  0.29542600  1
  H  339  1  0.78076100  0.44914100  0.29550200  1
  H  341  1  0.93762300  0.48049900  0.48853200  1
  H  343  1  0.84289200  0.31799000  0.48858800  1
  H  369  1  0.35089500  0.31350600  0.93274600  1
  H  370  1  0.38739800  0.33809000  0.90027800  1
  H  371  1  0.30630800  0.39652600  0.95194000  1
  H  372  1  0.34261500  0.42104800  0.91880400  1
  H  373  1  0.39323500  0.45994800  0.89916800  1
  H  374  1  0.42973100  0.48466900  0.93163800  1
  H  375  1  0.47353800  0.40157300  0.95202300  1
  H  376  1  0.43725700  0.37693200  0.91901600  1
  H  377  1  0.45571300  0.39318800  0.86384600  1
  H  378  1  0.48012300  0.35859000  0.83044300  1
  H  379  1  0.38851400  0.32221900  0.81054600  1
  H  380  1  0.36435200  0.35627300  0.84447900  1
  H  381  1  0.32435500  0.40351600  0.86389300  1
  H  382  1  0.41524200  0.44095600  0.84354400  1
  H  383  1  0.39079100  0.47237100  0.80706100  1
  H  384  1  0.29978600  0.43544900  0.82802400  1
  H  387  1  0.49874300  0.44846500  0.96854800  1
  H  388  1  0.28151600  0.34970100  0.96917300  1
  H  390  1  0.43541200  0.30036900  0.78810300  1
  H  392  1  0.34286400  0.48010400  0.77387000  1
  H  399  1  0.06957000  0.00861300  0.01493500  1
  H  403  1  0.92622800  0.05854100  0.96800400  1
  H  412  1  0.56936300  0.78920600  0.24795600  1
  H  416  1  0.42516400  0.74077700  0.29571600  1
  H  425  1  0.71105600  0.28919600  0.51470900  1
  H  429  1  0.85527700  0.24068300  0.46716700  1
  H  438  1  0.21081800  0.50867400  0.74777300  1
  H  442  1  0.35391900  0.55867800  0.79526600  1
  H  451  1  0.46209300  0.26065500  0.76375900  1
  H  455  1  0.57270300  0.30326900  0.69668800  1
  H  464  1  0.31954000  0.76324900  0.50594600  1
  H  468  1  0.19761300  0.80481400  0.55627900  1
  H  477  1  0.81906600  0.53519000  0.25723100  1
  H  481  1  0.69745600  0.49309500  0.20621600  1
  H  490  1  0.57126600  0.00342200  0.51611300  1
  H  494  1  0.42995800  0.00806900  0.51871500  1
  H  503  1  0.07108900  0.79432900  0.74726600  1
  H  507  1  0.92990500  0.79026400  0.74394000  1
  H  516  1  0.20934800  0.29433000  0.01584200  1
  H  520  1  0.35067600  0.28998200  0.01839600  1
  H  529  1  0.96092000  0.26349700  0.25673200  1
  H  533  1  0.08307900  0.30481300  0.20623700  1
  H  542  1  0.81819900  0.76063600  0.99905200  1
  H  546  1  0.70799400  0.80358800  0.06623400  1
  H  555  1  0.57074200  0.50351800  0.01564000  1
  H  559  1  0.42941900  0.50754800  0.01850200  1
  H  568  1  0.70955900  0.00346700  0.74716200  1
  H  572  1  0.85071000  0.00770300  0.74412200  1
  H  581  1  0.31845600  0.03736200  0.26405700  1
  H  585  1  0.20795300  0.99443800  0.19705900  1
  H  594  1  0.06953300  0.50919100  0.51461900  1
  H  598  1  0.92527700  0.55772100  0.46711800  1
  H  626  1  0.36962500  0.20177000  0.21700600  1
  H  627  1  0.40652800  0.17050500  0.19109000  1
  H  628  1  0.31820900  0.21578000  0.13642300  1
  H  629  1  0.35515500  0.18418500  0.11052400  1
  H  630  1  0.40460600  0.16916800  0.07123200  1
  H  631  1  0.44153600  0.19997100  0.04471200  1
  H  632  1  0.49295000  0.21552900  0.12500700  1
  H  633  1  0.45587700  0.18458800  0.15155300  1
  H  634  1  0.47057000  0.12951700  0.13478800  1
  H  635  1  0.49553800  0.09673000  0.16969000  1
  H  636  1  0.40509800  0.08065100  0.21024200  1
  H  637  1  0.38043200  0.11396600  0.17583300  1
  H  638  1  0.34051600  0.12937200  0.12862500  1
  H  639  1  0.43060300  0.11294500  0.08780300  1
  H  640  1  0.40632000  0.07702700  0.05581400  1
  H  641  1  0.31597600  0.09387600  0.09614800  1
  H  644  1  0.51798900  0.22328600  0.07265800  1
  H  645  1  0.29339400  0.22645200  0.18752300  1
  H  647  1  0.45333600  0.06086500  0.23331400  1
  H  649  1  0.36015100  0.04466000  0.04525000  1
  H  675  1  0.86990500  0.59690700  0.04524200  1
  H  676  1  0.90672200  0.62787900  0.07161900  1
  H  677  1  0.81792900  0.58235700  0.12541700  1
  H  678  1  0.85484200  0.61361400  0.15181200  1
  H  679  1  0.90474900  0.62829900  0.19145400  1
  H  680  1  0.94177200  0.59722600  0.21752800  1
  H  681  1  0.99270800  0.58228700  0.13685100  1
  H  682  1  0.95559800  0.61354700  0.11079000  1
  H  683  1  0.97035200  0.66853400  0.12813900  1
  H  684  1  0.99527200  0.70145600  0.09334100  1
  H  685  1  0.90475700  0.71779700  0.05302400  1
  H  686  1  0.88013900  0.68433300  0.08731800  1
  H  687  1  0.84033000  0.66855400  0.13424900  1
  H  688  1  0.93031600  0.68464100  0.17537200  1
  H  689  1  0.90600800  0.72043500  0.20747300  1
  H  690  1  0.81575600  0.70394100  0.16682500  1
  H  693  1  0.01785370  0.57249600  0.18816500  1
  H  694  1  0.79321900  0.57372900  0.07329100  1
  H  696  1  0.95298600  0.73758200  0.02992500  1
  H  698  1  0.85992500  0.75289600  0.21797900  1
  H  724  1  0.94140500  0.09665600  0.71749100  1
  H  725  1  0.90466300  0.12766300  0.69106000  1
  H  726  1  0.99394600  0.08264800  0.63753500  1
  H  727  1  0.95711200  0.11393600  0.61109500  1
  H  728  1  0.90761100  0.12840000  0.57142000  1
  H  729  1  0.87071400  0.09751200  0.54494800  1
  H  730  1  0.81881000  0.08270400  0.62511500  1
  H  731  1  0.85582800  0.11372900  0.65159600  1
  H  732  1  0.84138000  0.16870000  0.63454300  1
  H  733  1  0.81637100  0.20153200  0.66938100  1
  H  734  1  0.90675100  0.21759800  0.71006100  1
  H  735  1  0.93145100  0.18422900  0.67573100  1
  H  736  1  0.97136900  0.16878600  0.62874800  1
  H  737  1  0.88144000  0.18478500  0.58747300  1
  H  738  1  0.90576100  0.22061900  0.55542500  1
  H  739  1  0.99596300  0.20420800  0.59620600  1
  H  742  1  0.79400100  0.07462300  0.57281500  1
  H  743  1  0.01835670  0.07382500  0.68969400  1
  H  745  1  0.85848600  0.23738700  0.73306100  1
  H  747  1  0.95185100  0.25322900  0.54515900  1
  H  773  1  0.44258100  0.70062900  0.54531000  1
  H  774  1  0.40561100  0.66944200  0.57126000  1
  H  775  1  0.49272200  0.71632800  0.62627000  1
  H  776  1  0.45572500  0.68483400  0.65221400  1
  H  777  1  0.40652900  0.66893600  0.69174100  1
  H  778  1  0.36965600  0.69985000  0.71815000  1
  H  779  1  0.31906300  0.71624700  0.63756900  1
  H  780  1  0.35602100  0.68507300  0.61113400  1
  H  781  1  0.34064500  0.63000200  0.62826500  1
  H  782  1  0.31596500  0.59472500  0.59565800  1
  H  783  1  0.40630300  0.57744300  0.55552100  1
  H  784  1  0.43072300  0.61316900  0.58760500  1
  H  785  1  0.47111300  0.62989000  0.63450700  1
  H  786  1  0.38093400  0.61280700  0.67488600  1
  H  787  1  0.40527600  0.57685900  0.70678300  1
  H  788  1  0.49571300  0.59440400  0.66694100  1
  H  791  1  0.29366700  0.72397800  0.68976200  1
  H  792  1  0.51816700  0.72618200  0.57512000  1
  H  794  1  0.36006400  0.54529600  0.54485600  1
  H  796  1  0.45155300  0.54464000  0.71732100  1
  H  822  1  0.69519200  0.98442800  0.43317300  1
  H  823  1  0.65867700  0.95988200  0.40068500  1
  H  824  1  0.73982300  0.90139000  0.45221700  1
  H  825  1  0.70351000  0.87691100  0.41906600  1
  H  826  1  0.65299700  0.83804600  0.39950800  1
  H  827  1  0.61643600  0.81324000  0.43188600  1
  H  828  1  0.57248100  0.89626900  0.45226900  1
  H  829  1  0.60881000  0.92099700  0.41935600  1
  H  830  1  0.59035200  0.90481600  0.36419300  1
  H  831  1  0.56593000  0.93942100  0.33079700  1
  H  832  1  0.65753200  0.97582100  0.31093100  1
  H  833  1  0.68169600  0.94176700  0.34485300  1
  H  834  1  0.72170800  0.89448300  0.36416800  1
  H  835  1  0.63078200  0.85708800  0.34387800  1
  H  836  1  0.65518200  0.82566900  0.30737000  1
  H  837  1  0.74623100  0.86253400  0.32827400  1
  H  840  1  0.54649700  0.84887400  0.46705000  1
  H  841  1  0.76459800  0.94817200  0.46952400  1
  H  843  1  0.61064800  0.99770000  0.28852800  1
  H  845  1  0.70311000  0.81797400  0.27412000  1
  H  871  1  0.19505000  0.81354500  0.83012200  1
  H  872  1  0.15851100  0.83811600  0.86257000  1
  H  873  1  0.23961800  0.89658600  0.81095700  1
  H  874  1  0.20327500  0.92109200  0.84407200  1
  H  875  1  0.15268700  0.95996300  0.86369100  1
  H  876  1  0.11618800  0.98468700  0.83121900  1
  H  877  1  0.07235370  0.90159200  0.81086500  1
  H  878  1  0.10863800  0.87695400  0.84387200  1
  H  879  1  0.09020870  0.89323800  0.89908700  1
  H  880  1  0.06581470  0.85864700  0.93250500  1
  H  881  1  0.15742400  0.82221600  0.95229700  1
  H  882  1  0.18156600  0.85626300  0.91834600  1
  H  883  1  0.22153200  0.90345500  0.89900400  1
  H  884  1  0.13068100  0.94098700  0.91932800  1
  H  885  1  0.15515700  0.97235600  0.95583800  1
  H  886  1  0.24612400  0.93534500  0.93490000  1
  H  889  1  0.04717370  0.94847100  0.79430600  1
  H  890  1  0.26447500  0.84975000  0.79380100  1
  H  892  1  0.11053300  0.80037500  0.97476500  1
  H  894  1  0.20310800  0.97990800  0.98910200  1
  H  920  1  0.11610900  0.48499100  0.33085100  1
  H  921  1  0.15268400  0.46030100  0.36327600  1
  H  922  1  0.07240970  0.40184400  0.31045900  1
  H  923  1  0.10872900  0.37722400  0.34348400  1
  H  924  1  0.15884700  0.33814800  0.36325200  1
  H  925  1  0.19535400  0.31344100  0.33076800  1
  H  926  1  0.23909400  0.39656400  0.31035400  1
  H  927  1  0.20284200  0.42119800  0.34343300  1
  H  928  1  0.22154700  0.40390500  0.39852600  1
  H  929  1  0.24620800  0.43587900  0.43430800  1
  H  930  1  0.15527800  0.47293200  0.45532200  1
  H  931  1  0.13075100  0.44153800  0.41889300  1
  H  932  1  0.09010170  0.39453800  0.39859600  1
  H  933  1  0.18093400  0.35690900  0.41885700  1
  H  934  1  0.15645100  0.32549900  0.45530400  1
  H  935  1  0.06549170  0.36254800  0.43439300  1
  H  938  1  0.26510600  0.34922900  0.29542600  1
  H  939  1  0.04637870  0.44914100  0.29550200  1
  H  941  1  0.20324100  0.48049900  0.48853200  1
  H  943  1  0.10851000  0.31799000  0.48858800  1
  H  969  1  0.61651300  0.31350600  0.93274600  1
  H  970  1  0.65301600  0.33809000  0.90027800  1
  H  971  1  0.57192600  0.39652600  0.95194000  1
  H  972  1  0.60823300  0.42104800  0.91880400  1
  H  973  1  0.65885300  0.45994800  0.89916800  1
  H  974  1  0.69534900  0.48466900  0.93163800  1
  H  975  1  0.73915600  0.40157300  0.95202300  1
  H  976  1  0.70287500  0.37693200  0.91901600  1
  H  977  1  0.72133100  0.39318800  0.86384600  1
  H  978  1  0.74574100  0.35859000  0.83044300  1
  H  979  1  0.65413200  0.32221900  0.81054600  1
  H  980  1  0.62997000  0.35627300  0.84447900  1
  H  981  1  0.58997300  0.40351600  0.86389300  1
  H  982  1  0.68086000  0.44095600  0.84354400  1
  H  983  1  0.65640900  0.47237100  0.80706100  1
  H  984  1  0.56540400  0.43544900  0.82802400  1
  H  987  1  0.76436100  0.44846500  0.96854800  1
  H  988  1  0.54713400  0.34970100  0.96917300  1
  H  990  1  0.70103000  0.30036900  0.78810300  1
  H  992  1  0.60848200  0.48010400  0.77387000  1
  H  999  1  0.33518800  0.00861300  0.01493500  1
  H  1003  1  0.19184600  0.05854100  0.96800400  1
  H  1012  1  0.83498100  0.78920600  0.24795600  1
  H  1016  1  0.69078200  0.74077700  0.29571600  1
  H  1025  1  0.97667400  0.28919600  0.51470900  1
  H  1029  1  0.12089500  0.24068300  0.46716700  1
  H  1038  1  0.47643600  0.50867400  0.74777300  1
  H  1042  1  0.61953700  0.55867800  0.79526600  1
  H  1051  1  0.72771100  0.26065500  0.76375900  1
  H  1055  1  0.83832100  0.30326900  0.69668800  1
  H  1064  1  0.58515800  0.76324900  0.50594600  1
  H  1068  1  0.46323100  0.80481400  0.55627900  1
  H  1077  1  0.08468370  0.53519000  0.25723100  1
  H  1081  1  0.96307400  0.49309500  0.20621600  1
  H  1090  1  0.83688400  0.00342200  0.51611300  1
  H  1094  1  0.69557600  0.00806900  0.51871500  1
  H  1103  1  0.33670700  0.79432900  0.74726600  1
  H  1107  1  0.19552300  0.79026400  0.74394000  1
  H  1116  1  0.47496600  0.29433000  0.01584200  1
  H  1120  1  0.61629400  0.28998200  0.01839600  1
  H  1129  1  0.22653800  0.26349700  0.25673200  1
  H  1133  1  0.34869700  0.30481300  0.20623700  1
  H  1142  1  0.08381670  0.76063600  0.99905200  1
  H  1146  1  0.97361200  0.80358800  0.06623400  1
  H  1155  1  0.83636000  0.50351800  0.01564000  1
  H  1159  1  0.69503700  0.50754800  0.01850200  1
  H  1168  1  0.97517700  0.00346700  0.74716200  1
  H  1172  1  0.11632800  0.00770300  0.74412200  1
  H  1181  1  0.58407400  0.03736200  0.26405700  1
  H  1185  1  0.47357100  0.99443800  0.19705900  1
  H  1194  1  0.33515100  0.50919100  0.51461900  1
  H  1198  1  0.19089500  0.55772100  0.46711800  1
  C  1  1  0.09271700  0.08233200  0.07192300  1
  C  2  1  0.12621400  0.08838100  0.07060700  1
  C  3  1  0.14060000  0.10981100  0.08961000  1
  C  4  1  0.12247000  0.12704300  0.11058700  1
  C  5  1  0.08909100  0.11970400  0.11257800  1
  C  6  1  0.07444800  0.09828200  0.09352800  1
  C  7  1  0.13989300  0.14943200  0.13137200  1
  C  8  1  0.15730600  0.12753200  0.15269400  1
  C  9  1  0.13923500  0.11096700  0.17424200  1
  C  10  1  0.15387400  0.09110900  0.19472800  1
  C  11  1  0.18754100  0.08575100  0.19422400  1
  C  12  1  0.20560200  0.10036300  0.17152200  1
  C  13  1  0.19074200  0.12035000  0.15111500  1
  C  14  1  0.16203100  0.17107200  0.11403800  1
  C  15  1  0.11778300  0.17143700  0.14828200  1
  C  16  1  0.12211000  0.17920000  0.17906800  1
  C  17  1  0.10057700  0.19829000  0.19449600  1
  C  18  1  0.07405700  0.21153100  0.17954400  1
  C  19  1  0.07108800  0.20623600  0.14833800  1
  C  20  1  0.09296400  0.18738800  0.13304300  1
  C  21  1  0.15772800  0.17818600  0.08309600  1
  C  22  1  0.17923800  0.19701300  0.06731200  1
  C  23  1  0.20574900  0.21051200  0.08202800  1
  C  24  1  0.20876700  0.20582200  0.11331400  1
  C  25  1  0.18683900  0.18733600  0.12897400  1
  C  42  1  0.05047400  0.22793300  0.19474800  1
  C  43  1  0.07959800  0.06015700  0.05333300  1
  C  46  1  0.20124200  0.06670500  0.21575600  1
  C  48  1  0.22949400  0.22625700  0.06643000  1
  C  50  1  0.59243800  0.71528500  0.19122900  1
  C  51  1  0.62591600  0.70915400  0.19261400  1
  C  52  1  0.64031700  0.68778900  0.17354600  1
  C  53  1  0.62222900  0.67068000  0.15243900  1
  C  54  1  0.58886500  0.67808700  0.15040800  1
  C  55  1  0.57420000  0.69944500  0.16952000  1
  C  56  1  0.63971600  0.64852200  0.13145400  1
  C  57  1  0.65705600  0.67064200  0.11031900  1
  C  58  1  0.63894100  0.68734000  0.08890400  1
  C  59  1  0.65355200  0.70727300  0.06847900  1
  C  60  1  0.68722800  0.71257100  0.06893200  1
  C  61  1  0.70532600  0.69786800  0.09155000  1
  C  62  1  0.69049200  0.67781300  0.11189800  1
  C  63  1  0.66195000  0.62677100  0.14853800  1
  C  64  1  0.61769400  0.62664500  0.11429400  1
  C  65  1  0.62223800  0.61908700  0.08348000  1
  C  66  1  0.60078800  0.60014900  0.06778000  1
  C  67  1  0.57415200  0.58686800  0.08249300  1
  C  68  1  0.57095200  0.59191900  0.11371500  1
  C  69  1  0.59278600  0.61058300  0.12928700  1
  C  70  1  0.65782600  0.61940200  0.17943800  1
  C  71  1  0.67942600  0.60043900  0.19495900  1
  C  72  1  0.70585700  0.58702300  0.18001900  1
  C  73  1  0.70866500  0.59197500  0.14875200  1
  C  74  1  0.68668200  0.61062600  0.13336200  1
  C  91  1  0.55046600  0.57101100  0.06692000  1
  C  92  1  0.57933600  0.73746300  0.20983300  1
  C  95  1  0.70091900  0.73163900  0.04742800  1
  C  97  1  0.72951200  0.57076600  0.19526200  1
  C  99  1  0.68806800  0.21550500  0.57174300  1
  C  100  1  0.65460000  0.20935500  0.57031200  1
  C  101  1  0.64019200  0.18797600  0.58935600  1
  C  102  1  0.65826800  0.17088400  0.61048700  1
  C  103  1  0.69161300  0.17833300  0.61258500  1
  C  104  1  0.70628900  0.19969300  0.59348300  1
  C  105  1  0.64077800  0.14863500  0.63136800  1
  C  106  1  0.62336800  0.17067400  0.65253700  1
  C  107  1  0.64142300  0.18726700  0.67407700  1
  C  108  1  0.62676300  0.20714600  0.69452500  1
  C  109  1  0.59309800  0.21249900  0.69397400  1
  C  110  1  0.57506700  0.19789800  0.67124400  1
  C  111  1  0.58995100  0.17789400  0.65087200  1
  C  112  1  0.61867400  0.12691400  0.61411100  1
  C  113  1  0.66275200  0.12671400  0.64852200  1
  C  114  1  0.65801000  0.11896900  0.67926200  1
  C  115  1  0.67940600  0.09999800  0.69498500  1
  C  116  1  0.70619300  0.08688300  0.68035900  1
  C  117  1  0.70957300  0.09208800  0.64918000  1
  C  118  1  0.68779300  0.11078400  0.63358300  1
  C  119  1  0.62314900  0.11952800  0.58325300  1
  C  120  1  0.60166500  0.10064200  0.56750800  1
  C  121  1  0.57501100  0.08735400  0.58219500  1
  C  122  1  0.57184800  0.09227200  0.61343400  1
  C  123  1  0.59374500  0.11081900  0.62905400  1
  C  140  1  0.72985400  0.07104300  0.69598100  1
  C  141  1  0.70117300  0.23769300  0.55316200  1
  C  144  1  0.57936500  0.23152300  0.71549800  1
  C  146  1  0.55126300  0.07160000  0.56661600  1
  C  148  1  0.18769000  0.58250100  0.69091200  1
  C  149  1  0.15415200  0.58836900  0.69211400  1
  C  150  1  0.13972700  0.60981000  0.67315400  1
  C  151  1  0.15783000  0.62722300  0.65229700  1
  C  152  1  0.19127600  0.62008700  0.65045000  1
  C  153  1  0.20596800  0.59867700  0.66948500  1
  C  154  1  0.14028400  0.64948600  0.63142900  1
  C  155  1  0.12264800  0.62747200  0.61035400  1
  C  156  1  0.14069100  0.61019400  0.58934200  1
  C  157  1  0.12622000  0.58886600  0.57028100  1
  C  158  1  0.09268600  0.58297700  0.57151400  1
  C  159  1  0.07446300  0.59902800  0.59307900  1
  C  160  1  0.08920200  0.62033200  0.61220800  1
  C  161  1  0.11824200  0.67120800  0.64876900  1
  C  162  1  0.16243200  0.67132500  0.61434600  1
  C  163  1  0.15852400  0.67849600  0.58337500  1
  C  164  1  0.18008900  0.69753800  0.56791500  1
  C  165  1  0.20625200  0.71125700  0.58298200  1
  C  166  1  0.20885100  0.70646200  0.61429300  1
  C  167  1  0.18691300  0.68770400  0.62961800  1
  C  168  1  0.12233900  0.67812600  0.67978200  1
  C  169  1  0.10085500  0.69701200  0.69551600  1
  C  170  1  0.07461800  0.71083000  0.68067800  1
  C  171  1  0.07181900  0.70632700  0.64934200  1
  C  172  1  0.09368400  0.68771700  0.63374500  1
  C  189  1  0.22988000  0.72762400  0.56780900  1
  C  190  1  0.20083300  0.56025800  0.70941400  1
  C  193  1  0.07952100  0.56080400  0.55293300  1
  C  195  1  0.05089700  0.72668100  0.69619900  1
  C  197  1  0.43780300  0.84015800  0.31468800  1
  C  198  1  0.40411500  0.83956500  0.31974300  1
  C  199  1  0.38969700  0.85820000  0.34149800  1
  C  200  1  0.40793800  0.87814000  0.35985200  1
  C  201  1  0.44163500  0.87921600  0.35362400  1
  C  202  1  0.45631900  0.86048300  0.33197400  1
  C  203  1  0.39045100  0.89913200  0.38202600  1
  C  204  1  0.37311300  0.92059300  0.36018500  1
  C  205  1  0.39152500  0.94098000  0.34252100  1
  C  206  1  0.37716000  0.96127700  0.32230900  1
  C  207  1  0.34334700  0.96184600  0.31774100  1
  C  208  1  0.32478300  0.94050400  0.33379000  1
  C  209  1  0.33937700  0.92022900  0.35409400  1
  C  210  1  0.36790000  0.88221100  0.40365100  1
  C  211  1  0.41289000  0.91577400  0.40400800  1
  C  212  1  0.41054800  0.94703700  0.41047200  1
  C  213  1  0.43189400  0.96171300  0.43032500  1
  C  214  1  0.45632400  0.94566700  0.44566500  1
  C  215  1  0.45741300  0.91419400  0.44120800  1
  C  216  1  0.43585000  0.89968000  0.42146800  1
  C  217  1  0.37006100  0.85084200  0.40962000  1
  C  218  1  0.34873400  0.83601800  0.42940300  1
  C  219  1  0.32453600  0.85201900  0.44509500  1
  C  220  1  0.32355600  0.88353700  0.44104400  1
  C  221  1  0.34509000  0.89818100  0.42139600  1
  C  238  1  0.47918600  0.95965800  0.46411100  1
  C  239  1  0.45108600  0.82239100  0.29203100  1
  C  242  1  0.33009300  0.98290300  0.29784600  1
  C  244  1  0.30144000  0.83793900  0.46316300  1
  C  246  1  0.93774800  0.95780400  0.94848900  1
  C  247  1  0.90405800  0.95844700  0.94344900  1
  C  248  1  0.88959700  0.93985000  0.92168500  1
  C  249  1  0.90779200  0.91987600  0.90333300  1
  C  250  1  0.94149800  0.91877100  0.90952100  1
  C  251  1  0.95622100  0.93745900  0.93118400  1
  C  252  1  0.89027100  0.89888700  0.88117800  1
  C  253  1  0.87296900  0.87744100  0.90304800  1
  C  254  1  0.89139800  0.85705600  0.92070300  1
  C  255  1  0.87705000  0.83676400  0.94092800  1
  C  256  1  0.84323900  0.83620600  0.94551900  1
  C  257  1  0.82466300  0.85755500  0.92949000  1
  C  258  1  0.83924300  0.87782300  0.90917500  1
  C  259  1  0.86766400  0.91577600  0.85957100  1
  C  260  1  0.91269300  0.88223400  0.85918600  1
  C  261  1  0.91037300  0.85095900  0.85276500  1
  C  262  1  0.93172900  0.83626700  0.83293300  1
  C  263  1  0.95615300  0.85230700  0.81757800  1
  C  264  1  0.95721800  0.88378900  0.82198700  1
  C  265  1  0.93564500  0.89831600  0.84171100  1
  C  266  1  0.86975300  0.94714500  0.85360300  1
  C  267  1  0.84843300  0.96192200  0.83377500  1
  C  268  1  0.82426000  0.94589600  0.81805500  1
  C  269  1  0.82334000  0.91437600  0.82214600  1
  C  270  1  0.84486700  0.89977400  0.84183900  1
  C  287  1  0.97902100  0.83830000  0.79914800  1
  C  288  1  0.95107000  0.97550200  0.97118100  1
  C  291  1  0.82998700  0.81516300  0.96541800  1
  C  293  1  0.80143400  0.95989300  0.79958600  1
  C  295  1  0.84263300  0.34009200  0.44798000  1
  C  296  1  0.87631800  0.33943600  0.44294000  1
  C  297  1  0.89078500  0.35807100  0.42121800  1
  C  298  1  0.87261700  0.37813400  0.40293600  1
  C  299  1  0.83889800  0.37919900  0.40908400  1
  C  300  1  0.82415800  0.36043400  0.43067300  1
  C  301  1  0.89019100  0.39922500  0.38089800  1
  C  302  1  0.90781100  0.42032400  0.40290000  1
  C  303  1  0.88966700  0.44037000  0.42122700  1
  C  304  1  0.90416200  0.45899600  0.44294200  1
  C  305  1  0.93785200  0.45833500  0.44795500  1
  C  306  1  0.95629600  0.43797500  0.43064100  1
  C  307  1  0.94152700  0.41923000  0.40904500  1
  C  308  1  0.91260200  0.38235600  0.35909500  1
  C  309  1  0.86774400  0.41607500  0.35911100  1
  C  310  1  0.86981300  0.44744900  0.35314300  1
  C  311  1  0.84848200  0.46220600  0.33333333  1
  C  312  1  0.82434400  0.44614000  0.31761500  1
  C  313  1  0.82344800  0.41462000  0.32168200  1
  C  314  1  0.84499200  0.40003600  0.34136600  1
  C  315  1  0.91048200  0.35098900  0.35310300  1
  C  316  1  0.93177700  0.33622100  0.33325500  1
  C  317  1  0.95590200  0.35227800  0.31752300  1
  C  318  1  0.95682700  0.38379800  0.32159400  1
  C  319  1  0.93533100  0.39838900  0.34132100  1
  C  336  1  0.80123800  0.46016800  0.29952000  1
  C  337  1  0.82932100  0.32236700  0.47065400  1
  C  340  1  0.95119400  0.47608000  0.47060500  1
  C  342  1  0.97898000  0.33824000  0.29940500  1
  C  344  1  0.34256700  0.45785400  0.81440400  1
  C  345  1  0.37625900  0.45846100  0.81943600  1
  C  346  1  0.39070900  0.43983500  0.84118500  1
  C  347  1  0.37250200  0.41987000  0.85953700  1
  C  348  1  0.33879300  0.41879400  0.85334700  1
  C  349  1  0.32407800  0.43753200  0.83172000  1
  C  350  1  0.39001400  0.39887000  0.88169200  1
  C  351  1  0.40732500  0.37743300  0.85981300  1
  C  352  1  0.38890800  0.35704400  0.84215600  1
  C  353  1  0.40326800  0.33675300  0.82193300  1
  C  354  1  0.43708100  0.33618500  0.81737200  1
  C  355  1  0.45565300  0.35751300  0.83343200  1
  C  356  1  0.44106500  0.37777700  0.85374500  1
  C  357  1  0.41260600  0.41575000  0.90332400  1
  C  358  1  0.36758600  0.38220100  0.90367000  1
  C  359  1  0.36991600  0.35092600  0.91008700  1
  C  360  1  0.34858000  0.33622500  0.92993100  1
  C  361  1  0.32416700  0.35225400  0.94531200  1
  C  362  1  0.32308500  0.38373500  0.94090200  1
  C  363  1  0.34463200  0.39827000  0.92115700  1
  C  364  1  0.41054100  0.44712600  0.90926500  1
  C  365  1  0.43186300  0.46190300  0.92909000  1
  C  366  1  0.45602000  0.44587700  0.94483100  1
  C  367  1  0.45693700  0.41435700  0.94074200  1
  C  368  1  0.43539300  0.39974800  0.92106700  1
  C  385  1  0.30132600  0.33824000  0.96376900  1
  C  386  1  0.32925200  0.47562200  0.79175200  1
  C  389  1  0.45034000  0.31514400  0.79747000  1
  C  391  1  0.47885300  0.45987900  0.96329100  1
  C  393  1  0.99501300  0.00499100  0.98902500  1
  C  395  1  0.04608100  0.01502700  0.01242100  1
  C  396  1  0.03344300  0.04056600  0.02720700  1
  C  398  1  0.98201500  0.03078900  0.00351700  1
  C  400  1  0.95090900  0.04090800  0.99879600  1
  C  406  1  0.49493700  0.79281000  0.27418900  1
  C  408  1  0.54590000  0.78276500  0.25059600  1
  C  409  1  0.53322700  0.75716300  0.23594300  1
  C  411  1  0.48192000  0.76692300  0.25986900  1
  C  413  1  0.45088100  0.75673300  0.26468300  1
  C  419  1  0.78548900  0.29278200  0.48850000  1
  C  421  1  0.73453400  0.28278100  0.51211800  1
  C  422  1  0.74723100  0.25724900  0.52687500  1
  C  424  1  0.79853800  0.26697100  0.50293100  1
  C  426  1  0.82957700  0.25677000  0.49814300  1
  C  432  1  0.28530000  0.50508800  0.77387900  1
  C  434  1  0.23428800  0.51511800  0.75036600  1
  C  435  1  0.24692300  0.54071700  0.73568300  1
  C  437  1  0.29828400  0.53096600  0.75951700  1
  C  439  1  0.32935900  0.54111700  0.76435000  1
  C  445  1  0.53472400  0.25995200  0.73327000  1
  C  447  1  0.48477400  0.26835900  0.75921800  1
  C  448  1  0.49661100  0.29535600  0.77182700  1
  C  450  1  0.54689200  0.28714000  0.74565500  1
  C  452  1  0.57709500  0.29862800  0.73871000  1
  C  458  1  0.24334700  0.76169900  0.52851500  1
  C  460  1  0.29605700  0.77010900  0.50755500  1
  C  461  1  0.28504400  0.79584100  0.49225200  1
  C  463  1  0.23186700  0.78722200  0.51270200  1
  C  465  1  0.20014100  0.79714600  0.51453100  1
  C  471  1  0.74296600  0.53646700  0.23436300  1
  C  473  1  0.79563100  0.52821400  0.25548300  1
  C  474  1  0.78470700  0.50233800  0.27059500  1
  C  476  1  0.73156600  0.51079500  0.24998700  1
  C  478  1  0.69991400  0.50074500  0.24791300  1
  C  484  1  0.49557700  0.00291500  0.49205200  1
  C  486  1  0.54806600  0.01085500  0.51369300  1
  C  487  1  0.53731800  0.03712700  0.52818900  1
  C  489  1  0.48477100  0.02980600  0.50592800  1
  C  491  1  0.45356400  0.04070800  0.50268200  1
  C  497  1  0.99532500  0.79507500  0.77111500  1
  C  499  1  0.04783700  0.78700000  0.74957300  1
  C  500  1  0.03699800  0.76084300  0.73492600  1
  C  502  1  0.98443200  0.76828900  0.75709500  1
  C  504  1  0.95314200  0.75750400  0.76021600  1
  C  510  1  0.28503400  0.29498100  0.99176800  1
  C  512  1  0.23256800  0.28694700  0.01343200  1
  C  513  1  0.24337600  0.26070400  0.02794000  1
  C  515  1  0.29590000  0.26811900  0.00566500  1
  C  517  1  0.32713200  0.25727800  0.00241600  1
  C  523  1  0.03708200  0.26200700  0.23406700  1
  C  525  1  0.98439800  0.27037400  0.25509400  1
  C  526  1  0.99540900  0.29611800  0.27037200  1
  C  528  1  0.04856700  0.28754200  0.24985900  1
  C  530  1  0.08026900  0.29746800  0.24801700  1
  C  536  1  0.74560600  0.75999800  0.02961900  1
  C  538  1  0.79553400  0.76836300  0.00362500  1
  C  539  1  0.78371700  0.79538700  0.99105600  1
  C  541  1  0.73345200  0.78720200  0.01726000  1
  C  543  1  0.70327100  0.79874100  0.02425900  1
  C  549  1  0.49501700  0.50290700  0.99165600  1
  C  551  1  0.54749600  0.51086200  0.01333100  1
  C  552  1  0.53662700  0.53694100  0.02809500  1
  C  554  1  0.48410300  0.52961600  0.00580600  1
  C  556  1  0.45284200  0.54041200  0.00269000  1
  C  562  1  0.78524800  0.00292800  0.77125200  1
  C  564  1  0.73278800  0.01084400  0.74952100  1
  C  565  1  0.74364500  0.03694600  0.73479200  1
  C  567  1  0.79614500  0.02966100  0.75713800  1
  C  569  1  0.82741300  0.04048400  0.76028300  1
  C  575  1  0.24582900  0.03818800  0.23355700  1
  C  577  1  0.29575800  0.02969700  0.25952300  1
  C  578  1  0.28386800  0.00272100  0.27214300  1
  C  580  1  0.23359400  0.01103900  0.24597200  1
  C  582  1  0.20337000  0.99962100  0.23896200  1
  C  588  1  0.99508100  0.50562700  0.48844200  1
  C  590  1  0.04606300  0.51563000  0.51202200  1
  C  591  1  0.03341100  0.54121200  0.52672500  1
  C  593  1  0.98207500  0.53147900  0.50283500  1
  C  595  1  0.95102900  0.54167500  0.49807800  1
  C  601  1  0.35833500  0.08233200  0.07192300  1
  C  602  1  0.39183200  0.08838100  0.07060700  1
  C  603  1  0.40621800  0.10981100  0.08961000  1
  C  604  1  0.38808800  0.12704300  0.11058700  1
  C  605  1  0.35470900  0.11970400  0.11257800  1
  C  606  1  0.34006600  0.09828200  0.09352800  1
  C  607  1  0.40551100  0.14943200  0.13137200  1
  C  608  1  0.42292400  0.12753200  0.15269400  1
  C  609  1  0.40485300  0.11096700  0.17424200  1
  C  610  1  0.41949200  0.09110900  0.19472800  1
  C  611  1  0.45315900  0.08575100  0.19422400  1
  C  612  1  0.47122000  0.10036300  0.17152200  1
  C  613  1  0.45636000  0.12035000  0.15111500  1
  C  614  1  0.42764900  0.17107200  0.11403800  1
  C  615  1  0.38340100  0.17143700  0.14828200  1
  C  616  1  0.38772800  0.17920000  0.17906800  1
  C  617  1  0.36619500  0.19829000  0.19449600  1
  C  618  1  0.33967500  0.21153100  0.17954400  1
  C  619  1  0.33670600  0.20623600  0.14833800  1
  C  620  1  0.35858200  0.18738800  0.13304300  1
  C  621  1  0.42334600  0.17818600  0.08309600  1
  C  622  1  0.44485600  0.19701300  0.06731200  1
  C  623  1  0.47136700  0.21051200  0.08202800  1
  C  624  1  0.47438500  0.20582200  0.11331400  1
  C  625  1  0.45245700  0.18733600  0.12897400  1
  C  642  1  0.31609200  0.22793300  0.19474800  1
  C  643  1  0.34521600  0.06015700  0.05333300  1
  C  646  1  0.46686000  0.06670500  0.21575600  1
  C  648  1  0.49511200  0.22625700  0.06643000  1
  C  650  1  0.85805600  0.71528500  0.19122900  1
  C  651  1  0.89153400  0.70915400  0.19261400  1
  C  652  1  0.90593500  0.68778900  0.17354600  1
  C  653  1  0.88784700  0.67068000  0.15243900  1
  C  654  1  0.85448300  0.67808700  0.15040800  1
  C  655  1  0.83981800  0.69944500  0.16952000  1
  C  656  1  0.90533400  0.64852200  0.13145400  1
  C  657  1  0.92267400  0.67064200  0.11031900  1
  C  658  1  0.90455900  0.68734000  0.08890400  1
  C  659  1  0.91917000  0.70727300  0.06847900  1
  C  660  1  0.95284600  0.71257100  0.06893200  1
  C  661  1  0.97094400  0.69786800  0.09155000  1
  C  662  1  0.95611000  0.67781300  0.11189800  1
  C  663  1  0.92756800  0.62677100  0.14853800  1
  C  664  1  0.88331200  0.62664500  0.11429400  1
  C  665  1  0.88785600  0.61908700  0.08348000  1
  C  666  1  0.86640600  0.60014900  0.06778000  1
  C  667  1  0.83977000  0.58686800  0.08249300  1
  C  668  1  0.83657000  0.59191900  0.11371500  1
  C  669  1  0.85840400  0.61058300  0.12928700  1
  C  670  1  0.92344400  0.61940200  0.17943800  1
  C  671  1  0.94504400  0.60043900  0.19495900  1
  C  672  1  0.97147500  0.58702300  0.18001900  1
  C  673  1  0.97428300  0.59197500  0.14875200  1
  C  674  1  0.95230000  0.61062600  0.13336200  1
  C  691  1  0.81608400  0.57101100  0.06692000  1
  C  692  1  0.84495400  0.73746300  0.20983300  1
  C  695  1  0.96653700  0.73163900  0.04742800  1
  C  697  1  0.99513000  0.57076600  0.19526200  1
  C  699  1  0.95368600  0.21550500  0.57174300  1
  C  700  1  0.92021800  0.20935500  0.57031200  1
  C  701  1  0.90581000  0.18797600  0.58935600  1
  C  702  1  0.92388600  0.17088400  0.61048700  1
  C  703  1  0.95723100  0.17833300  0.61258500  1
  C  704  1  0.97190700  0.19969300  0.59348300  1
  C  705  1  0.90639600  0.14863500  0.63136800  1
  C  706  1  0.88898600  0.17067400  0.65253700  1
  C  707  1  0.90704100  0.18726700  0.67407700  1
  C  708  1  0.89238100  0.20714600  0.69452500  1
  C  709  1  0.85871600  0.21249900  0.69397400  1
  C  710  1  0.84068500  0.19789800  0.67124400  1
  C  711  1  0.85556900  0.17789400  0.65087200  1
  C  712  1  0.88429200  0.12691400  0.61411100  1
  C  713  1  0.92837000  0.12671400  0.64852200  1
  C  714  1  0.92362800  0.11896900  0.67926200  1
  C  715  1  0.94502400  0.09999800  0.69498500  1
  C  716  1  0.97181100  0.08688300  0.68035900  1
  C  717  1  0.97519100  0.09208800  0.64918000  1
  C  718  1  0.95341100  0.11078400  0.63358300  1
  C  719  1  0.88876700  0.11952800  0.58325300  1
  C  720  1  0.86728300  0.10064200  0.56750800  1
  C  721  1  0.84062900  0.08735400  0.58219500  1
  C  722  1  0.83746600  0.09227200  0.61343400  1
  C  723  1  0.85936300  0.11081900  0.62905400  1
  C  740  1  0.99547200  0.07104300  0.69598100  1
  C  741  1  0.96679100  0.23769300  0.55316200  1
  C  744  1  0.84498300  0.23152300  0.71549800  1
  C  746  1  0.81688100  0.07160000  0.56661600  1
  C  748  1  0.45330800  0.58250100  0.69091200  1
  C  749  1  0.41977000  0.58836900  0.69211400  1
  C  750  1  0.40534500  0.60981000  0.67315400  1
  C  751  1  0.42344800  0.62722300  0.65229700  1
  C  752  1  0.45689400  0.62008700  0.65045000  1
  C  753  1  0.47158600  0.59867700  0.66948500  1
  C  754  1  0.40590200  0.64948600  0.63142900  1
  C  755  1  0.38826600  0.62747200  0.61035400  1
  C  756  1  0.40630900  0.61019400  0.58934200  1
  C  757  1  0.39183800  0.58886600  0.57028100  1
  C  758  1  0.35830400  0.58297700  0.57151400  1
  C  759  1  0.34008100  0.59902800  0.59307900  1
  C  760  1  0.35482000  0.62033200  0.61220800  1
  C  761  1  0.38386000  0.67120800  0.64876900  1
  C  762  1  0.42805000  0.67132500  0.61434600  1
  C  763  1  0.42414200  0.67849600  0.58337500  1
  C  764  1  0.44570700  0.69753800  0.56791500  1
  C  765  1  0.47187000  0.71125700  0.58298200  1
  C  766  1  0.47446900  0.70646200  0.61429300  1
  C  767  1  0.45253100  0.68770400  0.62961800  1
  C  768  1  0.38795700  0.67812600  0.67978200  1
  C  769  1  0.36647300  0.69701200  0.69551600  1
  C  770  1  0.34023600  0.71083000  0.68067800  1
  C  771  1  0.33743700  0.70632700  0.64934200  1
  C  772  1  0.35930200  0.68771700  0.63374500  1
  C  789  1  0.49549800  0.72762400  0.56780900  1
  C  790  1  0.46645100  0.56025800  0.70941400  1
  C  793  1  0.34513900  0.56080400  0.55293300  1
  C  795  1  0.31651500  0.72668100  0.69619900  1
  C  797  1  0.70342100  0.84015800  0.31468800  1
  C  798  1  0.66973300  0.83956500  0.31974300  1
  C  799  1  0.65531500  0.85820000  0.34149800  1
  C  800  1  0.67355600  0.87814000  0.35985200  1
  C  801  1  0.70725300  0.87921600  0.35362400  1
  C  802  1  0.72193700  0.86048300  0.33197400  1
  C  803  1  0.65606900  0.89913200  0.38202600  1
  C  804  1  0.63873100  0.92059300  0.36018500  1
  C  805  1  0.65714300  0.94098000  0.34252100  1
  C  806  1  0.64277800  0.96127700  0.32230900  1
  C  807  1  0.60896500  0.96184600  0.31774100  1
  C  808  1  0.59040100  0.94050400  0.33379000  1
  C  809  1  0.60499500  0.92022900  0.35409400  1
  C  810  1  0.63351800  0.88221100  0.40365100  1
  C  811  1  0.67850800  0.91577400  0.40400800  1
  C  812  1  0.67616600  0.94703700  0.41047200  1
  C  813  1  0.69751200  0.96171300  0.43032500  1
  C  814  1  0.72194200  0.94566700  0.44566500  1
  C  815  1  0.72303100  0.91419400  0.44120800  1
  C  816  1  0.70146800  0.89968000  0.42146800  1
  C  817  1  0.63567900  0.85084200  0.40962000  1
  C  818  1  0.61435200  0.83601800  0.42940300  1
  C  819  1  0.59015400  0.85201900  0.44509500  1
  C  820  1  0.58917400  0.88353700  0.44104400  1
  C  821  1  0.61070800  0.89818100  0.42139600  1
  C  838  1  0.74480400  0.95965800  0.46411100  1
  C  839  1  0.71670400  0.82239100  0.29203100  1
  C  842  1  0.59571100  0.98290300  0.29784600  1
  C  844  1  0.56705800  0.83793900  0.46316300  1
  C  846  1  0.20336600  0.95780400  0.94848900  1
  C  847  1  0.16967600  0.95844700  0.94344900  1
  C  848  1  0.15521500  0.93985000  0.92168500  1
  C  849  1  0.17341000  0.91987600  0.90333300  1
  C  850  1  0.20711600  0.91877100  0.90952100  1
  C  851  1  0.22183900  0.93745900  0.93118400  1
  C  852  1  0.15588900  0.89888700  0.88117800  1
  C  853  1  0.13858700  0.87744100  0.90304800  1
  C  854  1  0.15701600  0.85705600  0.92070300  1
  C  855  1  0.14266800  0.83676400  0.94092800  1
  C  856  1  0.10885700  0.83620600  0.94551900  1
  C  857  1  0.09028070  0.85755500  0.92949000  1
  C  858  1  0.10486100  0.87782300  0.90917500  1
  C  859  1  0.13328200  0.91577600  0.85957100  1
  C  860  1  0.17831100  0.88223400  0.85918600  1
  C  861  1  0.17599100  0.85095900  0.85276500  1
  C  862  1  0.19734700  0.83626700  0.83293300  1
  C  863  1  0.22177100  0.85230700  0.81757800  1
  C  864  1  0.22283600  0.88378900  0.82198700  1
  C  865  1  0.20126300  0.89831600  0.84171100  1
  C  866  1  0.13537100  0.94714500  0.85360300  1
  C  867  1  0.11405100  0.96192200  0.83377500  1
  C  868  1  0.08987770  0.94589600  0.81805500  1
  C  869  1  0.08895770  0.91437600  0.82214600  1
  C  870  1  0.11048500  0.89977400  0.84183900  1
  C  887  1  0.24463900  0.83830000  0.79914800  1
  C  888  1  0.21668800  0.97550200  0.97118100  1
  C  891  1  0.09560470  0.81516300  0.96541800  1
  C  893  1  0.06705170  0.95989300  0.79958600  1
  C  895  1  0.10825100  0.34009200  0.44798000  1
  C  896  1  0.14193600  0.33943600  0.44294000  1
  C  897  1  0.15640300  0.35807100  0.42121800  1
  C  898  1  0.13823500  0.37813400  0.40293600  1
  C  899  1  0.10451600  0.37919900  0.40908400  1
  C  900  1  0.08977570  0.36043400  0.43067300  1
  C  901  1  0.15580900  0.39922500  0.38089800  1
  C  902  1  0.17342900  0.42032400  0.40290000  1
  C  903  1  0.15528500  0.44037000  0.42122700  1
  C  904  1  0.16978000  0.45899600  0.44294200  1
  C  905  1  0.20347000  0.45833500  0.44795500  1
  C  906  1  0.22191400  0.43797500  0.43064100  1
  C  907  1  0.20714500  0.41923000  0.40904500  1
  C  908  1  0.17822000  0.38235600  0.35909500  1
  C  909  1  0.13336200  0.41607500  0.35911100  1
  C  910  1  0.13543100  0.44744900  0.35314300  1
  C  911  1  0.11410000  0.46220600  0.33333333  1
  C  912  1  0.08996170  0.44614000  0.31761500  1
  C  913  1  0.08906570  0.41462000  0.32168200  1
  C  914  1  0.11061000  0.40003600  0.34136600  1
  C  915  1  0.17610000  0.35098900  0.35310300  1
  C  916  1  0.19739500  0.33622100  0.33325500  1
  C  917  1  0.22152000  0.35227800  0.31752300  1
  C  918  1  0.22244500  0.38379800  0.32159400  1
  C  919  1  0.20094900  0.39838900  0.34132100  1
  C  936  1  0.06685570  0.46016800  0.29952000  1
  C  937  1  0.09493870  0.32236700  0.47065400  1
  C  940  1  0.21681200  0.47608000  0.47060500  1
  C  942  1  0.24459800  0.33824000  0.29940500  1
  C  944  1  0.60818500  0.45785400  0.81440400  1
  C  945  1  0.64187700  0.45846100  0.81943600  1
  C  946  1  0.65632700  0.43983500  0.84118500  1
  C  947  1  0.63812000  0.41987000  0.85953700  1
  C  948  1  0.60441100  0.41879400  0.85334700  1
  C  949  1  0.58969600  0.43753200  0.83172000  1
  C  950  1  0.65563200  0.39887000  0.88169200  1
  C  951  1  0.67294300  0.37743300  0.85981300  1
  C  952  1  0.65452600  0.35704400  0.84215600  1
  C  953  1  0.66888600  0.33675300  0.82193300  1
  C  954  1  0.70269900  0.33618500  0.81737200  1
  C  955  1  0.72127100  0.35751300  0.83343200  1
  C  956  1  0.70668300  0.37777700  0.85374500  1
  C  957  1  0.67822400  0.41575000  0.90332400  1
  C  958  1  0.63320400  0.38220100  0.90367000  1
  C  959  1  0.63553400  0.35092600  0.91008700  1
  C  960  1  0.61419800  0.33622500  0.92993100  1
  C  961  1  0.58978500  0.35225400  0.94531200  1
  C  962  1  0.58870300  0.38373500  0.94090200  1
  C  963  1  0.61025000  0.39827000  0.92115700  1
  C  964  1  0.67615900  0.44712600  0.90926500  1
  C  965  1  0.69748100  0.46190300  0.92909000  1
  C  966  1  0.72163800  0.44587700  0.94483100  1
  C  967  1  0.72255500  0.41435700  0.94074200  1
  C  968  1  0.70101100  0.39974800  0.92106700  1
  C  985  1  0.56694400  0.33824000  0.96376900  1
  C  986  1  0.59487000  0.47562200  0.79175200  1
  C  989  1  0.71595800  0.31514400  0.79747000  1
  C  991  1  0.74447100  0.45987900  0.96329100  1
  C  993  1  0.26063100  0.00499100  0.98902500  1
  C  995  1  0.31169900  0.01502700  0.01242100  1
  C  996  1  0.29906100  0.04056600  0.02720700  1
  C  998  1  0.24763300  0.03078900  0.00351700  1
  C  1000  1  0.21652700  0.04090800  0.99879600  1
  C  1006  1  0.76055500  0.79281000  0.27418900  1
  C  1008  1  0.81151800  0.78276500  0.25059600  1
  C  1009  1  0.79884500  0.75716300  0.23594300  1
  C  1011  1  0.74753800  0.76692300  0.25986900  1
  C  1013  1  0.71649900  0.75673300  0.26468300  1
  C  1019  1  0.05110670  0.29278200  0.48850000  1
  C  1021  1  0.00015172  0.28278100  0.51211800  1
  C  1022  1  0.01284870  0.25724900  0.52687500  1
  C  1024  1  0.06415570  0.26697100  0.50293100  1
  C  1026  1  0.09519470  0.25677000  0.49814300  1
  C  1032  1  0.55091800  0.50508800  0.77387900  1
  C  1034  1  0.49990600  0.51511800  0.75036600  1
  C  1035  1  0.51254100  0.54071700  0.73568300  1
  C  1037  1  0.56390200  0.53096600  0.75951700  1
  C  1039  1  0.59497700  0.54111700  0.76435000  1
  C  1045  1  0.80034200  0.25995200  0.73327000  1
  C  1047  1  0.75039200  0.26835900  0.75921800  1
  C  1048  1  0.76222900  0.29535600  0.77182700  1
  C  1050  1  0.81251000  0.28714000  0.74565500  1
  C  1052  1  0.84271300  0.29862800  0.73871000  1
  C  1058  1  0.50896500  0.76169900  0.52851500  1
  C  1060  1  0.56167500  0.77010900  0.50755500  1
  C  1061  1  0.55066200  0.79584100  0.49225200  1
  C  1063  1  0.49748500  0.78722200  0.51270200  1
  C  1065  1  0.46575900  0.79714600  0.51453100  1
  C  1071  1  0.00858372  0.53646700  0.23436300  1
  C  1073  1  0.06124870  0.52821400  0.25548300  1
  C  1074  1  0.05032470  0.50233800  0.27059500  1
  C  1076  1  0.99718400  0.51079500  0.24998700  1
  C  1078  1  0.96553200  0.50074500  0.24791300  1
  C  1084  1  0.76119500  0.00291500  0.49205200  1
  C  1086  1  0.81368400  0.01085500  0.51369300  1
  C  1087  1  0.80293600  0.03712700  0.52818900  1
  C  1089  1  0.75038900  0.02980600  0.50592800  1
  C  1091  1  0.71918200  0.04070800  0.50268200  1
  C  1097  1  0.26094300  0.79507500  0.77111500  1
  C  1099  1  0.31345500  0.78700000  0.74957300  1
  C  1100  1  0.30261600  0.76084300  0.73492600  1
  C  1102  1  0.25005000  0.76828900  0.75709500  1
  C  1104  1  0.21876000  0.75750400  0.76021600  1
  C  1110  1  0.55065200  0.29498100  0.99176800  1
  C  1112  1  0.49818600  0.28694700  0.01343200  1
  C  1113  1  0.50899400  0.26070400  0.02794000  1
  C  1115  1  0.56151800  0.26811900  0.00566500  1
  C  1117  1  0.59275000  0.25727800  0.00241600  1
  C  1123  1  0.30270000  0.26200700  0.23406700  1
  C  1125  1  0.25001600  0.27037400  0.25509400  1
  C  1126  1  0.26102700  0.29611800  0.27037200  1
  C  1128  1  0.31418500  0.28754200  0.24985900  1
  C  1130  1  0.34588700  0.29746800  0.24801700  1
  C  1136  1  0.01122370  0.75999800  0.02961900  1
  C  1138  1  0.06115170  0.76836300  0.00362500  1
  C  1139  1  0.04933470  0.79538700  0.99105600  1
  C  1141  1  0.99907000  0.78720200  0.01726000  1
  C  1143  1  0.96888900  0.79874100  0.02425900  1
  C  1149  1  0.76063500  0.50290700  0.99165600  1
  C  1151  1  0.81311400  0.51086200  0.01333100  1
  C  1152  1  0.80224500  0.53694100  0.02809500  1
  C  1154  1  0.74972100  0.52961600  0.00580600  1
  C  1156  1  0.71846000  0.54041200  0.00269000  1
  C  1162  1  0.05086570  0.00292800  0.77125200  1
  C  1164  1  0.99840600  0.01084400  0.74952100  1
  C  1165  1  0.00926272  0.03694600  0.73479200  1
  C  1167  1  0.06176270  0.02966100  0.75713800  1
  C  1169  1  0.09303070  0.04048400  0.76028300  1
  C  1175  1  0.51144700  0.03818800  0.23355700  1
  C  1177  1  0.56137600  0.02969700  0.25952300  1
  C  1178  1  0.54948600  0.00272100  0.27214300  1
  C  1180  1  0.49921200  0.01103900  0.24597200  1
  C  1182  1  0.46898800  0.99962100  0.23896200  1
  C  1188  1  0.26069900  0.50562700  0.48844200  1
  C  1190  1  0.31168100  0.51563000  0.51202200  1
  C  1191  1  0.29902900  0.54121200  0.52672500  1
  C  1193  1  0.24769300  0.53147900  0.50283500  1
  C  1195  1  0.21664700  0.54167500  0.49807800  1
  N  394  1  0.02664800  0.99865000  0.99408000  1
  N  397  1  0.00194600  0.04712600  0.02169800  1
  N  404  1  0.97959500  0.98697600  0.96972800  1
  N  405  1  0.04972900  0.05931200  0.04518600  1
  N  407  1  0.52653600  0.79917300  0.26897200  1
  N  410  1  0.50176900  0.75057700  0.24162300  1
  N  417  1  0.47959200  0.81087400  0.29348900  1
  N  418  1  0.54945700  0.73838400  0.21794300  1
  N  420  1  0.75388300  0.29914000  0.49368600  1
  N  423  1  0.77869400  0.25066600  0.52121800  1
  N  430  1  0.80083200  0.31081900  0.46917300  1
  N  431  1  0.73100600  0.23849300  0.54489900  1
  N  433  1  0.25369400  0.49871400  0.76871100  1
  N  436  1  0.27838400  0.54732100  0.74132100  1
  N  443  1  0.30069600  0.48703800  0.79316300  1
  N  444  1  0.23065200  0.55950700  0.71773000  1
  N  446  1  0.50401700  0.25208600  0.74061300  1
  N  449  1  0.52722200  0.30329400  0.76421700  1
  N  456  1  0.55022700  0.24163600  0.71432800  1
  N  457  1  0.48045600  0.31379800  0.79020800  1
  N  459  1  0.27506600  0.75428000  0.52490900  1
  N  462  1  0.25327600  0.80300600  0.49558900  1
  N  469  1  0.22358800  0.74486600  0.54531000  1
  N  470  1  0.30520200  0.81174800  0.47505300  1
  N  472  1  0.77462500  0.54402900  0.23813600  1
  N  475  1  0.75299900  0.49502300  0.26709200  1
  N  482  1  0.72319000  0.55326300  0.21755000  1
  N  483  1  0.80488200  0.48644400  0.28778500  1
  N  485  1  0.52699500  0.99491200  0.49656600  1
  N  488  1  0.50609600  0.04541700  0.52332500  1
  N  495  1  0.47604000  0.98651500  0.47457000  1
  N  496  1  0.55758700  0.05320700  0.54504900  1
  N  498  1  0.02679800  0.80295600  0.76672300  1
  N  501  1  0.00572200  0.75266700  0.73967100  1
  N  508  1  0.97580700  0.81148100  0.78860800  1
  N  509  1  0.05722900  0.74474700  0.71804400  1
  N  511  1  0.25359500  0.30291900  0.99628200  1
  N  514  1  0.27461700  0.25247700  0.02308100  1
  N  521  1  0.30452800  0.31140100  0.97426200  1
  N  522  1  0.22314800  0.24460600  0.04483000  1
  N  524  1  0.00537500  0.25456200  0.23771300  1
  N  527  1  0.02716700  0.30330300  0.26700400  1
  N  534  1  0.05681000  0.24519000  0.21722600  1
  N  535  1  0.97526300  0.31200700  0.28759400  1
  N  537  1  0.77628900  0.75209600  0.02223300  1
  N  540  1  0.75312500  0.80335600  0.99870200  1
  N  547  1  0.73009100  0.74166700  0.04853800  1
  N  548  1  0.79987600  0.81383100  0.97268700  1
  N  550  1  0.52648300  0.49499800  0.99606400  1
  N  553  1  0.50536600  0.54515000  0.02333400  1
  N  560  1  0.47551800  0.48659700  0.97404400  1
  N  561  1  0.55683300  0.55298300  0.04505300  1
  N  563  1  0.75379600  0.99498600  0.76679500  1
  N  566  1  0.77489100  0.04518300  0.73959100  1
  N  573  1  0.80474900  0.98662300  0.78886000  1
  N  574  1  0.72345300  0.05296600  0.71779900  1
  N  576  1  0.27655100  0.04599600  0.24090600  1
  N  579  1  0.25324000  0.99484200  0.26452600  1
  N  586  1  0.23035900  0.05653400  0.21460500  1
  N  587  1  0.29999100  0.98425100  0.29052800  1
  N  589  1  0.02668300  0.49925300  0.49363000  1
  N  592  1  0.00194600  0.54779700  0.52108700  1
  N  599  1  0.97970900  0.48757700  0.46913800  1
  N  600  1  0.04966300  0.55997000  0.54473900  1
  N  994  1  0.29226600  0.99865000  0.99408000  1
  N  997  1  0.26756400  0.04712600  0.02169800  1
  N  1004  1  0.24521300  0.98697600  0.96972800  1
  N  1005  1  0.31534700  0.05931200  0.04518600  1
  N  1007  1  0.79215400  0.79917300  0.26897200  1
  N  1010  1  0.76738700  0.75057700  0.24162300  1
  N  1017  1  0.74521000  0.81087400  0.29348900  1
  N  1018  1  0.81507500  0.73838400  0.21794300  1
  N  1020  1  0.01950070  0.29914000  0.49368600  1
  N  1023  1  0.04431170  0.25066600  0.52121800  1
  N  1030  1  0.06644970  0.31081900  0.46917300  1
  N  1031  1  0.99662400  0.23849300  0.54489900  1
  N  1033  1  0.51931200  0.49871400  0.76871100  1
  N  1036  1  0.54400200  0.54732100  0.74132100  1
  N  1043  1  0.56631400  0.48703800  0.79316300  1
  N  1044  1  0.49627000  0.55950700  0.71773000  1
  N  1046  1  0.76963500  0.25208600  0.74061300  1
  N  1049  1  0.79284000  0.30329400  0.76421700  1
  N  1056  1  0.81584500  0.24163600  0.71432800  1
  N  1057  1  0.74607400  0.31379800  0.79020800  1
  N  1059  1  0.54068400  0.75428000  0.52490900  1
  N  1062  1  0.51889400  0.80300600  0.49558900  1
  N  1069  1  0.48920600  0.74486600  0.54531000  1
  N  1070  1  0.57082000  0.81174800  0.47505300  1
  N  1072  1  0.04024270  0.54402900  0.23813600  1
  N  1075  1  0.01861670  0.49502300  0.26709200  1
  N  1082  1  0.98880800  0.55326300  0.21755000  1
  N  1083  1  0.07049970  0.48644400  0.28778500  1
  N  1085  1  0.79261300  0.99491200  0.49656600  1
  N  1088  1  0.77171400  0.04541700  0.52332500  1
  N  1095  1  0.74165800  0.98651500  0.47457000  1
  N  1096  1  0.82320500  0.05320700  0.54504900  1
  N  1098  1  0.29241600  0.80295600  0.76672300  1
  N  1101  1  0.27134000  0.75266700  0.73967100  1
  N  1108  1  0.24142500  0.81148100  0.78860800  1
  N  1109  1  0.32284700  0.74474700  0.71804400  1
  N  1111  1  0.51921300  0.30291900  0.99628200  1
  N  1114  1  0.54023500  0.25247700  0.02308100  1
  N  1121  1  0.57014600  0.31140100  0.97426200  1
  N  1122  1  0.48876600  0.24460600  0.04483000  1
  N  1124  1  0.27099300  0.25456200  0.23771300  1
  N  1127  1  0.29278500  0.30330300  0.26700400  1
  N  1134  1  0.32242800  0.24519000  0.21722600  1
  N  1135  1  0.24088100  0.31200700  0.28759400  1
  N  1137  1  0.04190670  0.75209600  0.02223300  1
  N  1140  1  0.01874270  0.80335600  0.99870200  1
  N  1147  1  0.99570900  0.74166700  0.04853800  1
  N  1148  1  0.06549370  0.81383100  0.97268700  1
  N  1150  1  0.79210100  0.49499800  0.99606400  1
  N  1153  1  0.77098400  0.54515000  0.02333400  1
  N  1160  1  0.74113600  0.48659700  0.97404400  1
  N  1161  1  0.82245100  0.55298300  0.04505300  1
  N  1163  1  0.01941370  0.99498600  0.76679500  1
  N  1166  1  0.04050870  0.04518300  0.73959100  1
  N  1173  1  0.07036670  0.98662300  0.78886000  1
  N  1174  1  0.98907100  0.05296600  0.71779900  1
  N  1176  1  0.54216900  0.04599600  0.24090600  1
  N  1179  1  0.51885800  0.99484200  0.26452600  1
  N  1186  1  0.49597700  0.05653400  0.21460500  1
  N  1187  1  0.56560900  0.98425100  0.29052800  1
  N  1189  1  0.29230100  0.49925300  0.49363000  1
  N  1192  1  0.26756400  0.54779700  0.52108700  1
  N  1199  1  0.24532700  0.48757700  0.46913800  1
  N  1200  1  0.31528100  0.55997000  0.54473900  1
  O  401  1  0.93624700  0.05164500  0.02017200  1
  O  402  1  0.94461100  0.04974300  0.97313400  1
  O  414  1  0.43592900  0.74581900  0.24356600  1
  O  415  1  0.44374600  0.74921100  0.29059300  1
  O  427  1  0.84453600  0.24593600  0.51929900  1
  O  428  1  0.83669800  0.24914000  0.47226300  1
  O  440  1  0.34406400  0.55195400  0.74305100  1
  O  441  1  0.33556400  0.54987100  0.79006000  1
  O  453  1  0.59292100  0.31014200  0.75883000  1
  O  454  1  0.58377900  0.30760600  0.71316000  1
  O  466  1  0.18756900  0.80683700  0.49165200  1
  O  467  1  0.18920200  0.80759600  0.53818300  1
  O  479  1  0.68747600  0.49066600  0.27070500  1
  O  480  1  0.68908000  0.49017200  0.22430100  1
  O  492  1  0.44979900  0.06786900  0.50052300  1
  O  493  1  0.43005400  0.02720200  0.51322600  1
  O  505  1  0.94942600  0.73037200  0.76270300  1
  O  506  1  0.92982300  0.77114900  0.74949700  1
  O  518  1  0.33096000  0.23012100  0.00027900  1
  O  519  1  0.35062000  0.27084400  0.01292600  1
  O  531  1  0.09282400  0.30764400  0.27070000  1
  O  532  1  0.09138700  0.30773400  0.22434900  1
  O  544  1  0.68733600  0.80987200  0.00400700  1
  O  545  1  0.69678500  0.80782500  0.04981200  1
  O  557  1  0.44894700  0.56757100  0.00073300  1
  O  558  1  0.42941400  0.52672500  0.01316000  1
  O  570  1  0.83109100  0.06762600  0.76271000  1
  O  571  1  0.85076400  0.02683400  0.74962500  1
  O  583  1  0.18763500  0.98832000  0.25927100  1
  O  584  1  0.19685500  0.99022500  0.21354900  1
  O  596  1  0.93610200  0.55253100  0.51924100  1
  O  597  1  0.94386500  0.54927100  0.47219800  1
  O  1001  1  0.20186500  0.05164500  0.02017200  1
  O  1002  1  0.21022900  0.04974300  0.97313400  1
  O  1014  1  0.70154700  0.74581900  0.24356600  1
  O  1015  1  0.70936400  0.74921100  0.29059300  1
  O  1027  1  0.11015400  0.24593600  0.51929900  1
  O  1028  1  0.10231600  0.24914000  0.47226300  1
  O  1040  1  0.60968200  0.55195400  0.74305100  1
  O  1041  1  0.60118200  0.54987100  0.79006000  1
  O  1053  1  0.85853900  0.31014200  0.75883000  1
  O  1054  1  0.84939700  0.30760600  0.71316000  1
  O  1066  1  0.45318700  0.80683700  0.49165200  1
  O  1067  1  0.45482000  0.80759600  0.53818300  1
  O  1079  1  0.95309400  0.49066600  0.27070500  1
  O  1080  1  0.95469800  0.49017200  0.22430100  1
  O  1092  1  0.71541700  0.06786900  0.50052300  1
  O  1093  1  0.69567200  0.02720200  0.51322600  1
  O  1105  1  0.21504400  0.73037200  0.76270300  1
  O  1106  1  0.19544100  0.77114900  0.74949700  1
  O  1118  1  0.59657800  0.23012100  0.00027900  1
  O  1119  1  0.61623800  0.27084400  0.01292600  1
  O  1131  1  0.35844200  0.30764400  0.27070000  1
  O  1132  1  0.35700500  0.30773400  0.22434900  1
  O  1144  1  0.95295400  0.80987200  0.00400700  1
  O  1145  1  0.96240300  0.80782500  0.04981200  1
  O  1157  1  0.71456500  0.56757100  0.00073300  1
  O  1158  1  0.69503200  0.52672500  0.01316000  1
  O  1170  1  0.09670870  0.06762600  0.76271000  1
  O  1171  1  0.11638200  0.02683400  0.74962500  1
  O  1183  1  0.45325300  0.98832000  0.25927100  1
  O  1184  1  0.46247300  0.99022500  0.21354900  1
  O  1196  1  0.20172000  0.55253100  0.51924100  1
  O  1197  1  0.20948300  0.54927100  0.47219800  1
