# generated using pymatgen
data_H17C30(N3O2)2
_symmetry_space_group_name_H-M   'P 1'
_cell_length_a   50.16390000
_cell_length_b   94.32300000
_cell_length_c   94.32490000
_cell_angle_alpha   90.00000000
_cell_angle_beta   89.99800000
_cell_angle_gamma   90.00000000
_symmetry_Int_Tables_number   1
_chemical_formula_structural   H17C30(N3O2)2
_chemical_formula_sum   'H1088 C1920 N384 O256'
_cell_volume   446308.59639934
_cell_formula_units_Z   64
loop_
 _symmetry_equiv_pos_site_id
 _symmetry_equiv_pos_as_xyz
  1  'x, y, z'
loop_
 _atom_site_type_symbol
 _atom_site_label
 _atom_site_symmetry_multiplicity
 _atom_site_fract_x
 _atom_site_fract_y
 _atom_site_fract_z
 _atom_site_occupancy
  H  49  1  0.90169100  0.12884100  0.47847000  1
  H  50  1  0.88115600  0.12917100  0.45561800  1
  H  51  1  0.97269800  0.14510600  0.46057900  1
  H  52  1  0.95195600  0.14540100  0.43775300  1
  H  53  1  0.88817700  0.16294500  0.44343500  1
  H  54  1  0.85882800  0.17879400  0.42828000  1
  H  55  1  0.87608300  0.14321100  0.40545600  1
  H  56  1  0.87764400  0.12656700  0.38717200  1
  H  57  1  0.92627500  0.10981300  0.43856800  1
  H  58  1  0.92142000  0.09043600  0.42000600  1
  H  59  1  0.85690200  0.08119000  0.40154800  1
  H  60  1  0.85852500  0.05597600  0.40238300  1
  H  61  1  0.93699900  0.08239600  0.38787000  1
  H  62  1  0.93887900  0.05699000  0.38874100  1
  H  63  1  0.88107700  0.08818500  0.36721400  1
  H  64  1  0.86068700  0.10594000  0.35018800  1
  H  65  1  0.82184500  0.17710400  0.37467900  1
  H  66  1  0.82662300  0.15981000  0.35422600  1
  H  67  1  0.88636100  0.13721400  0.33920700  1
  H  68  1  0.87552900  0.13746300  0.31453300  1
  H  69  1  0.80544600  0.13019000  0.34929800  1
  H  70  1  0.79440900  0.13049800  0.32456600  1
  H  71  1  0.79979100  0.16983400  0.41382700  1
  H  72  1  0.77245100  0.19022100  0.41743100  1
  H  73  1  0.83000400  0.21566300  0.39677800  1
  H  74  1  0.85740200  0.19513700  0.39326100  1
  H  79  1  0.80935000  0.13858800  0.30014500  1
  H  80  1  0.88311000  0.03439500  0.40078000  1
  H  81  1  0.94137100  0.13087000  0.49293100  1
  H  82  1  0.76759700  0.21591100  0.41699400  1
  H  131  1  0.40169000  0.37597400  0.54849700  1
  H  132  1  0.38115900  0.37563800  0.57134900  1
  H  133  1  0.47271300  0.35972300  0.56638300  1
  H  134  1  0.45197500  0.35942500  0.58920900  1
  H  135  1  0.38820200  0.34187200  0.58353300  1
  H  136  1  0.35887400  0.32601600  0.59869100  1
  H  137  1  0.37609600  0.36160500  0.62151000  1
  H  138  1  0.37736500  0.37830700  0.63971900  1
  H  139  1  0.42619700  0.39502300  0.58837100  1
  H  140  1  0.42122800  0.41441900  0.60690200  1
  H  141  1  0.35673300  0.42369600  0.62547600  1
  H  142  1  0.35839900  0.44890900  0.62466500  1
  H  143  1  0.43693200  0.42242900  0.63897800  1
  H  144  1  0.43885400  0.44783600  0.63813100  1
  H  145  1  0.38125100  0.41662700  0.65976800  1
  H  146  1  0.36094300  0.39886500  0.67681100  1
  H  147  1  0.32173800  0.32774400  0.65227000  1
  H  148  1  0.32648800  0.34506200  0.67272000  1
  H  149  1  0.38612700  0.36736100  0.68777300  1
  H  150  1  0.37523200  0.36735700  0.71242400  1
  H  151  1  0.30547500  0.37502500  0.67757000  1
  H  152  1  0.29436100  0.37500000  0.70228000  1
  H  153  1  0.29981900  0.33498600  0.61312600  1
  H  154  1  0.27247900  0.31460000  0.60951400  1
  H  155  1  0.33001100  0.28915400  0.63017900  1
  H  156  1  0.35740500  0.30967900  0.63370600  1
  H  161  1  0.30827400  0.36806400  0.72681200  1
  H  162  1  0.38303900  0.47047400  0.62622900  1
  H  163  1  0.44136800  0.37394900  0.53403100  1
  H  164  1  0.26762100  0.28891000  0.60994900  1
  H  213  1  0.15228800  0.78776300  0.88848400  1
  H  214  1  0.13166100  0.81057800  0.88887700  1
  H  215  1  0.22195100  0.80531300  0.90660600  1
  H  216  1  0.20110500  0.82812700  0.90695800  1
  H  217  1  0.13715400  0.82258700  0.92339000  1
  H  218  1  0.10757300  0.83772600  0.93912700  1
  H  219  1  0.12541700  0.86058100  0.90364900  1
  H  220  1  0.12666600  0.87874900  0.88688300  1
  H  221  1  0.17931300  0.82817100  0.87110900  1
  H  222  1  0.17666300  0.84712600  0.85199100  1
  H  223  1  0.12026500  0.86418500  0.83773900  1
  H  224  1  0.13077800  0.86711300  0.81320200  1
  H  225  1  0.19330300  0.88332900  0.84899600  1
  H  226  1  0.20402300  0.88628500  0.82443500  1
  H  227  1  0.13617800  0.89991600  0.84945400  1
  H  228  1  0.11357300  0.91647800  0.86681600  1
  H  229  1  0.06890400  0.89107100  0.93683600  1
  H  230  1  0.07363500  0.91147100  0.91944200  1
  H  231  1  0.13333700  0.92721700  0.89999900  1
  H  232  1  0.12182100  0.95174100  0.89878500  1
  H  233  1  0.05552000  0.91609500  0.88717900  1
  H  234  1  0.04373900  0.94063900  0.88597500  1
  H  235  1  0.04911400  0.85162400  0.93065400  1
  H  236  1  0.02206400  0.84823700  0.95118300  1
  H  237  1  0.07882200  0.87024800  0.97595000  1
  H  238  1  0.10594100  0.87353600  0.95528700  1
  H  243  1  0.05574300  0.96545500  0.88830700  1
  H  244  1  0.18745500  0.88703500  0.79969200  1
  H  245  1  0.19156100  0.77318300  0.89120000  1
  H  246  1  0.01698700  0.84942200  0.97678200  1
  H  295  1  0.65228600  0.71708700  0.13849900  1
  H  296  1  0.63164200  0.69427800  0.13810300  1
  H  297  1  0.72189800  0.69953400  0.12032300  1
  H  298  1  0.70103900  0.67672500  0.11996900  1
  H  299  1  0.63712800  0.68226100  0.10355800  1
  H  300  1  0.60758900  0.66711100  0.08781100  1
  H  301  1  0.62540100  0.64426600  0.12329900  1
  H  302  1  0.62666200  0.62609500  0.14006200  1
  H  303  1  0.67928800  0.67667800  0.15583800  1
  H  304  1  0.67665500  0.65771700  0.17495300  1
  H  305  1  0.62025300  0.64067400  0.18921500  1
  H  306  1  0.63077700  0.63774700  0.21375200  1
  H  307  1  0.69325600  0.62149600  0.17794800  1
  H  308  1  0.70398700  0.61854000  0.20250600  1
  H  309  1  0.63616100  0.60493200  0.17749400  1
  H  310  1  0.61358900  0.58836300  0.16012700  1
  H  311  1  0.56879000  0.61378800  0.09014800  1
  H  312  1  0.57351300  0.59339400  0.10754300  1
  H  313  1  0.63332100  0.57761900  0.12689300  1
  H  314  1  0.62179400  0.55309700  0.12810900  1
  H  315  1  0.55556900  0.58874900  0.13982000  1
  H  316  1  0.54377800  0.56420700  0.14102800  1
  H  317  1  0.54916400  0.65323900  0.09629000  1
  H  318  1  0.52210100  0.65662800  0.07576700  1
  H  319  1  0.57877900  0.63455900  0.05099800  1
  H  320  1  0.60591000  0.63126700  0.07165500  1
  H  325  1  0.55574100  0.53938900  0.13864200  1
  H  326  1  0.68742300  0.61779200  0.22724700  1
  H  327  1  0.69155200  0.73166300  0.13575900  1
  H  328  1  0.51697400  0.65541700  0.05017500  1
  H  377  1  0.60126200  0.37801900  0.47802000  1
  H  378  1  0.62228500  0.37691100  0.45530100  1
  H  379  1  0.53143800  0.35995100  0.46058400  1
  H  380  1  0.55262300  0.35890900  0.43785500  1
  H  381  1  0.61476500  0.34184800  0.44331200  1
  H  382  1  0.64395000  0.32580400  0.42828300  1
  H  383  1  0.62850600  0.36166600  0.40553800  1
  H  384  1  0.62742600  0.37823900  0.38725600  1
  H  385  1  0.57814100  0.39529400  0.43835500  1
  H  386  1  0.58341000  0.41458700  0.41975700  1
  H  387  1  0.64808600  0.42362100  0.40104900  1
  H  388  1  0.64654300  0.44883700  0.40186200  1
  H  389  1  0.56772600  0.42245700  0.38781300  1
  H  390  1  0.56592900  0.44786400  0.38866400  1
  H  391  1  0.62338900  0.41639200  0.36689100  1
  H  392  1  0.64377800  0.39851800  0.35000700  1
  H  393  1  0.68364400  0.32775000  0.37516000  1
  H  394  1  0.67933200  0.34505200  0.35466400  1
  H  395  1  0.61952800  0.36638300  0.33905700  1
  H  396  1  0.63052600  0.36780800  0.31449500  1
  H  397  1  0.69914100  0.37600900  0.34985000  1
  H  398  1  0.71043400  0.37736700  0.32524100  1
  H  399  1  0.70265700  0.33465900  0.41542800  1
  H  400  1  0.72951700  0.31422800  0.41975200  1
  H  401  1  0.67485400  0.28902600  0.39673600  1
  H  402  1  0.64781900  0.30959700  0.39254200  1
  H  407  1  0.69679900  0.37730300  0.30048800  1
  H  408  1  0.62190800  0.47042700  0.40047000  1
  H  409  1  0.55891400  0.37818600  0.49124500  1
  H  410  1  0.73253100  0.28818700  0.42002200  1
  H  459  1  0.10126000  0.12680000  0.54894700  1
  H  460  1  0.12227300  0.12790800  0.57166500  1
  H  461  1  0.03144300  0.14488700  0.56637400  1
  H  462  1  0.05262100  0.14592700  0.58910300  1
  H  463  1  0.11474300  0.16297800  0.58365100  1
  H  464  1  0.14391600  0.17902900  0.59867500  1
  H  465  1  0.12855000  0.14315400  0.62141200  1
  H  466  1  0.12757300  0.12656600  0.63967500  1
  H  467  1  0.07818400  0.10952000  0.58860400  1
  H  468  1  0.08351600  0.09022200  0.60718900  1
  H  469  1  0.14815700  0.08116800  0.62595200  1
  H  470  1  0.14657000  0.05595200  0.62515800  1
  H  471  1  0.06775700  0.08238700  0.63911500  1
  H  472  1  0.06591400  0.05698000  0.63828500  1
  H  473  1  0.12327800  0.08845400  0.66009700  1
  H  474  1  0.14362800  0.10633500  0.67698700  1
  H  475  1  0.18360900  0.17710000  0.65179500  1
  H  476  1  0.17928600  0.15980100  0.67230100  1
  H  477  1  0.11951800  0.13843300  0.68788400  1
  H  478  1  0.13049500  0.13705200  0.71244800  1
  H  479  1  0.19917600  0.12887500  0.67712300  1
  H  480  1  0.21044800  0.12755800  0.70173600  1
  H  481  1  0.20265000  0.17016700  0.61152200  1
  H  482  1  0.22950400  0.19060000  0.60718800  1
  H  483  1  0.17483100  0.21580800  0.63019200  1
  H  484  1  0.14780300  0.19523800  0.63439700  1
  H  489  1  0.19691000  0.12783600  0.72649600  1
  H  490  1  0.12191100  0.03437600  0.62657300  1
  H  491  1  0.05892600  0.12664500  0.53571200  1
  H  492  1  0.23247400  0.21664900  0.60689500  1
  H  541  1  0.35035800  0.71645900  0.88621200  1
  H  542  1  0.37153800  0.69380000  0.88736100  1
  H  543  1  0.28247000  0.69952700  0.90665000  1
  H  544  1  0.30382800  0.67683600  0.90773000  1
  H  545  1  0.36633900  0.68217800  0.92330800  1
  H  546  1  0.39578900  0.66716200  0.93922100  1
  H  547  1  0.37898000  0.64421200  0.90366600  1
  H  548  1  0.37795700  0.62594400  0.88700900  1
  H  549  1  0.32481400  0.67626500  0.87089900  1
  H  550  1  0.32778000  0.65722600  0.85189500  1
  H  551  1  0.38453400  0.64038600  0.83791100  1
  H  552  1  0.37416600  0.63759900  0.81334000  1
  H  553  1  0.31158300  0.62100900  0.84894200  1
  H  554  1  0.30100400  0.61819600  0.82434400  1
  H  555  1  0.36865200  0.60452900  0.84970300  1
  H  556  1  0.39129800  0.58811000  0.86718400  1
  H  557  1  0.43583200  0.61405900  0.93701800  1
  H  558  1  0.43141200  0.59357700  0.91970400  1
  H  559  1  0.37158800  0.57755100  0.90046600  1
  H  560  1  0.38314400  0.55303800  0.89921600  1
  H  561  1  0.44924800  0.58872600  0.88742300  1
  H  562  1  0.46107100  0.56418800  0.88618000  1
  H  563  1  0.45376700  0.65436800  0.93093700  1
  H  564  1  0.48038200  0.65837200  0.95151800  1
  H  565  1  0.42581900  0.63467100  0.97611000  1
  H  566  1  0.39902400  0.63080600  0.95539500  1
  H  571  1  0.44914600  0.53935800  0.88855900  1
  H  572  1  0.31739600  0.61788500  0.79957500  1
  H  573  1  0.30838300  0.72979500  0.88694300  1
  H  574  1  0.48361500  0.65802600  0.97746400  1
  H  623  1  0.85032300  0.78838400  0.14077800  1
  H  624  1  0.87152600  0.81103400  0.13962100  1
  H  625  1  0.78249600  0.80531200  0.12028600  1
  H  626  1  0.80387600  0.82799600  0.11919500  1
  H  627  1  0.86638300  0.82265000  0.10364600  1
  H  628  1  0.89580000  0.83767400  0.08772300  1
  H  629  1  0.87895200  0.86063400  0.12326700  1
  H  630  1  0.87792900  0.87890400  0.13992300  1
  H  631  1  0.82479900  0.82858100  0.15604300  1
  H  632  1  0.82776300  0.84762400  0.17504300  1
  H  633  1  0.88455900  0.86442500  0.18902900  1
  H  634  1  0.87417300  0.86717600  0.21360100  1
  H  635  1  0.81164200  0.88384300  0.17801100  1
  H  636  1  0.80104300  0.88662100  0.20261000  1
  H  637  1  0.86869700  0.90030500  0.17724200  1
  H  638  1  0.89129500  0.91673400  0.15975300  1
  H  639  1  0.93591300  0.89076600  0.08994900  1
  H  640  1  0.93149900  0.91124600  0.10726100  1
  H  641  1  0.87157600  0.92730600  0.12644100  1
  H  642  1  0.88314800  0.95181700  0.12769900  1
  H  643  1  0.94919300  0.91611600  0.13953800  1
  H  644  1  0.96103100  0.94065100  0.14078900  1
  H  645  1  0.95372900  0.85047200  0.09600700  1
  H  646  1  0.98035700  0.84646000  0.07543000  1
  H  647  1  0.92583000  0.87017500  0.05082900  1
  H  648  1  0.89902800  0.87404800  0.07154000  1
  H  653  1  0.94913400  0.96548400  0.13839700  1
  H  654  1  0.81733800  0.88685600  0.22737500  1
  H  655  1  0.80833900  0.77506100  0.14003900  1
  H  656  1  0.98363300  0.84681300  0.04949200  1
  H  705  1  0.10253500  0.87752400  0.54856600  1
  H  706  1  0.12316300  0.87719100  0.57138800  1
  H  707  1  0.03341000  0.85871000  0.56604000  1
  H  708  1  0.05425300  0.85841300  0.58883800  1
  H  709  1  0.11899600  0.84270900  0.58290400  1
  H  710  1  0.14880600  0.82699600  0.59793200  1
  H  711  1  0.12933500  0.86190500  0.62130300  1
  H  712  1  0.12692100  0.87831100  0.63979500  1
  H  713  1  0.07431900  0.89428900  0.58929000  1
  H  714  1  0.07615800  0.91317100  0.60851000  1
  H  715  1  0.13214600  0.92788300  0.62532000  1
  H  716  1  0.12046700  0.95224200  0.62841900  1
  H  717  1  0.06010900  0.91550500  0.64486500  1
  H  718  1  0.04819400  0.93989100  0.64798000  1
  H  719  1  0.11867300  0.91589600  0.66085300  1
  H  720  1  0.14198300  0.89858700  0.67720500  1
  H  721  1  0.18537400  0.82843000  0.65165800  1
  H  722  1  0.18027900  0.84557400  0.67222900  1
  H  723  1  0.11979200  0.86673400  0.68759700  1
  H  724  1  0.13058300  0.86719200  0.71222600  1
  H  725  1  0.19979300  0.87606600  0.67736100  1
  H  726  1  0.21083900  0.87651400  0.70205300  1
  H  727  1  0.20700400  0.83537700  0.61280500  1
  H  728  1  0.23398900  0.81483100  0.60928800  1
  H  729  1  0.17566200  0.78970700  0.62971300  1
  H  730  1  0.14864200  0.81038200  0.63314300  1
  H  735  1  0.19791700  0.87155600  0.72672200  1
  H  736  1  0.06322600  0.96487000  0.64854400  1
  H  737  1  0.06355100  0.87426100  0.53390100  1
  H  738  1  0.23820300  0.78907400  0.60965800  1
  H  787  1  0.60252300  0.62734100  0.47837000  1
  H  788  1  0.62314400  0.62767800  0.45554700  1
  H  789  1  0.53336600  0.64612200  0.46090000  1
  H  790  1  0.55420200  0.64642100  0.43810000  1
  H  791  1  0.61900300  0.66212900  0.44404000  1
  H  792  1  0.64880800  0.67784400  0.42901000  1
  H  793  1  0.62925600  0.64296200  0.40562000  1
  H  794  1  0.62712900  0.62648800  0.38719200  1
  H  795  1  0.57433200  0.61055100  0.43765500  1
  H  796  1  0.57623000  0.59165600  0.41844800  1
  H  797  1  0.63225000  0.57695500  0.40157700  1
  H  798  1  0.62057800  0.55259300  0.39848300  1
  H  799  1  0.56010100  0.58932400  0.38214600  1
  H  800  1  0.54819400  0.56493500  0.37903600  1
  H  801  1  0.61847500  0.58898100  0.36604700  1
  H  802  1  0.64177500  0.60629100  0.34969100  1
  H  803  1  0.68533800  0.67642600  0.37527600  1
  H  804  1  0.68025300  0.65927800  0.35470500  1
  H  805  1  0.61978500  0.63812200  0.33935900  1
  H  806  1  0.63057000  0.63772900  0.31472300  1
  H  807  1  0.69980100  0.62879000  0.34955900  1
  H  808  1  0.71083700  0.62840600  0.32486100  1
  H  809  1  0.70699700  0.66946700  0.41411900  1
  H  810  1  0.73397700  0.69001400  0.41764500  1
  H  811  1  0.67562800  0.71514500  0.39725200  1
  H  812  1  0.64861200  0.69447100  0.39381400  1
  H  817  1  0.69785500  0.63373000  0.30021400  1
  H  818  1  0.56326800  0.53995900  0.37842600  1
  H  819  1  0.56353700  0.63058900  0.49304000  1
  H  820  1  0.73817100  0.71577300  0.41729700  1
  H  869  1  0.85262800  0.21710800  0.13788300  1
  H  870  1  0.87320800  0.19427900  0.13751100  1
  H  871  1  0.78248000  0.19945700  0.12040100  1
  H  872  1  0.80327600  0.17663100  0.12006900  1
  H  873  1  0.86694900  0.18197600  0.10317000  1
  H  874  1  0.89655800  0.16677200  0.08751000  1
  H  875  1  0.87946200  0.14426000  0.12330600  1
  H  876  1  0.87892800  0.12631800  0.14028200  1
  H  877  1  0.82584000  0.17690300  0.15573100  1
  H  878  1  0.82843300  0.15802600  0.17492800  1
  H  879  1  0.88462100  0.14022200  0.18916000  1
  H  880  1  0.87404600  0.13733000  0.21369600  1
  H  881  1  0.81055000  0.12224600  0.17788600  1
  H  882  1  0.79977100  0.11932300  0.20244600  1
  H  883  1  0.86651400  0.10475400  0.17723500  1
  H  884  1  0.88909800  0.08812300  0.15994400  1
  H  885  1  0.93675800  0.11375700  0.09049400  1
  H  886  1  0.93203600  0.09343200  0.10800500  1
  H  887  1  0.87303500  0.07770300  0.12458500  1
  H  888  1  0.88391900  0.05313600  0.12670100  1
  H  889  1  0.94704600  0.08868200  0.14278000  1
  H  890  1  0.95816800  0.06410600  0.14490900  1
  H  891  1  0.95520800  0.15338400  0.09620300  1
  H  892  1  0.98227900  0.15677200  0.07568300  1
  H  893  1  0.92627900  0.13405800  0.05105800  1
  H  894  1  0.89914300  0.13076800  0.07171100  1
  H  899  1  0.94362600  0.03935300  0.14441600  1
  H  900  1  0.81659200  0.11807500  0.22713900  1
  H  901  1  0.81319300  0.23164400  0.13546100  1
  H  902  1  0.98772300  0.15525800  0.05015200  1
  H  951  1  0.35262600  0.28772800  0.88903100  1
  H  952  1  0.37321900  0.31055300  0.88940600  1
  H  953  1  0.28252800  0.30537600  0.90657500  1
  H  954  1  0.30333600  0.32819800  0.90691100  1
  H  955  1  0.36697700  0.32285700  0.92378200  1
  H  956  1  0.39655200  0.33806900  0.93945100  1
  H  957  1  0.37946200  0.36058000  0.90365400  1
  H  958  1  0.37884800  0.37854100  0.88670000  1
  H  959  1  0.32580800  0.32794700  0.87123400  1
  H  960  1  0.32836200  0.34683800  0.85204800  1
  H  961  1  0.38458200  0.36459200  0.83781800  1
  H  962  1  0.37402400  0.36747500  0.81328100  1
  H  963  1  0.31056800  0.38265100  0.84907400  1
  H  964  1  0.29980800  0.38556300  0.82451000  1
  H  965  1  0.36655100  0.40008600  0.84972300  1
  H  966  1  0.38911900  0.41671800  0.86701700  1
  H  967  1  0.43683400  0.39106900  0.93643800  1
  H  968  1  0.43211000  0.41139300  0.91893200  1
  H  969  1  0.37301600  0.42715500  0.90239400  1
  H  970  1  0.38391000  0.45171900  0.90026800  1
  H  971  1  0.44699900  0.41616000  0.88417500  1
  H  972  1  0.45813300  0.44073300  0.88203500  1
  H  973  1  0.45516600  0.35144800  0.93075300  1
  H  974  1  0.48225200  0.34805500  0.95126600  1
  H  975  1  0.42630700  0.37080200  0.97589900  1
  H  976  1  0.39916000  0.37409700  0.95525300  1
  H  981  1  0.44361200  0.46549200  0.88253500  1
  H  982  1  0.31665200  0.38676500  0.79980400  1
  H  983  1  0.31320200  0.27319300  0.89147800  1
  H  984  1  0.48773400  0.34958500  0.97679200  1
  H  1033  1  0.40410400  0.62524400  0.54908500  1
  H  1034  1  0.38295900  0.62638200  0.57176000  1
  H  1035  1  0.47193500  0.64580000  0.56598500  1
  H  1036  1  0.45060500  0.64689000  0.58866900  1
  H  1037  1  0.38748600  0.66216300  0.58299600  1
  H  1038  1  0.35784300  0.67807300  0.59789900  1
  H  1039  1  0.37565100  0.64289600  0.62123600  1
  H  1040  1  0.37766200  0.62655800  0.63975700  1
  H  1041  1  0.43079200  0.61025900  0.58952400  1
  H  1042  1  0.42855200  0.59145800  0.60879500  1
  H  1043  1  0.37244900  0.57697400  0.62562000  1
  H  1044  1  0.38404700  0.55260300  0.62873700  1
  H  1045  1  0.44453900  0.58929600  0.64514200  1
  H  1046  1  0.45636800  0.56489900  0.64827600  1
  H  1047  1  0.38620400  0.58919300  0.66117800  1
  H  1048  1  0.36291900  0.60663000  0.67738800  1
  H  1049  1  0.31891500  0.67644000  0.65121300  1
  H  1050  1  0.32359800  0.65931700  0.67183800  1
  H  1051  1  0.38419100  0.63898600  0.68768500  1
  H  1052  1  0.37333900  0.63752300  0.71226200  1
  H  1053  1  0.30514200  0.62802700  0.67700100  1
  H  1054  1  0.29398500  0.62663500  0.70162600  1
  H  1055  1  0.30001100  0.66976300  0.61123900  1
  H  1056  1  0.27342800  0.69032900  0.60703300  1
  H  1057  1  0.32891200  0.71527100  0.62977100  1
  H  1058  1  0.35564900  0.69457600  0.63384500  1
  H  1063  1  0.30766800  0.62704100  0.72636600  1
  H  1064  1  0.44117200  0.53992000  0.64887100  1
  H  1065  1  0.44592500  0.62617900  0.53566900  1
  H  1066  1  0.27069300  0.71635900  0.60682800  1
  H  1115  1  0.90408900  0.87957000  0.47787100  1
  H  1116  1  0.88295400  0.87842600  0.45519400  1
  H  1117  1  0.97196500  0.85905500  0.46096600  1
  H  1118  1  0.95064300  0.85796300  0.43828200  1
  H  1119  1  0.88756700  0.84265000  0.44393400  1
  H  1120  1  0.85793000  0.82674100  0.42902800  1
  H  1121  1  0.87561500  0.86195900  0.40572700  1
  H  1122  1  0.87746000  0.87833400  0.38724600  1
  H  1123  1  0.93071400  0.89459600  0.43745800  1
  H  1124  1  0.92845500  0.91340600  0.41819700  1
  H  1125  1  0.87239500  0.92787600  0.40127900  1
  H  1126  1  0.88399700  0.95224700  0.39815900  1
  H  1127  1  0.94461200  0.91554800  0.38189000  1
  H  1128  1  0.95644400  0.93994400  0.37875100  1
  H  1129  1  0.88652300  0.91560400  0.36572600  1
  H  1130  1  0.86323700  0.89817400  0.34951200  1
  H  1131  1  0.81883300  0.82843400  0.37575100  1
  H  1132  1  0.82351900  0.84556500  0.35512600  1
  H  1133  1  0.88408100  0.86573300  0.33926000  1
  H  1134  1  0.87320200  0.86722800  0.31468800  1
  H  1135  1  0.80519900  0.87699900  0.34998200  1
  H  1136  1  0.79402000  0.87842600  0.32536400  1
  H  1137  1  0.80005000  0.83507500  0.41574500  1
  H  1138  1  0.77347500  0.81450700  0.41996300  1
  H  1139  1  0.82889600  0.78957700  0.39716500  1
  H  1140  1  0.85562200  0.81027300  0.39308100  1
  H  1145  1  0.80766900  0.87798100  0.30061900  1
  H  1146  1  0.94120200  0.96492200  0.37809300  1
  H  1147  1  0.94591400  0.87865400  0.49128900  1
  H  1148  1  0.77075400  0.78847300  0.42015900  1
  H  1197  1  0.65421800  0.28833800  0.14019100  1
  H  1198  1  0.63309900  0.31101600  0.13907100  1
  H  1199  1  0.72259600  0.30538700  0.12032200  1
  H  1200  1  0.70130400  0.32809600  0.11927200  1
  H  1201  1  0.63910200  0.32294500  0.10325900  1
  H  1202  1  0.60962200  0.33802100  0.08741900  1
  H  1203  1  0.62562400  0.36062100  0.12329800  1
  H  1204  1  0.62601600  0.37869000  0.14014000  1
  H  1205  1  0.67954500  0.32834800  0.15595800  1
  H  1206  1  0.67668200  0.34733000  0.17502300  1
  H  1207  1  0.62017200  0.36492700  0.18895700  1
  H  1208  1  0.63053800  0.36771300  0.21352400  1
  H  1209  1  0.69415500  0.38316500  0.17792800  1
  H  1210  1  0.70473500  0.38598000  0.20253400  1
  H  1211  1  0.63823800  0.40052000  0.17695700  1
  H  1212  1  0.61556500  0.41699200  0.15955300  1
  H  1213  1  0.56800100  0.39077100  0.09031300  1
  H  1214  1  0.57241000  0.41118600  0.10773400  1
  H  1215  1  0.63150100  0.42722300  0.12413500  1
  H  1216  1  0.62055400  0.45177600  0.12628500  1
  H  1217  1  0.55767400  0.41616900  0.14249900  1
  H  1218  1  0.54648900  0.44073200  0.14466200  1
  H  1219  1  0.55145100  0.35030500  0.09592900  1
  H  1220  1  0.52482000  0.34628800  0.07535600  1
  H  1221  1  0.57855800  0.37066100  0.05090300  1
  H  1222  1  0.60536000  0.37454300  0.07160800  1
  H  1227  1  0.56086800  0.46549500  0.14411100  1
  H  1228  1  0.68788400  0.38681800  0.22729400  1
  H  1229  1  0.69629400  0.27502900  0.13969600  1
  H  1230  1  0.52125200  0.34692200  0.04946200  1
  H  1279  1  0.15425100  0.21650700  0.88671200  1
  H  1280  1  0.13310800  0.19383700  0.88783400  1
  H  1281  1  0.22256100  0.19945600  0.90664200  1
  H  1282  1  0.20124500  0.17675400  0.90769600  1
  H  1283  1  0.13902500  0.18191600  0.92366800  1
  H  1284  1  0.10958500  0.16683100  0.93952000  1
  H  1285  1  0.12567300  0.14421100  0.90366300  1
  H  1286  1  0.12603200  0.12615200  0.88681000  1
  H  1287  1  0.17956900  0.17648900  0.87099300  1
  H  1288  1  0.17672200  0.15750400  0.85193000  1
  H  1289  1  0.12018900  0.13993500  0.83797300  1
  H  1290  1  0.13056300  0.13712100  0.81341000  1
  H  1291  1  0.19411200  0.12164500  0.84902600  1
  H  1292  1  0.20469900  0.11880200  0.82442400  1
  H  1293  1  0.13817700  0.10433700  0.84997600  1
  H  1294  1  0.11553500  0.08785900  0.86738600  1
  H  1295  1  0.06794900  0.11407900  0.93661600  1
  H  1296  1  0.07234400  0.09367200  0.91919000  1
  H  1297  1  0.13150500  0.07761400  0.90282900  1
  H  1298  1  0.12056100  0.05306300  0.90067500  1
  H  1299  1  0.05771300  0.08867200  0.88443200  1
  H  1300  1  0.04652900  0.06410900  0.88226400  1
  H  1301  1  0.05147600  0.15452900  0.93102300  1
  H  1302  1  0.02483900  0.15854900  0.95159400  1
  H  1303  1  0.07856100  0.13417400  0.97605200  1
  H  1304  1  0.10536900  0.13028800  0.95535000  1
  H  1309  1  0.06089500  0.03934400  0.88282900  1
  H  1310  1  0.18781100  0.11792700  0.79966300  1
  H  1311  1  0.19633700  0.22980100  0.88722300  1
  H  1312  1  0.02123800  0.15791200  0.97748100  1
  H  1318  1  0.74608900  0.26517300  0.42535600  1
  H  1320  1  0.76032400  0.23996300  0.38130100  1
  H  1334  1  0.24610900  0.23965100  0.60158300  1
  H  1336  1  0.26032500  0.26485600  0.64564200  1
  H  1350  1  0.99592800  0.84122600  0.02621600  1
  H  1352  1  0.01015000  0.88522200  0.00092100  1
  H  1366  1  0.49589100  0.66361200  0.00073900  1
  H  1368  1  0.51014200  0.61961600  0.02602900  1
  H  1382  1  0.25819800  0.73957500  0.60131700  1
  H  1384  1  0.24497700  0.76501100  0.64533200  1
  H  1398  1  0.75816300  0.76527300  0.42564300  1
  H  1400  1  0.74496900  0.73984000  0.38162300  1
  H  1414  1  0.00874300  0.16344600  0.00071400  1
  H  1416  1  0.99464800  0.11944900  0.02602900  1
  H  1430  1  0.50876900  0.34139300  0.02623000  1
  H  1432  1  0.49464700  0.38539000  0.00092400  1
  H  1446  1  0.24010500  0.76395700  0.92373400  1
  H  1448  1  0.26575900  0.74148300  0.87963500  1
  H  1462  1  0.74010500  0.74088500  0.10321900  1
  H  1464  1  0.76574700  0.76335700  0.14732000  1
  H  1478  1  0.49016600  0.34169600  0.52507100  1
  H  1480  1  0.51570800  0.38580800  0.50255000  1
  H  1494  1  0.99015500  0.16313000  0.50189500  1
  H  1496  1  0.01572100  0.11901800  0.52440600  1
  H  1510  1  0.76463600  0.24088100  0.10297200  1
  H  1512  1  0.73900400  0.26336600  0.14707200  1
  H  1526  1  0.26463900  0.26395800  0.92397600  1
  H  1528  1  0.23901900  0.24147500  0.87987500  1
  H  1542  1  0.51465100  0.66289200  0.50190400  1
  H  1544  1  0.48894200  0.61876500  0.52433600  1
  H  1558  1  0.01468100  0.84195300  0.52504100  1
  H  1560  1  0.98893300  0.88607900  0.50261900  1
  H  1574  1  0.84975100  0.15269500  0.27755800  1
  H  1576  1  0.83011400  0.11020700  0.25066200  1
  H  1590  1  0.35065900  0.35189300  0.74959800  1
  H  1592  1  0.32956800  0.39440300  0.77615200  1
  H  1606  1  0.10667800  0.98923900  0.91411100  1
  H  1608  1  0.06905000  0.01552600  0.87483700  1
  H  1622  1  0.60670200  0.51560300  0.11284700  1
  H  1624  1  0.56900500  0.48931300  0.15210300  1
  H  1638  1  0.65216700  0.35046300  0.27637100  1
  H  1640  1  0.67724700  0.39333900  0.25145700  1
  H  1654  1  0.15221300  0.15430300  0.75056500  1
  H  1656  1  0.17709300  0.11140000  0.77549300  1
  H  1670  1  0.39815700  0.51545900  0.91420300  1
  H  1672  1  0.43564200  0.48937200  0.87475600  1
  H  1686  1  0.89816500  0.98939200  0.11274300  1
  H  1688  1  0.93564600  0.01547300  0.15219400  1
  H  1702  1  0.15334700  0.85153400  0.74980200  1
  H  1704  1  0.17560000  0.89421000  0.77581200  1
  H  1718  1  0.65348000  0.65324900  0.27719000  1
  H  1720  1  0.67549600  0.61058200  0.25110600  1
  H  1734  1  0.35240900  0.65432400  0.75042300  1
  H  1736  1  0.32748100  0.61147400  0.77541300  1
  H  1750  1  0.85249600  0.85051700  0.27655800  1
  H  1752  1  0.82727300  0.89328500  0.25151600  1
  H  1766  1  0.59747200  0.48983000  0.41372900  1
  H  1768  1  0.57174200  0.51580200  0.37162400  1
  H  1782  1  0.09742100  0.01500300  0.61323400  1
  H  1784  1  0.07162400  0.98903100  0.65532600  1
  H  1798  1  0.90742400  0.01488600  0.41380000  1
  H  1800  1  0.93305000  0.98915000  0.37153500  1
  H  1814  1  0.40738100  0.48996100  0.61315200  1
  H  1816  1  0.43309500  0.51569000  0.65540600  1
  H  1873  1  0.06116820  0.12884100  0.47847000  1
  H  1874  1  0.04063320  0.12917100  0.45561800  1
  H  1875  1  0.13217500  0.14510600  0.46057900  1
  H  1876  1  0.11143300  0.14540100  0.43775300  1
  H  1877  1  0.04765420  0.16294500  0.44343500  1
  H  1878  1  0.01830520  0.17879400  0.42828000  1
  H  1879  1  0.03556020  0.14321100  0.40545600  1
  H  1880  1  0.03712120  0.12656700  0.38717200  1
  H  1881  1  0.08575220  0.10981300  0.43856800  1
  H  1882  1  0.08089720  0.09043600  0.42000600  1
  H  1883  1  0.01637920  0.08119000  0.40154800  1
  H  1884  1  0.01800220  0.05597600  0.40238300  1
  H  1885  1  0.09647620  0.08239600  0.38787000  1
  H  1886  1  0.09835620  0.05699000  0.38874100  1
  H  1887  1  0.04055420  0.08818500  0.36721400  1
  H  1888  1  0.02016420  0.10594000  0.35018800  1
  H  1889  1  0.98132200  0.17710400  0.37467900  1
  H  1890  1  0.98610000  0.15981000  0.35422600  1
  H  1891  1  0.04583820  0.13721400  0.33920700  1
  H  1892  1  0.03500620  0.13746300  0.31453300  1
  H  1893  1  0.96492300  0.13019000  0.34929800  1
  H  1894  1  0.95388600  0.13049800  0.32456600  1
  H  1895  1  0.95926800  0.16983400  0.41382700  1
  H  1896  1  0.93192800  0.19022100  0.41743100  1
  H  1897  1  0.98948100  0.21566300  0.39677800  1
  H  1898  1  0.01687920  0.19513700  0.39326100  1
  H  1903  1  0.96882700  0.13858800  0.30014500  1
  H  1904  1  0.04258720  0.03439500  0.40078000  1
  H  1905  1  0.10084800  0.13087000  0.49293100  1
  H  1906  1  0.92707400  0.21591100  0.41699400  1
  H  1955  1  0.56116700  0.37597400  0.54849700  1
  H  1956  1  0.54063600  0.37563800  0.57134900  1
  H  1957  1  0.63219000  0.35972300  0.56638300  1
  H  1958  1  0.61145200  0.35942500  0.58920900  1
  H  1959  1  0.54767900  0.34187200  0.58353300  1
  H  1960  1  0.51835100  0.32601600  0.59869100  1
  H  1961  1  0.53557300  0.36160500  0.62151000  1
  H  1962  1  0.53684200  0.37830700  0.63971900  1
  H  1963  1  0.58567400  0.39502300  0.58837100  1
  H  1964  1  0.58070500  0.41441900  0.60690200  1
  H  1965  1  0.51621000  0.42369600  0.62547600  1
  H  1966  1  0.51787600  0.44890900  0.62466500  1
  H  1967  1  0.59640900  0.42242900  0.63897800  1
  H  1968  1  0.59833100  0.44783600  0.63813100  1
  H  1969  1  0.54072800  0.41662700  0.65976800  1
  H  1970  1  0.52042000  0.39886500  0.67681100  1
  H  1971  1  0.48121500  0.32774400  0.65227000  1
  H  1972  1  0.48596500  0.34506200  0.67272000  1
  H  1973  1  0.54560400  0.36736100  0.68777300  1
  H  1974  1  0.53470900  0.36735700  0.71242400  1
  H  1975  1  0.46495200  0.37502500  0.67757000  1
  H  1976  1  0.45383800  0.37500000  0.70228000  1
  H  1977  1  0.45929600  0.33498600  0.61312600  1
  H  1978  1  0.43195600  0.31460000  0.60951400  1
  H  1979  1  0.48948800  0.28915400  0.63017900  1
  H  1980  1  0.51688200  0.30967900  0.63370600  1
  H  1985  1  0.46775100  0.36806400  0.72681200  1
  H  1986  1  0.54251600  0.47047400  0.62622900  1
  H  1987  1  0.60084500  0.37394900  0.53403100  1
  H  1988  1  0.42709800  0.28891000  0.60994900  1
  H  2037  1  0.31176500  0.78776300  0.88848400  1
  H  2038  1  0.29113800  0.81057800  0.88887700  1
  H  2039  1  0.38142800  0.80531300  0.90660600  1
  H  2040  1  0.36058200  0.82812700  0.90695800  1
  H  2041  1  0.29663100  0.82258700  0.92339000  1
  H  2042  1  0.26705000  0.83772600  0.93912700  1
  H  2043  1  0.28489400  0.86058100  0.90364900  1
  H  2044  1  0.28614300  0.87874900  0.88688300  1
  H  2045  1  0.33879000  0.82817100  0.87110900  1
  H  2046  1  0.33614000  0.84712600  0.85199100  1
  H  2047  1  0.27974200  0.86418500  0.83773900  1
  H  2048  1  0.29025500  0.86711300  0.81320200  1
  H  2049  1  0.35278000  0.88332900  0.84899600  1
  H  2050  1  0.36350000  0.88628500  0.82443500  1
  H  2051  1  0.29565500  0.89991600  0.84945400  1
  H  2052  1  0.27305000  0.91647800  0.86681600  1
  H  2053  1  0.22838100  0.89107100  0.93683600  1
  H  2054  1  0.23311200  0.91147100  0.91944200  1
  H  2055  1  0.29281400  0.92721700  0.89999900  1
  H  2056  1  0.28129800  0.95174100  0.89878500  1
  H  2057  1  0.21499700  0.91609500  0.88717900  1
  H  2058  1  0.20321600  0.94063900  0.88597500  1
  H  2059  1  0.20859100  0.85162400  0.93065400  1
  H  2060  1  0.18154100  0.84823700  0.95118300  1
  H  2061  1  0.23829900  0.87024800  0.97595000  1
  H  2062  1  0.26541800  0.87353600  0.95528700  1
  H  2067  1  0.21522000  0.96545500  0.88830700  1
  H  2068  1  0.34693200  0.88703500  0.79969200  1
  H  2069  1  0.35103800  0.77318300  0.89120000  1
  H  2070  1  0.17646400  0.84942200  0.97678200  1
  H  2119  1  0.81176300  0.71708700  0.13849900  1
  H  2120  1  0.79111900  0.69427800  0.13810300  1
  H  2121  1  0.88137500  0.69953400  0.12032300  1
  H  2122  1  0.86051600  0.67672500  0.11996900  1
  H  2123  1  0.79660500  0.68226100  0.10355800  1
  H  2124  1  0.76706600  0.66711100  0.08781100  1
  H  2125  1  0.78487800  0.64426600  0.12329900  1
  H  2126  1  0.78613900  0.62609500  0.14006200  1
  H  2127  1  0.83876500  0.67667800  0.15583800  1
  H  2128  1  0.83613200  0.65771700  0.17495300  1
  H  2129  1  0.77973000  0.64067400  0.18921500  1
  H  2130  1  0.79025400  0.63774700  0.21375200  1
  H  2131  1  0.85273300  0.62149600  0.17794800  1
  H  2132  1  0.86346400  0.61854000  0.20250600  1
  H  2133  1  0.79563800  0.60493200  0.17749400  1
  H  2134  1  0.77306600  0.58836300  0.16012700  1
  H  2135  1  0.72826700  0.61378800  0.09014800  1
  H  2136  1  0.73299000  0.59339400  0.10754300  1
  H  2137  1  0.79279800  0.57761900  0.12689300  1
  H  2138  1  0.78127100  0.55309700  0.12810900  1
  H  2139  1  0.71504600  0.58874900  0.13982000  1
  H  2140  1  0.70325500  0.56420700  0.14102800  1
  H  2141  1  0.70864100  0.65323900  0.09629000  1
  H  2142  1  0.68157800  0.65662800  0.07576700  1
  H  2143  1  0.73825600  0.63455900  0.05099800  1
  H  2144  1  0.76538700  0.63126700  0.07165500  1
  H  2149  1  0.71521800  0.53938900  0.13864200  1
  H  2150  1  0.84690000  0.61779200  0.22724700  1
  H  2151  1  0.85102900  0.73166300  0.13575900  1
  H  2152  1  0.67645100  0.65541700  0.05017500  1
  H  2201  1  0.76073900  0.37801900  0.47802000  1
  H  2202  1  0.78176200  0.37691100  0.45530100  1
  H  2203  1  0.69091500  0.35995100  0.46058400  1
  H  2204  1  0.71210000  0.35890900  0.43785500  1
  H  2205  1  0.77424200  0.34184800  0.44331200  1
  H  2206  1  0.80342700  0.32580400  0.42828300  1
  H  2207  1  0.78798300  0.36166600  0.40553800  1
  H  2208  1  0.78690300  0.37823900  0.38725600  1
  H  2209  1  0.73761800  0.39529400  0.43835500  1
  H  2210  1  0.74288700  0.41458700  0.41975700  1
  H  2211  1  0.80756300  0.42362100  0.40104900  1
  H  2212  1  0.80602000  0.44883700  0.40186200  1
  H  2213  1  0.72720300  0.42245700  0.38781300  1
  H  2214  1  0.72540600  0.44786400  0.38866400  1
  H  2215  1  0.78286600  0.41639200  0.36689100  1
  H  2216  1  0.80325500  0.39851800  0.35000700  1
  H  2217  1  0.84312100  0.32775000  0.37516000  1
  H  2218  1  0.83880900  0.34505200  0.35466400  1
  H  2219  1  0.77900500  0.36638300  0.33905700  1
  H  2220  1  0.79000300  0.36780800  0.31449500  1
  H  2221  1  0.85861800  0.37600900  0.34985000  1
  H  2222  1  0.86991100  0.37736700  0.32524100  1
  H  2223  1  0.86213400  0.33465900  0.41542800  1
  H  2224  1  0.88899400  0.31422800  0.41975200  1
  H  2225  1  0.83433100  0.28902600  0.39673600  1
  H  2226  1  0.80729600  0.30959700  0.39254200  1
  H  2231  1  0.85627600  0.37730300  0.30048800  1
  H  2232  1  0.78138500  0.47042700  0.40047000  1
  H  2233  1  0.71839100  0.37818600  0.49124500  1
  H  2234  1  0.89200800  0.28818700  0.42002200  1
  H  2283  1  0.26073700  0.12680000  0.54894700  1
  H  2284  1  0.28175000  0.12790800  0.57166500  1
  H  2285  1  0.19092000  0.14488700  0.56637400  1
  H  2286  1  0.21209800  0.14592700  0.58910300  1
  H  2287  1  0.27422000  0.16297800  0.58365100  1
  H  2288  1  0.30339300  0.17902900  0.59867500  1
  H  2289  1  0.28802700  0.14315400  0.62141200  1
  H  2290  1  0.28705000  0.12656600  0.63967500  1
  H  2291  1  0.23766100  0.10952000  0.58860400  1
  H  2292  1  0.24299300  0.09022200  0.60718900  1
  H  2293  1  0.30763400  0.08116800  0.62595200  1
  H  2294  1  0.30604700  0.05595200  0.62515800  1
  H  2295  1  0.22723400  0.08238700  0.63911500  1
  H  2296  1  0.22539100  0.05698000  0.63828500  1
  H  2297  1  0.28275500  0.08845400  0.66009700  1
  H  2298  1  0.30310500  0.10633500  0.67698700  1
  H  2299  1  0.34308600  0.17710000  0.65179500  1
  H  2300  1  0.33876300  0.15980100  0.67230100  1
  H  2301  1  0.27899500  0.13843300  0.68788400  1
  H  2302  1  0.28997200  0.13705200  0.71244800  1
  H  2303  1  0.35865300  0.12887500  0.67712300  1
  H  2304  1  0.36992500  0.12755800  0.70173600  1
  H  2305  1  0.36212700  0.17016700  0.61152200  1
  H  2306  1  0.38898100  0.19060000  0.60718800  1
  H  2307  1  0.33430800  0.21580800  0.63019200  1
  H  2308  1  0.30728000  0.19523800  0.63439700  1
  H  2313  1  0.35638700  0.12783600  0.72649600  1
  H  2314  1  0.28138800  0.03437600  0.62657300  1
  H  2315  1  0.21840300  0.12664500  0.53571200  1
  H  2316  1  0.39195100  0.21664900  0.60689500  1
  H  2365  1  0.50983500  0.71645900  0.88621200  1
  H  2366  1  0.53101500  0.69380000  0.88736100  1
  H  2367  1  0.44194700  0.69952700  0.90665000  1
  H  2368  1  0.46330500  0.67683600  0.90773000  1
  H  2369  1  0.52581600  0.68217800  0.92330800  1
  H  2370  1  0.55526600  0.66716200  0.93922100  1
  H  2371  1  0.53845700  0.64421200  0.90366600  1
  H  2372  1  0.53743400  0.62594400  0.88700900  1
  H  2373  1  0.48429100  0.67626500  0.87089900  1
  H  2374  1  0.48725700  0.65722600  0.85189500  1
  H  2375  1  0.54401100  0.64038600  0.83791100  1
  H  2376  1  0.53364300  0.63759900  0.81334000  1
  H  2377  1  0.47106000  0.62100900  0.84894200  1
  H  2378  1  0.46048100  0.61819600  0.82434400  1
  H  2379  1  0.52812900  0.60452900  0.84970300  1
  H  2380  1  0.55077500  0.58811000  0.86718400  1
  H  2381  1  0.59530900  0.61405900  0.93701800  1
  H  2382  1  0.59088900  0.59357700  0.91970400  1
  H  2383  1  0.53106500  0.57755100  0.90046600  1
  H  2384  1  0.54262100  0.55303800  0.89921600  1
  H  2385  1  0.60872500  0.58872600  0.88742300  1
  H  2386  1  0.62054800  0.56418800  0.88618000  1
  H  2387  1  0.61324400  0.65436800  0.93093700  1
  H  2388  1  0.63985900  0.65837200  0.95151800  1
  H  2389  1  0.58529600  0.63467100  0.97611000  1
  H  2390  1  0.55850100  0.63080600  0.95539500  1
  H  2395  1  0.60862300  0.53935800  0.88855900  1
  H  2396  1  0.47687300  0.61788500  0.79957500  1
  H  2397  1  0.46786000  0.72979500  0.88694300  1
  H  2398  1  0.64309200  0.65802600  0.97746400  1
  H  2447  1  0.00980023  0.78838400  0.14077800  1
  H  2448  1  0.03100320  0.81103400  0.13962100  1
  H  2449  1  0.94197300  0.80531200  0.12028600  1
  H  2450  1  0.96335300  0.82799600  0.11919500  1
  H  2451  1  0.02586020  0.82265000  0.10364600  1
  H  2452  1  0.05527720  0.83767400  0.08772300  1
  H  2453  1  0.03842920  0.86063400  0.12326700  1
  H  2454  1  0.03740620  0.87890400  0.13992300  1
  H  2455  1  0.98427600  0.82858100  0.15604300  1
  H  2456  1  0.98724000  0.84762400  0.17504300  1
  H  2457  1  0.04403620  0.86442500  0.18902900  1
  H  2458  1  0.03365020  0.86717600  0.21360100  1
  H  2459  1  0.97111900  0.88384300  0.17801100  1
  H  2460  1  0.96052000  0.88662100  0.20261000  1
  H  2461  1  0.02817420  0.90030500  0.17724200  1
  H  2462  1  0.05077220  0.91673400  0.15975300  1
  H  2463  1  0.09539020  0.89076600  0.08994900  1
  H  2464  1  0.09097620  0.91124600  0.10726100  1
  H  2465  1  0.03105320  0.92730600  0.12644100  1
  H  2466  1  0.04262520  0.95181700  0.12769900  1
  H  2467  1  0.10867000  0.91611600  0.13953800  1
  H  2468  1  0.12050800  0.94065100  0.14078900  1
  H  2469  1  0.11320600  0.85047200  0.09600700  1
  H  2470  1  0.13983400  0.84646000  0.07543000  1
  H  2471  1  0.08530720  0.87017500  0.05082900  1
  H  2472  1  0.05850520  0.87404800  0.07154000  1
  H  2477  1  0.10861100  0.96548400  0.13839700  1
  H  2478  1  0.97681500  0.88685600  0.22737500  1
  H  2479  1  0.96781600  0.77506100  0.14003900  1
  H  2480  1  0.14311000  0.84681300  0.04949200  1
  H  2529  1  0.26201200  0.87752400  0.54856600  1
  H  2530  1  0.28264000  0.87719100  0.57138800  1
  H  2531  1  0.19288700  0.85871000  0.56604000  1
  H  2532  1  0.21373000  0.85841300  0.58883800  1
  H  2533  1  0.27847300  0.84270900  0.58290400  1
  H  2534  1  0.30828300  0.82699600  0.59793200  1
  H  2535  1  0.28881200  0.86190500  0.62130300  1
  H  2536  1  0.28639800  0.87831100  0.63979500  1
  H  2537  1  0.23379600  0.89428900  0.58929000  1
  H  2538  1  0.23563500  0.91317100  0.60851000  1
  H  2539  1  0.29162300  0.92788300  0.62532000  1
  H  2540  1  0.27994400  0.95224200  0.62841900  1
  H  2541  1  0.21958600  0.91550500  0.64486500  1
  H  2542  1  0.20767100  0.93989100  0.64798000  1
  H  2543  1  0.27815000  0.91589600  0.66085300  1
  H  2544  1  0.30146000  0.89858700  0.67720500  1
  H  2545  1  0.34485100  0.82843000  0.65165800  1
  H  2546  1  0.33975600  0.84557400  0.67222900  1
  H  2547  1  0.27926900  0.86673400  0.68759700  1
  H  2548  1  0.29006000  0.86719200  0.71222600  1
  H  2549  1  0.35927000  0.87606600  0.67736100  1
  H  2550  1  0.37031600  0.87651400  0.70205300  1
  H  2551  1  0.36648100  0.83537700  0.61280500  1
  H  2552  1  0.39346600  0.81483100  0.60928800  1
  H  2553  1  0.33513900  0.78970700  0.62971300  1
  H  2554  1  0.30811900  0.81038200  0.63314300  1
  H  2559  1  0.35739400  0.87155600  0.72672200  1
  H  2560  1  0.22270300  0.96487000  0.64854400  1
  H  2561  1  0.22302800  0.87426100  0.53390100  1
  H  2562  1  0.39768000  0.78907400  0.60965800  1
  H  2611  1  0.76200000  0.62734100  0.47837000  1
  H  2612  1  0.78262100  0.62767800  0.45554700  1
  H  2613  1  0.69284300  0.64612200  0.46090000  1
  H  2614  1  0.71367900  0.64642100  0.43810000  1
  H  2615  1  0.77848000  0.66212900  0.44404000  1
  H  2616  1  0.80828500  0.67784400  0.42901000  1
  H  2617  1  0.78873300  0.64296200  0.40562000  1
  H  2618  1  0.78660600  0.62648800  0.38719200  1
  H  2619  1  0.73380900  0.61055100  0.43765500  1
  H  2620  1  0.73570700  0.59165600  0.41844800  1
  H  2621  1  0.79172700  0.57695500  0.40157700  1
  H  2622  1  0.78005500  0.55259300  0.39848300  1
  H  2623  1  0.71957800  0.58932400  0.38214600  1
  H  2624  1  0.70767100  0.56493500  0.37903600  1
  H  2625  1  0.77795200  0.58898100  0.36604700  1
  H  2626  1  0.80125200  0.60629100  0.34969100  1
  H  2627  1  0.84481500  0.67642600  0.37527600  1
  H  2628  1  0.83973000  0.65927800  0.35470500  1
  H  2629  1  0.77926200  0.63812200  0.33935900  1
  H  2630  1  0.79004700  0.63772900  0.31472300  1
  H  2631  1  0.85927800  0.62879000  0.34955900  1
  H  2632  1  0.87031400  0.62840600  0.32486100  1
  H  2633  1  0.86647400  0.66946700  0.41411900  1
  H  2634  1  0.89345400  0.69001400  0.41764500  1
  H  2635  1  0.83510500  0.71514500  0.39725200  1
  H  2636  1  0.80808900  0.69447100  0.39381400  1
  H  2641  1  0.85733200  0.63373000  0.30021400  1
  H  2642  1  0.72274500  0.53995900  0.37842600  1
  H  2643  1  0.72301400  0.63058900  0.49304000  1
  H  2644  1  0.89764800  0.71577300  0.41729700  1
  H  2693  1  0.01210520  0.21710800  0.13788300  1
  H  2694  1  0.03268520  0.19427900  0.13751100  1
  H  2695  1  0.94195700  0.19945700  0.12040100  1
  H  2696  1  0.96275300  0.17663100  0.12006900  1
  H  2697  1  0.02642620  0.18197600  0.10317000  1
  H  2698  1  0.05603520  0.16677200  0.08751000  1
  H  2699  1  0.03893920  0.14426000  0.12330600  1
  H  2700  1  0.03840520  0.12631800  0.14028200  1
  H  2701  1  0.98531700  0.17690300  0.15573100  1
  H  2702  1  0.98791000  0.15802600  0.17492800  1
  H  2703  1  0.04409820  0.14022200  0.18916000  1
  H  2704  1  0.03352320  0.13733000  0.21369600  1
  H  2705  1  0.97002700  0.12224600  0.17788600  1
  H  2706  1  0.95924800  0.11932300  0.20244600  1
  H  2707  1  0.02599120  0.10475400  0.17723500  1
  H  2708  1  0.04857520  0.08812300  0.15994400  1
  H  2709  1  0.09623520  0.11375700  0.09049400  1
  H  2710  1  0.09151320  0.09343200  0.10800500  1
  H  2711  1  0.03251220  0.07770300  0.12458500  1
  H  2712  1  0.04339620  0.05313600  0.12670100  1
  H  2713  1  0.10652300  0.08868200  0.14278000  1
  H  2714  1  0.11764500  0.06410600  0.14490900  1
  H  2715  1  0.11468500  0.15338400  0.09620300  1
  H  2716  1  0.14175600  0.15677200  0.07568300  1
  H  2717  1  0.08575620  0.13405800  0.05105800  1
  H  2718  1  0.05862020  0.13076800  0.07171100  1
  H  2723  1  0.10310300  0.03935300  0.14441600  1
  H  2724  1  0.97606900  0.11807500  0.22713900  1
  H  2725  1  0.97267000  0.23164400  0.13546100  1
  H  2726  1  0.14720000  0.15525800  0.05015200  1
  H  2775  1  0.51210300  0.28772800  0.88903100  1
  H  2776  1  0.53269600  0.31055300  0.88940600  1
  H  2777  1  0.44200500  0.30537600  0.90657500  1
  H  2778  1  0.46281300  0.32819800  0.90691100  1
  H  2779  1  0.52645400  0.32285700  0.92378200  1
  H  2780  1  0.55602900  0.33806900  0.93945100  1
  H  2781  1  0.53893900  0.36058000  0.90365400  1
  H  2782  1  0.53832500  0.37854100  0.88670000  1
  H  2783  1  0.48528500  0.32794700  0.87123400  1
  H  2784  1  0.48783900  0.34683800  0.85204800  1
  H  2785  1  0.54405900  0.36459200  0.83781800  1
  H  2786  1  0.53350100  0.36747500  0.81328100  1
  H  2787  1  0.47004500  0.38265100  0.84907400  1
  H  2788  1  0.45928500  0.38556300  0.82451000  1
  H  2789  1  0.52602800  0.40008600  0.84972300  1
  H  2790  1  0.54859600  0.41671800  0.86701700  1
  H  2791  1  0.59631100  0.39106900  0.93643800  1
  H  2792  1  0.59158700  0.41139300  0.91893200  1
  H  2793  1  0.53249300  0.42715500  0.90239400  1
  H  2794  1  0.54338700  0.45171900  0.90026800  1
  H  2795  1  0.60647600  0.41616000  0.88417500  1
  H  2796  1  0.61761000  0.44073300  0.88203500  1
  H  2797  1  0.61464300  0.35144800  0.93075300  1
  H  2798  1  0.64172900  0.34805500  0.95126600  1
  H  2799  1  0.58578400  0.37080200  0.97589900  1
  H  2800  1  0.55863700  0.37409700  0.95525300  1
  H  2805  1  0.60308900  0.46549200  0.88253500  1
  H  2806  1  0.47612900  0.38676500  0.79980400  1
  H  2807  1  0.47267900  0.27319300  0.89147800  1
  H  2808  1  0.64721100  0.34958500  0.97679200  1
  H  2857  1  0.56358100  0.62524400  0.54908500  1
  H  2858  1  0.54243600  0.62638200  0.57176000  1
  H  2859  1  0.63141200  0.64580000  0.56598500  1
  H  2860  1  0.61008200  0.64689000  0.58866900  1
  H  2861  1  0.54696300  0.66216300  0.58299600  1
  H  2862  1  0.51732000  0.67807300  0.59789900  1
  H  2863  1  0.53512800  0.64289600  0.62123600  1
  H  2864  1  0.53713900  0.62655800  0.63975700  1
  H  2865  1  0.59026900  0.61025900  0.58952400  1
  H  2866  1  0.58802900  0.59145800  0.60879500  1
  H  2867  1  0.53192600  0.57697400  0.62562000  1
  H  2868  1  0.54352400  0.55260300  0.62873700  1
  H  2869  1  0.60401600  0.58929600  0.64514200  1
  H  2870  1  0.61584500  0.56489900  0.64827600  1
  H  2871  1  0.54568100  0.58919300  0.66117800  1
  H  2872  1  0.52239600  0.60663000  0.67738800  1
  H  2873  1  0.47839200  0.67644000  0.65121300  1
  H  2874  1  0.48307500  0.65931700  0.67183800  1
  H  2875  1  0.54366800  0.63898600  0.68768500  1
  H  2876  1  0.53281600  0.63752300  0.71226200  1
  H  2877  1  0.46461900  0.62802700  0.67700100  1
  H  2878  1  0.45346200  0.62663500  0.70162600  1
  H  2879  1  0.45948800  0.66976300  0.61123900  1
  H  2880  1  0.43290500  0.69032900  0.60703300  1
  H  2881  1  0.48838900  0.71527100  0.62977100  1
  H  2882  1  0.51512600  0.69457600  0.63384500  1
  H  2887  1  0.46714500  0.62704100  0.72636600  1
  H  2888  1  0.60064900  0.53992000  0.64887100  1
  H  2889  1  0.60540200  0.62617900  0.53566900  1
  H  2890  1  0.43017000  0.71635900  0.60682800  1
  H  2939  1  0.06356620  0.87957000  0.47787100  1
  H  2940  1  0.04243120  0.87842600  0.45519400  1
  H  2941  1  0.13144200  0.85905500  0.46096600  1
  H  2942  1  0.11012000  0.85796300  0.43828200  1
  H  2943  1  0.04704420  0.84265000  0.44393400  1
  H  2944  1  0.01740720  0.82674100  0.42902800  1
  H  2945  1  0.03509220  0.86195900  0.40572700  1
  H  2946  1  0.03693720  0.87833400  0.38724600  1
  H  2947  1  0.09019120  0.89459600  0.43745800  1
  H  2948  1  0.08793220  0.91340600  0.41819700  1
  H  2949  1  0.03187220  0.92787600  0.40127900  1
  H  2950  1  0.04347420  0.95224700  0.39815900  1
  H  2951  1  0.10408900  0.91554800  0.38189000  1
  H  2952  1  0.11592100  0.93994400  0.37875100  1
  H  2953  1  0.04600020  0.91560400  0.36572600  1
  H  2954  1  0.02271420  0.89817400  0.34951200  1
  H  2955  1  0.97831000  0.82843400  0.37575100  1
  H  2956  1  0.98299600  0.84556500  0.35512600  1
  H  2957  1  0.04355820  0.86573300  0.33926000  1
  H  2958  1  0.03267920  0.86722800  0.31468800  1
  H  2959  1  0.96467600  0.87699900  0.34998200  1
  H  2960  1  0.95349700  0.87842600  0.32536400  1
  H  2961  1  0.95952700  0.83507500  0.41574500  1
  H  2962  1  0.93295200  0.81450700  0.41996300  1
  H  2963  1  0.98837300  0.78957700  0.39716500  1
  H  2964  1  0.01509920  0.81027300  0.39308100  1
  H  2969  1  0.96714600  0.87798100  0.30061900  1
  H  2970  1  0.10067900  0.96492200  0.37809300  1
  H  2971  1  0.10539100  0.87865400  0.49128900  1
  H  2972  1  0.93023100  0.78847300  0.42015900  1
  H  3021  1  0.81369500  0.28833800  0.14019100  1
  H  3022  1  0.79257600  0.31101600  0.13907100  1
  H  3023  1  0.88207300  0.30538700  0.12032200  1
  H  3024  1  0.86078100  0.32809600  0.11927200  1
  H  3025  1  0.79857900  0.32294500  0.10325900  1
  H  3026  1  0.76909900  0.33802100  0.08741900  1
  H  3027  1  0.78510100  0.36062100  0.12329800  1
  H  3028  1  0.78549300  0.37869000  0.14014000  1
  H  3029  1  0.83902200  0.32834800  0.15595800  1
  H  3030  1  0.83615900  0.34733000  0.17502300  1
  H  3031  1  0.77964900  0.36492700  0.18895700  1
  H  3032  1  0.79001500  0.36771300  0.21352400  1
  H  3033  1  0.85363200  0.38316500  0.17792800  1
  H  3034  1  0.86421200  0.38598000  0.20253400  1
  H  3035  1  0.79771500  0.40052000  0.17695700  1
  H  3036  1  0.77504200  0.41699200  0.15955300  1
  H  3037  1  0.72747800  0.39077100  0.09031300  1
  H  3038  1  0.73188700  0.41118600  0.10773400  1
  H  3039  1  0.79097800  0.42722300  0.12413500  1
  H  3040  1  0.78003100  0.45177600  0.12628500  1
  H  3041  1  0.71715100  0.41616900  0.14249900  1
  H  3042  1  0.70596600  0.44073200  0.14466200  1
  H  3043  1  0.71092800  0.35030500  0.09592900  1
  H  3044  1  0.68429700  0.34628800  0.07535600  1
  H  3045  1  0.73803500  0.37066100  0.05090300  1
  H  3046  1  0.76483700  0.37454300  0.07160800  1
  H  3051  1  0.72034500  0.46549500  0.14411100  1
  H  3052  1  0.84736100  0.38681800  0.22729400  1
  H  3053  1  0.85577100  0.27502900  0.13969600  1
  H  3054  1  0.68072900  0.34692200  0.04946200  1
  H  3103  1  0.31372800  0.21650700  0.88671200  1
  H  3104  1  0.29258500  0.19383700  0.88783400  1
  H  3105  1  0.38203800  0.19945600  0.90664200  1
  H  3106  1  0.36072200  0.17675400  0.90769600  1
  H  3107  1  0.29850200  0.18191600  0.92366800  1
  H  3108  1  0.26906200  0.16683100  0.93952000  1
  H  3109  1  0.28515000  0.14421100  0.90366300  1
  H  3110  1  0.28550900  0.12615200  0.88681000  1
  H  3111  1  0.33904600  0.17648900  0.87099300  1
  H  3112  1  0.33619900  0.15750400  0.85193000  1
  H  3113  1  0.27966600  0.13993500  0.83797300  1
  H  3114  1  0.29004000  0.13712100  0.81341000  1
  H  3115  1  0.35358900  0.12164500  0.84902600  1
  H  3116  1  0.36417600  0.11880200  0.82442400  1
  H  3117  1  0.29765400  0.10433700  0.84997600  1
  H  3118  1  0.27501200  0.08785900  0.86738600  1
  H  3119  1  0.22742600  0.11407900  0.93661600  1
  H  3120  1  0.23182100  0.09367200  0.91919000  1
  H  3121  1  0.29098200  0.07761400  0.90282900  1
  H  3122  1  0.28003800  0.05306300  0.90067500  1
  H  3123  1  0.21719000  0.08867200  0.88443200  1
  H  3124  1  0.20600600  0.06410900  0.88226400  1
  H  3125  1  0.21095300  0.15452900  0.93102300  1
  H  3126  1  0.18431600  0.15854900  0.95159400  1
  H  3127  1  0.23803800  0.13417400  0.97605200  1
  H  3128  1  0.26484600  0.13028800  0.95535000  1
  H  3133  1  0.22037200  0.03934400  0.88282900  1
  H  3134  1  0.34728800  0.11792700  0.79966300  1
  H  3135  1  0.35581400  0.22980100  0.88722300  1
  H  3136  1  0.18071500  0.15791200  0.97748100  1
  H  3142  1  0.90556600  0.26517300  0.42535600  1
  H  3144  1  0.91980100  0.23996300  0.38130100  1
  H  3158  1  0.40558600  0.23965100  0.60158300  1
  H  3160  1  0.41980200  0.26485600  0.64564200  1
  H  3174  1  0.15540500  0.84122600  0.02621600  1
  H  3176  1  0.16962700  0.88522200  0.00092100  1
  H  3190  1  0.65536800  0.66361200  0.00073900  1
  H  3192  1  0.66961900  0.61961600  0.02602900  1
  H  3206  1  0.41767500  0.73957500  0.60131700  1
  H  3208  1  0.40445400  0.76501100  0.64533200  1
  H  3222  1  0.91764000  0.76527300  0.42564300  1
  H  3224  1  0.90444600  0.73984000  0.38162300  1
  H  3238  1  0.16822000  0.16344600  0.00071400  1
  H  3240  1  0.15412500  0.11944900  0.02602900  1
  H  3254  1  0.66824600  0.34139300  0.02623000  1
  H  3256  1  0.65412400  0.38539000  0.00092400  1
  H  3270  1  0.39958200  0.76395700  0.92373400  1
  H  3272  1  0.42523600  0.74148300  0.87963500  1
  H  3286  1  0.89958200  0.74088500  0.10321900  1
  H  3288  1  0.92522400  0.76335700  0.14732000  1
  H  3302  1  0.64964300  0.34169600  0.52507100  1
  H  3304  1  0.67518500  0.38580800  0.50255000  1
  H  3318  1  0.14963200  0.16313000  0.50189500  1
  H  3320  1  0.17519800  0.11901800  0.52440600  1
  H  3334  1  0.92411300  0.24088100  0.10297200  1
  H  3336  1  0.89848100  0.26336600  0.14707200  1
  H  3350  1  0.42411600  0.26395800  0.92397600  1
  H  3352  1  0.39849600  0.24147500  0.87987500  1
  H  3366  1  0.67412800  0.66289200  0.50190400  1
  H  3368  1  0.64841900  0.61876500  0.52433600  1
  H  3382  1  0.17415800  0.84195300  0.52504100  1
  H  3384  1  0.14841000  0.88607900  0.50261900  1
  H  3398  1  0.00922823  0.15269500  0.27755800  1
  H  3400  1  0.98959100  0.11020700  0.25066200  1
  H  3414  1  0.51013600  0.35189300  0.74959800  1
  H  3416  1  0.48904500  0.39440300  0.77615200  1
  H  3430  1  0.26615500  0.98923900  0.91411100  1
  H  3432  1  0.22852700  0.01552600  0.87483700  1
  H  3446  1  0.76617900  0.51560300  0.11284700  1
  H  3448  1  0.72848200  0.48931300  0.15210300  1
  H  3462  1  0.81164400  0.35046300  0.27637100  1
  H  3464  1  0.83672400  0.39333900  0.25145700  1
  H  3478  1  0.31169000  0.15430300  0.75056500  1
  H  3480  1  0.33657000  0.11140000  0.77549300  1
  H  3494  1  0.55763400  0.51545900  0.91420300  1
  H  3496  1  0.59511900  0.48937200  0.87475600  1
  H  3510  1  0.05764220  0.98939200  0.11274300  1
  H  3512  1  0.09512320  0.01547300  0.15219400  1
  H  3526  1  0.31282400  0.85153400  0.74980200  1
  H  3528  1  0.33507700  0.89421000  0.77581200  1
  H  3542  1  0.81295700  0.65324900  0.27719000  1
  H  3544  1  0.83497300  0.61058200  0.25110600  1
  H  3558  1  0.51188600  0.65432400  0.75042300  1
  H  3560  1  0.48695800  0.61147400  0.77541300  1
  H  3574  1  0.01197320  0.85051700  0.27655800  1
  H  3576  1  0.98675000  0.89328500  0.25151600  1
  H  3590  1  0.75694900  0.48983000  0.41372900  1
  H  3592  1  0.73121900  0.51580200  0.37162400  1
  H  3606  1  0.25689800  0.01500300  0.61323400  1
  H  3608  1  0.23110100  0.98903100  0.65532600  1
  H  3622  1  0.06690120  0.01488600  0.41380000  1
  H  3624  1  0.09252720  0.98915000  0.37153500  1
  H  3638  1  0.56685800  0.48996100  0.61315200  1
  H  3640  1  0.59257200  0.51569000  0.65540600  1
  C  1  1  0.88221100  0.16058700  0.43334500  1
  C  2  1  0.86595000  0.16913300  0.42516100  1
  C  3  1  0.86175600  0.16241400  0.41214200  1
  C  5  1  0.88786800  0.14829200  0.42565000  1
  C  6  1  0.90294900  0.13658000  0.43079500  1
  C  7  1  0.90590500  0.12349400  0.42349100  1
  C  9  1  0.90186100  0.10644300  0.40708900  1
  C  10  1  0.91482200  0.10061900  0.41882400  1
  C  11  1  0.91787000  0.11121100  0.42879900  1
  C  12  1  0.89500300  0.09918100  0.39442200  1
  C  13  1  0.88349100  0.10563000  0.38224000  1
  C  15  1  0.86539600  0.12142400  0.36708500  1
  C  16  1  0.86729800  0.10837100  0.36014700  1
  C  17  1  0.87789500  0.09863800  0.36951800  1
  C  18  1  0.85373800  0.13386700  0.36122700  1
  C  19  1  0.84798900  0.14634300  0.36909600  1
  C  21  1  0.84418400  0.16173400  0.38711400  1
  C  22  1  0.83130400  0.16753400  0.37533100  1
  C  23  1  0.83432600  0.15824800  0.36413000  1
  C  24  1  0.84652800  0.16808600  0.40072400  1
  C  25  1  0.83123600  0.18059600  0.40329000  1
  C  26  1  0.83959500  0.19405600  0.39844600  1
  C  27  1  0.82334600  0.20608900  0.40045200  1
  C  28  1  0.79835400  0.20502100  0.40739400  1
  C  29  1  0.79036400  0.19150700  0.41237800  1
  C  30  1  0.80645300  0.17947300  0.41030000  1
  C  31  1  0.84690500  0.13369600  0.34654000  1
  C  32  1  0.86696100  0.13565100  0.33621500  1
  C  33  1  0.86054400  0.13573100  0.32169400  1
  C  34  1  0.83390300  0.13384900  0.31707600  1
  C  35  1  0.81391500  0.13182700  0.32748100  1
  C  36  1  0.82033400  0.13163800  0.34202000  1
  C  37  1  0.89680100  0.08410800  0.39461500  1
  C  38  1  0.87425500  0.07618500  0.39876900  1
  C  39  1  0.87530600  0.06131600  0.39925200  1
  C  40  1  0.89886600  0.05387600  0.39560800  1
  C  41  1  0.92140400  0.06191900  0.39139100  1
  C  42  1  0.92040400  0.07685200  0.39088500  1
  C  43  1  0.91448700  0.13754100  0.44459900  1
  C  44  1  0.90029000  0.13281300  0.45662600  1
  C  45  1  0.94106600  0.14216200  0.44634200  1
  C  46  1  0.95323200  0.14195500  0.45981000  1
  C  47  1  0.93927200  0.13705800  0.47193400  1
  C  48  1  0.91251800  0.13258500  0.47005900  1
  C  75  1  0.82707400  0.13462900  0.30281400  1
  C  76  1  0.89900600  0.03913500  0.39655700  1
  C  77  1  0.95112500  0.13601800  0.48529900  1
  C  78  1  0.78177800  0.21666800  0.40963600  1
  C  83  1  0.38235900  0.34419400  0.59365200  1
  C  84  1  0.36599500  0.33567800  0.60181000  1
  C  85  1  0.36181400  0.34239000  0.61483300  1
  C  87  1  0.38796100  0.35650200  0.60133500  1
  C  88  1  0.40296300  0.36823800  0.59617200  1
  C  89  1  0.40587200  0.38133400  0.60346200  1
  C  91  1  0.40172600  0.39840600  0.61983600  1
  C  92  1  0.41466100  0.40423200  0.60809400  1
  C  93  1  0.41771900  0.39363700  0.59812500  1
  C  94  1  0.39483800  0.40567700  0.63249400  1
  C  95  1  0.38339800  0.39921800  0.64469000  1
  C  97  1  0.36534500  0.38341500  0.65985300  1
  C  98  1  0.36733400  0.39645800  0.66680800  1
  C  99  1  0.37792200  0.40619300  0.65743600  1
  C  100  1  0.35370300  0.37097000  0.66571400  1
  C  101  1  0.34791000  0.35850000  0.65784700  1
  C  103  1  0.34416600  0.34308800  0.63984600  1
  C  104  1  0.33125600  0.33729800  0.65162800  1
  C  105  1  0.33415500  0.34662300  0.66280500  1
  C  106  1  0.34654400  0.33672800  0.62624300  1
  C  107  1  0.33124800  0.32422100  0.62367300  1
  C  108  1  0.33960100  0.31076100  0.62851700  1
  C  109  1  0.32335400  0.29872900  0.62650500  1
  C  110  1  0.29836600  0.29979800  0.61955900  1
  C  111  1  0.29038400  0.31331500  0.61457600  1
  C  112  1  0.30648000  0.32534700  0.61665100  1
  C  113  1  0.34680200  0.37116000  0.68038800  1
  C  114  1  0.36675600  0.36907300  0.69073900  1
  C  115  1  0.36028700  0.36913700  0.70525400  1
  C  116  1  0.33370000  0.37130800  0.70985700  1
  C  117  1  0.31382800  0.37343600  0.69940400  1
  C  118  1  0.32028200  0.37345600  0.68487100  1
  C  119  1  0.39668000  0.42074800  0.63231700  1
  C  120  1  0.37411800  0.42868700  0.62822100  1
  C  121  1  0.37519200  0.44355600  0.62775200  1
  C  122  1  0.39879700  0.45097900  0.63135100  1
  C  123  1  0.42134700  0.44292000  0.63551600  1
  C  124  1  0.42032300  0.42798600  0.63600600  1
  C  125  1  0.41449800  0.36727500  0.58236700  1
  C  126  1  0.40029600  0.37200300  0.57034000  1
  C  127  1  0.44108700  0.36266900  0.58062200  1
  C  128  1  0.45324900  0.36287500  0.56715300  1
  C  129  1  0.43927800  0.36776600  0.55502900  1
  C  130  1  0.41252400  0.37223600  0.55690700  1
  C  157  1  0.32676300  0.37086400  0.72414100  1
  C  158  1  0.39895700  0.46572200  0.63041700  1
  C  159  1  0.45112800  0.36880500  0.54166400  1
  C  160  1  0.28179500  0.28815200  0.61731100  1
  C  165  1  0.13116200  0.83266200  0.92099400  1
  C  166  1  0.11478500  0.84084800  0.92948400  1
  C  167  1  0.11071600  0.85388900  0.92278600  1
  C  169  1  0.13712900  0.84038200  0.90875800  1
  C  170  1  0.15271600  0.83528900  0.89719300  1
  C  171  1  0.15659900  0.84276600  0.88426400  1
  C  173  1  0.15436000  0.85949500  0.86740000  1
  C  174  1  0.16844500  0.84798900  0.86186900  1
  C  175  1  0.17011700  0.83776300  0.87231100  1
  C  176  1  0.14866200  0.87237200  0.86021100  1
  C  177  1  0.13594600  0.88433100  0.86646700  1
  C  179  1  0.11569200  0.89909200  0.88193000  1
  C  180  1  0.11935700  0.90635600  0.86916400  1
  C  181  1  0.13138100  0.89726400  0.85964500  1
  C  182  1  0.10288400  0.90476700  0.89414400  1
  C  183  1  0.09658000  0.89682400  0.90649300  1
  C  185  1  0.09278300  0.87884500  0.92195500  1
  C  186  1  0.07908200  0.89050900  0.92747100  1
  C  187  1  0.08187900  0.90165400  0.91809400  1
  C  188  1  0.09533200  0.86528900  0.92842400  1
  C  189  1  0.08020600  0.86279400  0.94104400  1
  C  190  1  0.08836700  0.86810100  0.95437200  1
  C  191  1  0.07226800  0.86622900  0.96649500  1
  C  192  1  0.04756600  0.85896500  0.96568700  1
  C  193  1  0.03975600  0.85354100  0.95230600  1
  C  194  1  0.05570000  0.85547500  0.94018000  1
  C  195  1  0.09542700  0.91937200  0.89384200  1
  C  196  1  0.11434200  0.92996000  0.89712600  1
  C  197  1  0.10747200  0.94441500  0.89637900  1
  C  198  1  0.08150400  0.94876600  0.89230900  1
  C  199  1  0.06270400  0.93802700  0.88902900  1
  C  200  1  0.06952300  0.92355800  0.88975400  1
  C  201  1  0.15595800  0.87333100  0.84562800  1
  C  202  1  0.13816900  0.86863200  0.83502000  1
  C  203  1  0.14445400  0.87034700  0.82057700  1
  C  204  1  0.16865300  0.87684200  0.81631500  1
  C  205  1  0.18643500  0.88142900  0.82704400  1
  C  206  1  0.18023700  0.87968000  0.84150100  1
  C  207  1  0.16424400  0.82145400  0.89820100  1
  C  208  1  0.15050300  0.80951100  0.89290900  1
  C  209  1  0.19048100  0.81960200  0.90332700  1
  C  210  1  0.20273600  0.80614300  0.90306000  1
  C  211  1  0.18922500  0.79410700  0.89761600  1
  C  212  1  0.16280900  0.79609100  0.89263500  1
  C  239  1  0.07418900  0.96303100  0.89134600  1
  C  240  1  0.17460300  0.87937700  0.80211200  1
  C  241  1  0.20117900  0.78074700  0.89651600  1
  C  242  1  0.03112700  0.85681000  0.97744100  1
  C  247  1  0.63118800  0.67217200  0.10593900  1
  C  248  1  0.61483300  0.66398100  0.09744300  1
  C  249  1  0.61075500  0.65094300  0.10414500  1
  C  251  1  0.63712600  0.66446000  0.11818400  1
  C  252  1  0.65265900  0.66956800  0.12976200  1
  C  253  1  0.65652100  0.66209600  0.14269600  1
  C  255  1  0.65430800  0.64536000  0.15955400  1
  C  256  1  0.66837600  0.65687100  0.16508800  1
  C  257  1  0.67003200  0.66709900  0.15465000  1
  C  258  1  0.64863000  0.63247700  0.16673900  1
  C  259  1  0.63594000  0.62051300  0.16047900  1
  C  261  1  0.61572600  0.60574600  0.14500900  1
  C  262  1  0.61937200  0.59848500  0.15777800  1
  C  263  1  0.63138300  0.60758000  0.16729900  1
  C  264  1  0.60290800  0.60007100  0.13279800  1
  C  265  1  0.59663300  0.60800700  0.12044100  1
  C  267  1  0.59280500  0.62599100  0.10498500  1
  C  268  1  0.57905000  0.61433600  0.09948800  1
  C  269  1  0.58190500  0.60317900  0.10884700  1
  C  270  1  0.59535700  0.63954600  0.09851300  1
  C  271  1  0.58022100  0.64204000  0.08589700  1
  C  272  1  0.58835400  0.63671800  0.07257100  1
  C  273  1  0.57224500  0.63858900  0.06045200  1
  C  274  1  0.54756200  0.64587200  0.06126200  1
  C  275  1  0.53977900  0.65131200  0.07464200  1
  C  276  1  0.55573100  0.64937600  0.08676400  1
  C  277  1  0.59544300  0.58546700  0.13310200  1
  C  278  1  0.61433700  0.57487800  0.12978700  1
  C  279  1  0.60746100  0.56042300  0.13054000  1
  C  280  1  0.58151000  0.55607600  0.13464200  1
  C  281  1  0.56273200  0.56681600  0.13795100  1
  C  282  1  0.56955800  0.58128400  0.13722700  1
  C  283  1  0.65593400  0.63151800  0.18132300  1
  C  284  1  0.63816500  0.63623300  0.19193200  1
  C  285  1  0.64444800  0.63450900  0.20637500  1
  C  286  1  0.66863500  0.62800100  0.21063300  1
  C  287  1  0.68640500  0.62340300  0.19989900  1
  C  288  1  0.68021300  0.62516500  0.18544400  1
  C  289  1  0.66419700  0.68340000  0.12875100  1
  C  290  1  0.65047000  0.69534400  0.13405100  1
  C  291  1  0.69042700  0.68524900  0.12361200  1
  C  292  1  0.70268300  0.69870800  0.12386800  1
  C  293  1  0.68919700  0.71074100  0.12933500  1
  C  294  1  0.66279000  0.70876100  0.13433200  1
  C  321  1  0.57418600  0.54181100  0.13560100  1
  C  322  1  0.67458300  0.62545700  0.22483400  1
  C  323  1  0.70116200  0.72410000  0.13043900  1
  C  324  1  0.53111700  0.64803100  0.04951000  1
  C  329  1  0.62100700  0.34418500  0.43326500  1
  C  330  1  0.63717600  0.33553000  0.42514600  1
  C  331  1  0.64193600  0.34227200  0.41219200  1
  C  333  1  0.61590400  0.35655400  0.42558400  1
  C  334  1  0.60112800  0.36838800  0.43070500  1
  C  335  1  0.59846900  0.38148000  0.42337400  1
  C  337  1  0.60281900  0.39846000  0.40692300  1
  C  338  1  0.58990900  0.40438200  0.41862400  1
  C  339  1  0.58665700  0.39383300  0.42862300  1
  C  340  1  0.60976000  0.40564400  0.39422800  1
  C  341  1  0.62120800  0.39909000  0.38208800  1
  C  343  1  0.63932700  0.38318000  0.36706700  1
  C  344  1  0.63726400  0.39616300  0.36000100  1
  C  345  1  0.62666200  0.40596900  0.36929200  1
  C  346  1  0.65111600  0.37071100  0.36133400  1
  C  347  1  0.65681800  0.35827400  0.36925900  1
  C  349  1  0.66023400  0.34290000  0.38731000  1
  C  350  1  0.67378400  0.33721100  0.37568200  1
  C  351  1  0.67102900  0.34649000  0.36445100  1
  C  352  1  0.65745700  0.33655200  0.40089900  1
  C  353  1  0.67264600  0.32403200  0.40363700  1
  C  354  1  0.66498900  0.31062800  0.39831300  1
  C  355  1  0.68100200  0.29857600  0.40071600  1
  C  356  1  0.70498200  0.29957800  0.40859600  1
  C  357  1  0.71232200  0.31302100  0.41401900  1
  C  358  1  0.69651700  0.32507500  0.41150800  1
  C  359  1  0.65838200  0.37090000  0.34672000  1
  C  360  1  0.63880700  0.36855800  0.33622800  1
  C  361  1  0.64538300  0.36941600  0.32175400  1
  C  362  1  0.67170100  0.37265100  0.31730600  1
  C  363  1  0.69120300  0.37492000  0.32794200  1
  C  364  1  0.68467200  0.37409600  0.34244000  1
  C  365  1  0.60805500  0.42072200  0.39432600  1
  C  366  1  0.63070500  0.42863400  0.39834000  1
  C  367  1  0.62970000  0.44350700  0.39881400  1
  C  368  1  0.60608200  0.45095800  0.39530300  1
  C  369  1  0.58345000  0.44292700  0.39120800  1
  C  370  1  0.58440500  0.42799200  0.39071100  1
  C  371  1  0.58959600  0.36755700  0.44452300  1
  C  372  1  0.60337700  0.37297500  0.45640000  1
  C  373  1  0.56325000  0.36259300  0.44635700  1
  C  374  1  0.55083100  0.36321800  0.45975100  1
  C  375  1  0.56432100  0.36892300  0.47165700  1
  C  376  1  0.59087400  0.37367400  0.46974200  1
  C  403  1  0.67858000  0.37395500  0.30302700  1
  C  404  1  0.60595800  0.46569700  0.39629100  1
  C  405  1  0.55190900  0.37073900  0.48475300  1
  C  406  1  0.72107700  0.28789900  0.41142400  1
  C  411  1  0.12085400  0.16068100  0.59373000  1
  C  412  1  0.13712300  0.16930900  0.60181900  1
  C  413  1  0.14188500  0.16257100  0.61477500  1
  C  415  1  0.11580800  0.14829700  0.60139900  1
  C  416  1  0.10111600  0.13644100  0.59626200  1
  C  417  1  0.09849100  0.12334400  0.60358500  1
  C  419  1  0.10289600  0.10635600  0.62002700  1
  C  420  1  0.09000300  0.10043000  0.60832300  1
  C  421  1  0.08677100  0.11097500  0.59831900  1
  C  422  1  0.10985000  0.09917000  0.63272000  1
  C  423  1  0.12128300  0.10572800  0.64486100  1
  C  425  1  0.13938500  0.12164500  0.65988200  1
  C  426  1  0.13729200  0.10866700  0.66695600  1
  C  427  1  0.12668000  0.09886000  0.65767000  1
  C  428  1  0.15113900  0.13412100  0.66562100  1
  C  429  1  0.15688300  0.14654600  0.65768700  1
  C  431  1  0.16025500  0.16192900  0.63964000  1
  C  432  1  0.17376800  0.16763100  0.65127300  1
  C  433  1  0.17111200  0.15832700  0.66248800  1
  C  434  1  0.15745300  0.16828000  0.62605400  1
  C  435  1  0.17263900  0.18079800  0.62331200  1
  C  436  1  0.16497300  0.19420400  0.62862700  1
  C  437  1  0.18098300  0.20625600  0.62621700  1
  C  438  1  0.20496600  0.20525100  0.61834100  1
  C  439  1  0.21231200  0.19180700  0.61292400  1
  C  440  1  0.19650600  0.17975400  0.61543700  1
  C  441  1  0.15839200  0.13393800  0.68023600  1
  C  442  1  0.13879900  0.13627200  0.69072000  1
  C  443  1  0.14536300  0.13544100  0.70519700  1
  C  444  1  0.17168900  0.13223500  0.70965800  1
  C  445  1  0.19121300  0.12998300  0.69902700  1
  C  446  1  0.18469000  0.13077500  0.68452700  1
  C  447  1  0.10811000  0.08409400  0.63263500  1
  C  448  1  0.13075600  0.07616600  0.62864700  1
  C  449  1  0.12972500  0.06129500  0.62818500  1
  C  450  1  0.10608100  0.05385900  0.63168000  1
  C  451  1  0.08345500  0.06190500  0.63575500  1
  C  452  1  0.08443500  0.07684000  0.63623800  1
  C  453  1  0.08959000  0.13727000  0.58244300  1
  C  454  1  0.10336600  0.13184600  0.57056600  1
  C  455  1  0.06323900  0.14222700  0.58060500  1
  C  456  1  0.05082700  0.14160600  0.56721000  1
  C  457  1  0.06432000  0.13590300  0.55530400  1
  C  458  1  0.09086600  0.13114300  0.55722300  1
  C  485  1  0.17856700  0.13097400  0.72394000  1
  C  486  1  0.10593700  0.03911900  0.63070900  1
  C  487  1  0.05192100  0.13409200  0.54220500  1
  C  488  1  0.22105400  0.21693100  0.61550500  1
  C  493  1  0.37247500  0.67211400  0.92096500  1
  C  494  1  0.38877400  0.66399000  0.92955400  1
  C  495  1  0.39318200  0.65096200  0.92288700  1
  C  497  1  0.36681800  0.66435300  0.90871600  1
  C  498  1  0.35141600  0.66939300  0.89706000  1
  C  499  1  0.34770700  0.66183800  0.88415800  1
  C  501  1  0.35016800  0.64501600  0.86739700  1
  C  502  1  0.33600300  0.65645100  0.86177900  1
  C  503  1  0.33417700  0.66666667  0.87216000  1
  C  504  1  0.35599500  0.63211300  0.86028700  1
  C  505  1  0.36874000  0.62021100  0.86662500  1
  C  507  1  0.38902700  0.60558300  0.88219500  1
  C  508  1  0.38543700  0.59823300  0.86947000  1
  C  509  1  0.37339600  0.60724700  0.85988500  1
  C  510  1  0.40186900  0.60001200  0.89444500  1
  C  511  1  0.40806300  0.60803900  0.90675600  1
  C  513  1  0.41155100  0.62609100  0.92216100  1
  C  514  1  0.42554700  0.61452800  0.92768300  1
  C  515  1  0.42292400  0.60333400  0.91834900  1
  C  516  1  0.40872700  0.63965300  0.92859400  1
  C  517  1  0.42376100  0.64228800  0.94122400  1
  C  518  1  0.41611200  0.63666900  0.95451500  1
  C  519  1  0.43200200  0.63887600  0.96666400  1
  C  520  1  0.45590800  0.64684900  0.96590800  1
  C  521  1  0.46325200  0.65255500  0.95257500  1
  C  522  1  0.44756700  0.65024700  0.94042400  1
  C  523  1  0.40943000  0.58542100  0.89422200  1
  C  524  1  0.39057200  0.57482100  0.89755900  1
  C  525  1  0.39746300  0.56037100  0.89678300  1
  C  526  1  0.42339100  0.55603700  0.89262600  1
  C  527  1  0.44214100  0.56678700  0.88930600  1
  C  528  1  0.43530100  0.58125300  0.89005900  1
  C  529  1  0.34888500  0.63109200  0.84568400  1
  C  530  1  0.36670600  0.63588500  0.83513500  1
  C  531  1  0.36050900  0.63425100  0.82067500  1
  C  532  1  0.33636200  0.62775300  0.81633800  1
  C  533  1  0.31857600  0.62303500  0.82701100  1
  C  534  1  0.32468800  0.62470200  0.84148800  1
  C  535  1  0.33991200  0.68324900  0.89792000  1
  C  536  1  0.35304500  0.69499200  0.89179500  1
  C  537  1  0.31406500  0.68523900  0.90354400  1
  C  538  1  0.30151400  0.69860900  0.90286600  1
  C  539  1  0.31434800  0.71037700  0.89647900  1
  C  540  1  0.34041800  0.70830800  0.89106500  1
  C  567  1  0.43069700  0.54177400  0.89159900  1
  C  568  1  0.33036900  0.62544600  0.80210400  1
  C  569  1  0.30173300  0.72344000  0.89459700  1
  C  570  1  0.47190000  0.64952500  0.97770300  1
  C  575  1  0.87246100  0.83272900  0.10597200  1
  C  576  1  0.88874800  0.84085600  0.09737900  1
  C  577  1  0.89314300  0.85388700  0.10404300  1
  C  579  1  0.86681100  0.84048700  0.11822400  1
  C  580  1  0.85145000  0.83543700  0.12989100  1
  C  581  1  0.84775600  0.84299000  0.14279500  1
  C  583  1  0.85020800  0.85981700  0.15955100  1
  C  584  1  0.83605000  0.84838000  0.16517300  1
  C  585  1  0.83422400  0.83810500  0.15479300  1
  C  586  1  0.85603300  0.87272200  0.16665800  1
  C  587  1  0.86874900  0.88463000  0.16031400  1
  C  589  1  0.88898100  0.89926800  0.14473400  1
  C  590  1  0.88542800  0.90661100  0.15746700  1
  C  591  1  0.87341000  0.89759300  0.16705600  1
  C  592  1  0.90182300  0.90483800  0.13248300  1
  C  593  1  0.90798600  0.89681800  0.12016400  1
  C  595  1  0.91151100  0.87875900  0.10476900  1
  C  596  1  0.92555300  0.89031300  0.09926200  1
  C  597  1  0.92286600  0.90152100  0.10857500  1
  C  598  1  0.90869400  0.86519600  0.09834000  1
  C  599  1  0.92374300  0.86255800  0.08571400  1
  C  600  1  0.91610800  0.86817900  0.07242100  1
  C  601  1  0.93200400  0.86596800  0.06027600  1
  C  602  1  0.95590300  0.85799000  0.06103600  1
  C  603  1  0.96323500  0.85228200  0.07437100  1
  C  604  1  0.94754300  0.85459500  0.08651900  1
  C  605  1  0.90939600  0.91942700  0.13270800  1
  C  606  1  0.89055600  0.93003200  0.12935700  1
  C  607  1  0.89745300  0.94448100  0.13014100  1
  C  608  1  0.92337200  0.94880900  0.13431700  1
  C  609  1  0.94210700  0.93805600  0.13765000  1
  C  610  1  0.93525700  0.92359100  0.13689500  1
  C  611  1  0.84892600  0.87374100  0.18126200  1
  C  612  1  0.86673000  0.86892000  0.19180700  1
  C  613  1  0.86052600  0.87054000  0.20626900  1
  C  614  1  0.83638300  0.87703800  0.21061000  1
  C  615  1  0.81861500  0.88178100  0.19994100  1
  C  616  1  0.82472900  0.88012700  0.18546300  1
  C  617  1  0.83993700  0.82158400  0.12903000  1
  C  618  1  0.85305400  0.80984000  0.13516400  1
  C  619  1  0.81409600  0.81959500  0.12339700  1
  C  620  1  0.80154500  0.80622400  0.12406100  1
  C  621  1  0.81434700  0.79446300  0.13047900  1
  C  622  1  0.84040800  0.79653100  0.13590700  1
  C  649  1  0.93068800  0.96307100  0.13534700  1
  C  650  1  0.83036900  0.87932400  0.22484600  1
  C  651  1  0.80171700  0.78140500  0.13236900  1
  C  652  1  0.97188900  0.85530300  0.04924000  1
  C  657  1  0.12476200  0.84500000  0.59304200  1
  C  658  1  0.14121000  0.83651300  0.60117800  1
  C  659  1  0.14483700  0.84304800  0.61433900  1
  C  661  1  0.11827600  0.85704600  0.60094100  1
  C  662  1  0.10230800  0.86851500  0.59600600  1
  C  663  1  0.09782100  0.88127600  0.60365700  1
  C  665  1  0.09935200  0.89790900  0.62060200  1
  C  666  1  0.08484600  0.90339500  0.60922100  1
  C  667  1  0.08361800  0.89308300  0.59885400  1
  C  668  1  0.10497700  0.90501000  0.63352600  1
  C  669  1  0.11826400  0.89882200  0.64533500  1
  C  671  1  0.13906100  0.88341100  0.65990800  1
  C  672  1  0.13574900  0.89620700  0.66716600  1
  C  673  1  0.12334800  0.90569200  0.65818800  1
  C  674  1  0.15185200  0.87117200  0.66552400  1
  C  675  1  0.15818800  0.85887600  0.65751500  1
  C  677  1  0.16231000  0.84363800  0.63939400  1
  C  678  1  0.17553600  0.83789700  0.65110300  1
  C  679  1  0.17243000  0.84711300  0.66235200  1
  C  680  1  0.16005800  0.83734900  0.62575100  1
  C  681  1  0.17521100  0.82478200  0.62320900  1
  C  682  1  0.16653800  0.81136800  0.62802400  1
  C  683  1  0.18256800  0.79924500  0.62607200  1
  C  684  1  0.20766500  0.80017200  0.61922000  1
  C  685  1  0.21598800  0.81364600  0.61427700  1
  C  686  1  0.20011400  0.82577400  0.61630100  1
  C  687  1  0.15881400  0.87129100  0.68019200  1
  C  688  1  0.13904200  0.86881000  0.69055200  1
  C  689  1  0.14546800  0.86914200  0.70506800  1
  C  690  1  0.17183400  0.87198600  0.70969200  1
  C  691  1  0.19153600  0.87442400  0.69920300  1
  C  692  1  0.18513300  0.87415700  0.68466500  1
  C  693  1  0.09705900  0.91947100  0.63466600  1
  C  694  1  0.11421800  0.93033300  0.62989600  1
  C  695  1  0.10725000  0.94466500  0.63172600  1
  C  696  1  0.08296900  0.94854300  0.63837600  1
  C  697  1  0.06582900  0.93755300  0.64303300  1
  C  698  1  0.07272500  0.92320400  0.64119000  1
  C  699  1  0.09081800  0.86754300  0.58218800  1
  C  700  1  0.10443800  0.87301600  0.57029200  1
  C  701  1  0.06475000  0.86219500  0.58033300  1
  C  702  1  0.05251200  0.86241900  0.56688400  1
  C  703  1  0.06588300  0.86804700  0.55488700  1
  C  704  1  0.09214800  0.87323800  0.55687400  1
  C  731  1  0.17874700  0.87218300  0.72401400  1
  C  732  1  0.07629100  0.96263900  0.64093400  1
  C  733  1  0.05391000  0.86907400  0.54154700  1
  C  734  1  0.22399200  0.78841800  0.61700900  1
  C  739  1  0.62470500  0.65985900  0.43388800  1
  C  740  1  0.64123700  0.66832000  0.42577000  1
  C  741  1  0.64481700  0.66180000  0.41259800  1
  C  743  1  0.61822400  0.64781200  0.42598800  1
  C  744  1  0.60226800  0.63633900  0.43092700  1
  C  745  1  0.59780100  0.62357400  0.42328000  1
  C  747  1  0.59938800  0.60692700  0.40634800  1
  C  748  1  0.58489700  0.60143700  0.41773300  1
  C  749  1  0.58365900  0.61175100  0.42809800  1
  C  750  1  0.60501900  0.59982500  0.39342400  1
  C  751  1  0.61827600  0.60601700  0.38160700  1
  C  753  1  0.63906600  0.62142900  0.36703200  1
  C  754  1  0.63567300  0.60864900  0.35975900  1
  C  755  1  0.62327900  0.59916100  0.36873800  1
  C  756  1  0.65187000  0.63366600  0.36141800  1
  C  757  1  0.65822700  0.64595800  0.36943100  1
  C  759  1  0.66230200  0.66121000  0.38754300  1
  C  760  1  0.67549600  0.66696000  0.37583000  1
  C  761  1  0.67248600  0.65771500  0.36459600  1
  C  762  1  0.66003700  0.66750100  0.40118500  1
  C  763  1  0.67519500  0.68006500  0.40372800  1
  C  764  1  0.66651200  0.69348300  0.39892700  1
  C  765  1  0.68254100  0.70560600  0.40088100  1
  C  766  1  0.70764500  0.70467500  0.40772500  1
  C  767  1  0.71597800  0.69119800  0.41265600  1
  C  768  1  0.70010000  0.67907200  0.41063400  1
  C  769  1  0.65881300  0.63355500  0.34674700  1
  C  770  1  0.63903200  0.63605000  0.33639500  1
  C  771  1  0.64545100  0.63575400  0.32187800  1
  C  772  1  0.67181800  0.63293400  0.31724500  1
  C  773  1  0.69153200  0.63048000  0.32772200  1
  C  774  1  0.68513300  0.63070500  0.34226200  1
  C  775  1  0.59710900  0.58536200  0.39228600  1
  C  776  1  0.61430700  0.57450300  0.39702100  1
  C  777  1  0.60734400  0.56017000  0.39519300  1
  C  778  1  0.58302700  0.55628900  0.38858300  1
  C  779  1  0.56584800  0.56727600  0.38396300  1
  C  780  1  0.57273500  0.58162700  0.38580700  1
  C  781  1  0.59078400  0.63731000  0.44474500  1
  C  782  1  0.60441100  0.63184300  0.45664300  1
  C  783  1  0.56470100  0.64263700  0.44660300  1
  C  784  1  0.55247000  0.64241600  0.46005500  1
  C  785  1  0.56585600  0.63680100  0.47205200  1
  C  786  1  0.59212600  0.63161700  0.47006200  1
  C  813  1  0.67872800  0.63281600  0.30292400  1
  C  814  1  0.57635100  0.54219200  0.38602700  1
  C  815  1  0.55389100  0.63577400  0.48539500  1
  C  816  1  0.72396800  0.71643000  0.40994200  1
  C  821  1  0.87306100  0.17193900  0.10564700  1
  C  822  1  0.88944300  0.16371800  0.09719400  1
  C  823  1  0.89375700  0.15076700  0.10402200  1
  C  825  1  0.86732400  0.16433200  0.11798500  1
  C  826  1  0.85187400  0.16951600  0.12956100  1
  C  827  1  0.84808700  0.16212900  0.14255000  1
  C  829  1  0.85028400  0.14547200  0.15948400  1
  C  830  1  0.83649900  0.15707800  0.16502300  1
  C  831  1  0.83484400  0.16725800  0.15453800  1
  C  832  1  0.85574400  0.13257500  0.16668600  1
  C  833  1  0.86819300  0.12053800  0.16043300  1
  C  835  1  0.88851400  0.10572900  0.14503900  1
  C  836  1  0.88394700  0.09835600  0.15766200  1
  C  837  1  0.87192300  0.10747900  0.16715000  1
  C  838  1  0.90165100  0.10006000  0.13291800  1
  C  839  1  0.90818600  0.10797700  0.12059200  1
  C  841  1  0.91203300  0.12588700  0.10505900  1
  C  842  1  0.92621300  0.11428800  0.09974500  1
  C  843  1  0.92342800  0.10318400  0.10917500  1
  C  844  1  0.90933800  0.13938900  0.09849300  1
  C  845  1  0.92449600  0.14185700  0.08588100  1
  C  846  1  0.91656200  0.13634800  0.07259800  1
  C  847  1  0.93267000  0.13822600  0.06048000  1
  C  848  1  0.95715900  0.14569600  0.06124900  1
  C  849  1  0.96474400  0.15131500  0.07458700  1
  C  850  1  0.94878900  0.14938000  0.08670700  1
  C  851  1  0.90918500  0.08547200  0.13329900  1
  C  852  1  0.89121900  0.07492500  0.12865600  1
  C  853  1  0.89771800  0.06045400  0.12991300  1
  C  854  1  0.92231700  0.05607500  0.13589400  1
  C  855  1  0.94026500  0.06676500  0.14041800  1
  C  856  1  0.93385200  0.08124700  0.13913800  1
  C  857  1  0.84842200  0.13166100  0.18126700  1
  C  858  1  0.86649200  0.13603800  0.19187800  1
  C  859  1  0.86016900  0.13435100  0.20631900  1
  C  860  1  0.83565300  0.12820000  0.21057200  1
  C  861  1  0.81759300  0.12393500  0.19984100  1
  C  862  1  0.82382400  0.12566500  0.18538500  1
  C  863  1  0.84037600  0.18335300  0.12849900  1
  C  864  1  0.85427200  0.19532800  0.13360000  1
  C  865  1  0.81401000  0.18517800  0.12354900  1
  C  866  1  0.80178600  0.19864400  0.12380500  1
  C  867  1  0.81545600  0.21071200  0.12906300  1
  C  868  1  0.84199500  0.20875600  0.13386500  1
  C  895  1  0.92868700  0.04181200  0.13793600  1
  C  896  1  0.82967500  0.12563800  0.22476300  1
  C  897  1  0.80353300  0.22408000  0.13016900  1
  C  898  1  0.97360900  0.14785500  0.04949800  1
  C  903  1  0.37307500  0.33289700  0.92131000  1
  C  904  1  0.38942200  0.34112700  0.92977200  1
  C  905  1  0.39373600  0.35407800  0.92294400  1
  C  907  1  0.36734000  0.34050400  0.90897200  1
  C  908  1  0.35191900  0.33531300  0.89738900  1
  C  909  1  0.34813300  0.34270100  0.88440100  1
  C  911  1  0.35028000  0.35937200  0.86747900  1
  C  912  1  0.33650300  0.34776500  0.86193800  1
  C  913  1  0.33487700  0.33757700  0.87241600  1
  C  914  1  0.35572400  0.37227500  0.86028400  1
  C  915  1  0.36816900  0.38431100  0.86653700  1
  C  917  1  0.38846500  0.39912400  0.88193600  1
  C  918  1  0.38394600  0.40649000  0.86930300  1
  C  919  1  0.37192700  0.39736700  0.85981500  1
  C  920  1  0.40160600  0.40479300  0.89405600  1
  C  921  1  0.40811100  0.39688100  0.90638900  1
  C  923  1  0.41199800  0.37896300  0.92191000  1
  C  924  1  0.42621300  0.39055400  0.92721100  1
  C  925  1  0.42336500  0.40167100  0.91780200  1
  C  926  1  0.40931100  0.36545800  0.92847300  1
  C  927  1  0.42447900  0.36298900  0.94108100  1
  C  928  1  0.41656500  0.36850600  0.95436400  1
  C  929  1  0.43268400  0.36662700  0.96647700  1
  C  930  1  0.45716200  0.35914700  0.96570400  1
  C  931  1  0.46472700  0.35351900  0.95236500  1
  C  932  1  0.44876100  0.35545600  0.94024900  1
  C  933  1  0.40915300  0.41937800  0.89367200  1
  C  934  1  0.39120400  0.42993000  0.89832500  1
  C  935  1  0.39770100  0.44439800  0.89705000  1
  C  936  1  0.42229200  0.44877300  0.89105700  1
  C  937  1  0.44023100  0.43807900  0.88653000  1
  C  938  1  0.43380800  0.42359800  0.88781400  1
  C  939  1  0.34840400  0.37319000  0.84570100  1
  C  940  1  0.36646100  0.36878200  0.83509600  1
  C  941  1  0.36015600  0.37047400  0.82065500  1
  C  942  1  0.33566400  0.37664600  0.81639500  1
  C  943  1  0.31761500  0.38094000  0.82712100  1
  C  944  1  0.32382900  0.37920600  0.84157800  1
  C  945  1  0.34041400  0.32147700  0.89845200  1
  C  946  1  0.35429900  0.30950200  0.89333900  1
  C  947  1  0.31405900  0.31965100  0.90341400  1
  C  948  1  0.30183500  0.30618500  0.90317200  1
  C  949  1  0.31548000  0.29412100  0.89788600  1
  C  950  1  0.34200900  0.29607800  0.89306600  1
  C  977  1  0.42867300  0.46303400  0.88901600  1
  C  978  1  0.32969400  0.37919000  0.80220000  1
  C  979  1  0.30354900  0.28075600  0.89677700  1
  C  980  1  0.47361600  0.35698500  0.97745100  1
  C  985  1  0.38146800  0.65989600  0.59309700  1
  C  986  1  0.36511000  0.66849200  0.60117000  1
  C  987  1  0.36096100  0.66193700  0.61427900  1
  C  989  1  0.38744400  0.64777700  0.60099600  1
  C  990  1  0.40312100  0.63618300  0.59609300  1
  C  991  1  0.40731700  0.62341500  0.60378300  1
  C  993  1  0.40548300  0.60685300  0.62078700  1
  C  994  1  0.41995600  0.60126000  0.60944800  1
  C  995  1  0.42138100  0.61152900  0.59904800  1
  C  996  1  0.39975800  0.59983100  0.63374300  1
  C  997  1  0.38653100  0.60613000  0.64551000  1
  C  999  1  0.36573700  0.62166000  0.65995300  1
  C  1000  1  0.36912000  0.60893200  0.66732600  1
  C  1001  1  0.38151000  0.59937100  0.65842600  1
  C  1002  1  0.35285600  0.63392800  0.66545000  1
  C  1003  1  0.34659000  0.64618600  0.65737300  1
  C  1005  1  0.34283600  0.66139900  0.63920700  1
  C  1006  1  0.32905600  0.66705800  0.65077400  1
  C  1007  1  0.33192800  0.65785900  0.66206000  1
  C  1008  1  0.34548000  0.66768300  0.62557700  1
  C  1009  1  0.33040100  0.68025200  0.62287200  1
  C  1010  1  0.33836900  0.69362200  0.62815500  1
  C  1011  1  0.32252700  0.70575100  0.62582200  1
  C  1012  1  0.29839800  0.70486800  0.61806000  1
  C  1013  1  0.29073900  0.69145500  0.61268200  1
  C  1014  1  0.30637600  0.67932100  0.61512200  1
  C  1015  1  0.34558700  0.63382200  0.68007000  1
  C  1016  1  0.36503800  0.63654300  0.69053800  1
  C  1017  1  0.35855500  0.63565400  0.70502500  1
  C  1018  1  0.33244700  0.63201600  0.70951000  1
  C  1019  1  0.31305400  0.62938700  0.69889800  1
  C  1020  1  0.31949900  0.63023600  0.68438900  1
  C  1021  1  0.40756000  0.58535900  0.63496500  1
  C  1022  1  0.39035700  0.57451100  0.63021000  1
  C  1023  1  0.39727800  0.56017300  0.63204600  1
  C  1024  1  0.42155900  0.55627700  0.63868600  1
  C  1025  1  0.43872800  0.56725200  0.64334300  1
  C  1026  1  0.43188100  0.58160700  0.64149100  1
  C  1027  1  0.41458500  0.63700300  0.58225600  1
  C  1028  1  0.40143200  0.63083600  0.57054700  1
  C  1029  1  0.44039300  0.64266500  0.58027600  1
  C  1030  1  0.45290400  0.64200000  0.56690800  1
  C  1031  1  0.44006000  0.63557000  0.55516700  1
  C  1032  1  0.41401900  0.63012400  0.55722800  1
  C  1059  1  0.32569700  0.63064400  0.72380100  1
  C  1060  1  0.42822300  0.54217600  0.64121400  1
  C  1061  1  0.45264700  0.63374400  0.54211000  1
  C  1062  1  0.28246200  0.71663400  0.61530700  1
  C  1067  1  0.88160100  0.84490300  0.43382000  1
  C  1068  1  0.86516900  0.83633000  0.42576500  1
  C  1069  1  0.86100400  0.84289300  0.41266200  1
  C  1071  1  0.88751800  0.85704100  0.42593900  1
  C  1072  1  0.90314400  0.86865000  0.43085700  1
  C  1073  1  0.90731500  0.88142600  0.42317700  1
  C  1075  1  0.90546300  0.89799800  0.40618100  1
  C  1076  1  0.91988500  0.90359800  0.41753400  1
  C  1077  1  0.92130100  0.89332800  0.42793500  1
  C  1078  1  0.89976500  0.90501700  0.39322300  1
  C  1079  1  0.88658100  0.89871500  0.38144500  1
  C  1081  1  0.86577900  0.88318800  0.36700100  1
  C  1082  1  0.86928500  0.89589600  0.35960600  1
  C  1083  1  0.88167300  0.90545400  0.36850700  1
  C  1084  1  0.85285100  0.87093000  0.36150900  1
  C  1085  1  0.84653000  0.85868500  0.36959300  1
  C  1087  1  0.84280800  0.84345700  0.38775000  1
  C  1088  1  0.82900300  0.83780700  0.37618600  1
  C  1089  1  0.83178800  0.84703500  0.36491800  1
  C  1090  1  0.84548300  0.83716000  0.40137100  1
  C  1091  1  0.83040300  0.82459300  0.40407800  1
  C  1092  1  0.83835700  0.81122500  0.39878500  1
  C  1093  1  0.82252100  0.79909400  0.40112300  1
  C  1094  1  0.79841000  0.79997500  0.40890300  1
  C  1095  1  0.79076700  0.81338500  0.41429400  1
  C  1096  1  0.80640300  0.82551900  0.41185200  1
  C  1097  1  0.84555900  0.87104400  0.34689400  1
  C  1098  1  0.86495500  0.86824700  0.33641600  1
  C  1099  1  0.85845700  0.86915400  0.32193300  1
  C  1100  1  0.83239000  0.87288700  0.31746000  1
  C  1101  1  0.81305400  0.87559300  0.32808300  1
  C  1102  1  0.81951400  0.87473100  0.34258700  1
  C  1103  1  0.90756800  0.91948900  0.39200200  1
  C  1104  1  0.89032400  0.93033900  0.39671100  1
  C  1105  1  0.89724800  0.94467600  0.39487300  1
  C  1106  1  0.92156800  0.94856900  0.38827500  1
  C  1107  1  0.93878200  0.93759400  0.38366300  1
  C  1108  1  0.93193600  0.92323900  0.38552100  1
  C  1109  1  0.91459900  0.86782600  0.44469400  1
  C  1110  1  0.90143800  0.87398500  0.45640600  1
  C  1111  1  0.94042800  0.86219000  0.44667400  1
  C  1112  1  0.95293300  0.86285400  0.46004300  1
  C  1113  1  0.94006900  0.86926800  0.47178700  1
  C  1114  1  0.91402100  0.87470300  0.46972500  1
  C  1141  1  0.82563200  0.87427800  0.30317200  1
  C  1142  1  0.92823600  0.96266800  0.38574400  1
  C  1143  1  0.95264200  0.87109000  0.48484700  1
  C  1144  1  0.78248400  0.78820600  0.41166500  1
  C  1149  1  0.63283800  0.33296800  0.10568300  1
  C  1150  1  0.61653400  0.34112400  0.09712800  1
  C  1151  1  0.61186500  0.35406000  0.10392600  1
  C  1153  1  0.63825200  0.34061600  0.11803400  1
  C  1154  1  0.65351000  0.33548500  0.12970400  1
  C  1155  1  0.65713300  0.34295400  0.14266200  1
  C  1157  1  0.65476000  0.35972200  0.15947800  1
  C  1158  1  0.66860500  0.34818500  0.16511300  1
  C  1159  1  0.67038500  0.33794300  0.15469800  1
  C  1160  1  0.64920100  0.37265700  0.16658900  1
  C  1161  1  0.63670300  0.38463000  0.16025100  1
  C  1163  1  0.61630200  0.39929400  0.14475700  1
  C  1164  1  0.62080400  0.40676000  0.15733400  1
  C  1165  1  0.63287400  0.39772400  0.16688600  1
  C  1166  1  0.60310600  0.40484800  0.13260400  1
  C  1167  1  0.59667500  0.39684000  0.12032000  1
  C  1169  1  0.59313400  0.37885000  0.10485300  1
  C  1170  1  0.57865200  0.39033900  0.09953300  1
  C  1171  1  0.58126100  0.40149700  0.10891500  1
  C  1172  1  0.59611000  0.36534300  0.09832800  1
  C  1173  1  0.58103800  0.36272600  0.08570800  1
  C  1174  1  0.58844200  0.36853800  0.07246000  1
  C  1175  1  0.57254800  0.36631600  0.06031800  1
  C  1176  1  0.54887900  0.35814200  0.06103500  1
  C  1177  1  0.54177500  0.35225200  0.07432600  1
  C  1178  1  0.55746900  0.35456800  0.08647100  1
  C  1179  1  0.59542700  0.41941700  0.13290800  1
  C  1180  1  0.61332200  0.42998200  0.12822900  1
  C  1181  1  0.60679100  0.44444600  0.12951300  1
  C  1182  1  0.58223800  0.44880200  0.13556400  1
  C  1183  1  0.56435100  0.43809200  0.14011500  1
  C  1184  1  0.57079500  0.42361700  0.13880700  1
  C  1185  1  0.65633700  0.37364500  0.18118800  1
  C  1186  1  0.63821300  0.36917900  0.19173300  1
  C  1187  1  0.64441000  0.37080900  0.20619100  1
  C  1188  1  0.66885600  0.37698100  0.21052700  1
  C  1189  1  0.68694300  0.38137400  0.19986100  1
  C  1190  1  0.68083500  0.37970400  0.18538500  1
  C  1191  1  0.66498100  0.32162700  0.12879100  1
  C  1192  1  0.65168600  0.30984600  0.13474200  1
  C  1193  1  0.69095400  0.31966600  0.12332300  1
  C  1194  1  0.70346500  0.30628600  0.12398300  1
  C  1195  1  0.69046300  0.29447900  0.13020100  1
  C  1196  1  0.66427300  0.29651800  0.13545900  1
  C  1223  1  0.57586900  0.46305900  0.13766000  1
  C  1224  1  0.67483500  0.37929500  0.22475700  1
  C  1225  1  0.70302800  0.28140300  0.13207800  1
  C  1226  1  0.53288600  0.35545400  0.04924200  1
  C  1231  1  0.13282400  0.17187700  0.92126300  1
  C  1232  1  0.11653100  0.16371700  0.92982100  1
  C  1233  1  0.11188700  0.15077700  0.92303000  1
  C  1235  1  0.13824000  0.16423100  0.90891100  1
  C  1236  1  0.15346600  0.16937000  0.89723200  1
  C  1237  1  0.15707900  0.16190200  0.88427300  1
  C  1239  1  0.15472800  0.14513000  0.86746100  1
  C  1240  1  0.16856900  0.15666900  0.86182600  1
  C  1241  1  0.17034500  0.16691100  0.87224100  1
  C  1242  1  0.14917400  0.13219500  0.86035100  1
  C  1243  1  0.13668300  0.12021900  0.86669000  1
  C  1245  1  0.11632200  0.10554800  0.88219300  1
  C  1246  1  0.12078100  0.09809100  0.86960600  1
  C  1247  1  0.13283800  0.10712900  0.86005300  1
  C  1248  1  0.10313000  0.09999100  0.89434800  1
  C  1249  1  0.09674400  0.10798800  0.90664400  1
  C  1251  1  0.09317900  0.12598200  0.92210600  1
  C  1252  1  0.07866600  0.11449800  0.92741500  1
  C  1253  1  0.08133400  0.10332900  0.91805100  1
  C  1254  1  0.09614300  0.13949100  0.92863000  1
  C  1255  1  0.08105900  0.14210700  0.94124700  1
  C  1256  1  0.08845400  0.13629500  0.95449600  1
  C  1257  1  0.07255600  0.13852000  0.96663700  1
  C  1258  1  0.04888700  0.14669400  0.96591700  1
  C  1259  1  0.04179000  0.15258200  0.95262500  1
  C  1260  1  0.05748800  0.15026400  0.94048100  1
  C  1261  1  0.09544800  0.08542300  0.89404100  1
  C  1262  1  0.11332600  0.07485600  0.89873500  1
  C  1263  1  0.10680700  0.06039300  0.89743700  1
  C  1264  1  0.08226400  0.05603800  0.89137300  1
  C  1265  1  0.06438500  0.06674800  0.88681700  1
  C  1266  1  0.07083300  0.08122300  0.88812300  1
  C  1267  1  0.15633100  0.13120200  0.84575400  1
  C  1268  1  0.13823200  0.13568200  0.83520200  1
  C  1269  1  0.14442800  0.13402700  0.82074600  1
  C  1270  1  0.16885400  0.12782600  0.81641900  1
  C  1271  1  0.18692300  0.12342800  0.82709000  1
  C  1272  1  0.18081900  0.12512600  0.84156500  1
  C  1273  1  0.16494800  0.18322600  0.89814900  1
  C  1274  1  0.15167200  0.19500700  0.89218900  1
  C  1275  1  0.19091200  0.18518300  0.90363100  1
  C  1276  1  0.20342500  0.19856400  0.90298800  1
  C  1277  1  0.19045900  0.21036500  0.89674000  1
  C  1278  1  0.16428100  0.20832900  0.89146300  1
  C  1305  1  0.07589100  0.04178100  0.88928100  1
  C  1306  1  0.17481700  0.12547900  0.80219100  1
  C  1307  1  0.20304300  0.22343500  0.89485500  1
  C  1308  1  0.03290300  0.14939100  0.97771300  1
  C  1313  1  0.76850000  0.23989700  0.40325100  1
  C  1314  1  0.76457800  0.24744700  0.41608300  1
  C  1315  1  0.74900500  0.25996800  0.41598300  1
  C  1316  1  0.73761900  0.26535900  0.40335300  1
  C  1317  1  0.74177300  0.25782600  0.39054900  1
  C  1319  1  0.75733800  0.24528600  0.39063000  1
  C  1329  1  0.26850800  0.26492400  0.62369400  1
  C  1330  1  0.26459500  0.25737500  0.61086000  1
  C  1331  1  0.24902000  0.24485400  0.61095700  1
  C  1332  1  0.23762700  0.23946100  0.62358600  1
  C  1333  1  0.24178000  0.24699400  0.63639200  1
  C  1335  1  0.25734300  0.25953400  0.63631200  1
  C  1345  1  0.01806600  0.86324800  0.00076300  1
  C  1346  1  0.01412800  0.85043800  0.00835700  1
  C  1347  1  0.99884900  0.85059000  0.02099400  1
  C  1348  1  0.98773700  0.86324900  0.02648400  1
  C  1349  1  0.99188400  0.87602900  0.01890100  1
  C  1351  1  0.00716900  0.87589600  0.00625300  1
  C  1361  1  0.51803600  0.64159200  0.02619200  1
  C  1362  1  0.51408900  0.65440100  0.01859900  1
  C  1363  1  0.49881700  0.65424800  0.00596100  1
  C  1364  1  0.48771800  0.64158500  0.00046700  1
  C  1365  1  0.49187400  0.62880700  0.00805000  1
  C  1367  1  0.50715200  0.62894200  0.02069900  1
  C  1377  1  0.23665400  0.76508900  0.62339800  1
  C  1378  1  0.24026900  0.75747300  0.61058000  1
  C  1379  1  0.25548300  0.74482600  0.61068100  1
  C  1380  1  0.26680000  0.73937500  0.62330200  1
  C  1381  1  0.26296000  0.74697900  0.63609300  1
  C  1383  1  0.24774800  0.75964100  0.63601100  1
  C  1393  1  0.73663600  0.73976100  0.40355600  1
  C  1394  1  0.74024200  0.74737500  0.41637600  1
  C  1395  1  0.75545600  0.76002200  0.41627800  1
  C  1396  1  0.76678100  0.76547500  0.40365800  1
  C  1397  1  0.76294800  0.75787300  0.39086600  1
  C  1399  1  0.74773600  0.74520900  0.39094700  1
  C  1409  1  0.98668900  0.14141800  0.02618000  1
  C  1410  1  0.99058600  0.15422800  0.01858100  1
  C  1411  1  0.00585300  0.15408200  0.00594100  1
  C  1412  1  0.01698800  0.14142700  0.00045300  1
  C  1413  1  0.01287700  0.12864700  0.00804100  1
  C  1415  1  0.99760700  0.12877400  0.02069300  1
  C  1425  1  0.48670500  0.36342000  0.00076800  1
  C  1426  1  0.49061200  0.35061000  0.00836400  1
  C  1427  1  0.50587400  0.35075600  0.02100400  1
  C  1428  1  0.51699800  0.36341400  0.02649500  1
  C  1429  1  0.51287700  0.37619400  0.01891000  1
  C  1431  1  0.49761100  0.37606500  0.00625700  1
  C  1441  1  0.26841400  0.73995000  0.90195800  1
  C  1442  1  0.26047800  0.74649100  0.91479700  1
  C  1443  1  0.24546800  0.75922500  0.91438800  1
  C  1444  1  0.23747600  0.76541200  0.90145100  1
  C  1445  1  0.24533600  0.75888200  0.88856600  1
  C  1447  1  0.26048600  0.74620100  0.88898800  1
  C  1457  1  0.76841400  0.76488900  0.12499600  1
  C  1458  1  0.76048400  0.75834800  0.11215800  1
  C  1459  1  0.74546500  0.74561600  0.11256500  1
  C  1460  1  0.73746500  0.73943000  0.12550100  1
  C  1461  1  0.74532400  0.74595900  0.13838800  1
  C  1463  1  0.76047800  0.75863900  0.13796500  1
  C  1473  1  0.51836300  0.36347800  0.50106200  1
  C  1474  1  0.51048700  0.35062700  0.50758800  1
  C  1475  1  0.49552000  0.35103700  0.52032500  1
  C  1476  1  0.48755800  0.36398600  0.52648800  1
  C  1477  1  0.49535500  0.37688300  0.51997100  1
  C  1479  1  0.51045500  0.37645900  0.50728600  1
  C  1489  1  0.01836500  0.14134700  0.52589800  1
  C  1490  1  0.01048300  0.15419900  0.51937400  1
  C  1491  1  0.99551400  0.15378800  0.50663800  1
  C  1492  1  0.98755800  0.14083900  0.50047300  1
  C  1493  1  0.99536000  0.12794200  0.50698800  1
  C  1495  1  0.01046300  0.12836600  0.51967200  1
  C  1505  1  0.73637100  0.26490100  0.12474800  1
  C  1506  1  0.74429700  0.25835800  0.11190900  1
  C  1507  1  0.75927800  0.24561500  0.11231800  1
  C  1508  1  0.76724800  0.23942300  0.12525500  1
  C  1509  1  0.75939700  0.24595400  0.13814100  1
  C  1511  1  0.74427300  0.25864400  0.13771900  1
  C  1521  1  0.23637100  0.23994000  0.90219900  1
  C  1522  1  0.24429500  0.24648300  0.91503800  1
  C  1523  1  0.25928200  0.25922300  0.91463000  1
  C  1524  1  0.26726000  0.26541600  0.90169300  1
  C  1525  1  0.25941400  0.25888500  0.88880700  1
  C  1527  1  0.24428300  0.24619600  0.88922800  1
  C  1537  1  0.48620100  0.64109500  0.52581600  1
  C  1538  1  0.49413300  0.65394900  0.51931500  1
  C  1539  1  0.50926300  0.65354800  0.50663100  1
  C  1540  1  0.51733100  0.64060500  0.50049500  1
  C  1541  1  0.50947800  0.62770300  0.50698600  1
  C  1543  1  0.49422200  0.62811900  0.51961900  1
  C  1553  1  0.98621000  0.86375000  0.50113600  1
  C  1554  1  0.99415200  0.85089500  0.50763400  1
  C  1555  1  0.00928400  0.85129700  0.52031700  1
  C  1556  1  0.01734400  0.86424200  0.52645500  1
  C  1557  1  0.00948200  0.87714200  0.51996500  1
  C  1559  1  0.99422200  0.87672500  0.50733400  1
  C  1569  1  0.83859400  0.13213500  0.24896500  1
  C  1570  1  0.84450200  0.14449600  0.25688700  1
  C  1571  1  0.84491300  0.14380900  0.27187900  1
  C  1572  1  0.83972400  0.13101400  0.27910400  1
  C  1573  1  0.83413200  0.11859000  0.27126100  1
  C  1575  1  0.83342700  0.11931900  0.25626700  1
  C  1585  1  0.33866000  0.37255700  0.77801800  1
  C  1586  1  0.34497000  0.36019000  0.77019500  1
  C  1587  1  0.34554600  0.36078400  0.75520400  1
  C  1588  1  0.34004600  0.37348000  0.74788300  1
  C  1589  1  0.33398400  0.38591200  0.75561800  1
  C  1591  1  0.33318000  0.38528100  0.77061800  1
  C  1601  1  0.08688100  0.01753200  0.89506500  1
  C  1602  1  0.09812700  0.00975200  0.90641800  1
  C  1603  1  0.09825100  0.99475000  0.90589600  1
  C  1604  1  0.08732000  0.98727100  0.89433100  1
  C  1605  1  0.07645400  0.99502300  0.88280900  1
  C  1607  1  0.07624000  0.01004100  0.88336800  1
  C  1617  1  0.58686900  0.48730700  0.13188200  1
  C  1618  1  0.59813400  0.49508800  0.12053400  1
  C  1619  1  0.59826100  0.51009000  0.12105800  1
  C  1620  1  0.58731300  0.51756900  0.13261900  1
  C  1621  1  0.57642700  0.50981700  0.14413700  1
  C  1623  1  0.57621000  0.49479800  0.14357600  1
  C  1633  1  0.66592200  0.37188800  0.24877800  1
  C  1634  1  0.65834700  0.35944200  0.25613200  1
  C  1635  1  0.65796800  0.35946300  0.27113300  1
  C  1636  1  0.66515000  0.37159400  0.27896900  1
  C  1637  1  0.67234700  0.38416200  0.27166700  1
  C  1639  1  0.67278900  0.38412200  0.25664700  1
  C  1649  1  0.16592100  0.13287500  0.77816300  1
  C  1650  1  0.15841700  0.14533100  0.77080600  1
  C  1651  1  0.15796800  0.14529600  0.75580700  1
  C  1652  1  0.16502200  0.13313900  0.74797900  1
  C  1653  1  0.17217600  0.12056800  0.75527800  1
  C  1655  1  0.17267500  0.12061800  0.77029800  1
  C  1665  1  0.41782500  0.48725900  0.89497800  1
  C  1666  1  0.40662700  0.49498400  0.90638400  1
  C  1667  1  0.40655600  0.50998800  0.90595200  1
  C  1668  1  0.41750000  0.51752600  0.89442800  1
  C  1669  1  0.42832200  0.50983400  0.88285400  1
  C  1671  1  0.42848000  0.49481100  0.88332200  1
  C  1681  1  0.91783200  0.01758900  0.13197100  1
  C  1682  1  0.90663700  0.00986700  0.12056400  1
  C  1683  1  0.90656300  0.99486300  0.12099500  1
  C  1684  1  0.91750100  0.98732300  0.13251700  1
  C  1685  1  0.92832400  0.99501300  0.14409200  1
  C  1687  1  0.92848500  0.01003500  0.14362600  1
  C  1697  1  0.16587500  0.87246600  0.77795200  1
  C  1698  1  0.15923600  0.86005500  0.77028200  1
  C  1699  1  0.15864300  0.86047000  0.75528900  1
  C  1700  1  0.16459300  0.87300300  0.74780500  1
  C  1701  1  0.17103800  0.88548900  0.75538100  1
  C  1703  1  0.17174300  0.88505000  0.77039200  1
  C  1713  1  0.66588000  0.63234400  0.24900100  1
  C  1714  1  0.65931300  0.64475300  0.25669300  1
  C  1715  1  0.65873500  0.64431500  0.27168600  1
  C  1716  1  0.66461600  0.63176100  0.27914800  1
  C  1717  1  0.67098500  0.61927800  0.27155100  1
  C  1719  1  0.67168900  0.61974000  0.25654000  1
  C  1729  1  0.33897700  0.63290200  0.77806500  1
  C  1730  1  0.34652000  0.64533600  0.77068200  1
  C  1731  1  0.34663200  0.64532900  0.75567700  1
  C  1732  1  0.33922800  0.63322200  0.74785900  1
  C  1733  1  0.33210000  0.62066000  0.75519200  1
  C  1735  1  0.33191200  0.62068700  0.77021300  1
  C  1745  1  0.83897700  0.87188800  0.24888700  1
  C  1746  1  0.84661200  0.85947800  0.25628700  1
  C  1747  1  0.84665100  0.85949300  0.27129200  1
  C  1748  1  0.83909600  0.87158400  0.27909900  1
  C  1749  1  0.83188800  0.88412300  0.27174700  1
  C  1751  1  0.83176400  0.88408500  0.25672600  1
  C  1761  1  0.58432300  0.51793600  0.39294500  1
  C  1762  1  0.59190200  0.51027300  0.40519500  1
  C  1763  1  0.59189200  0.49528300  0.40483100  1
  C  1764  1  0.58511500  0.48773600  0.39239100  1
  C  1765  1  0.57687000  0.49537200  0.38024800  1
  C  1767  1  0.57669200  0.51038600  0.38063600  1
  C  1777  1  0.08423800  0.98689700  0.63401000  1
  C  1778  1  0.09183400  0.99456100  0.62176400  1
  C  1779  1  0.09182200  0.00955000  0.62212800  1
  C  1780  1  0.08502500  0.01709600  0.63456600  1
  C  1781  1  0.07676200  0.00946000  0.64670500  1
  C  1783  1  0.07658600  0.99444500  0.64631700  1
  C  1793  1  0.92046600  0.98689700  0.39284300  1
  C  1794  1  0.91292600  0.99449400  0.40514100  1
  C  1795  1  0.91298000  0.00948400  0.40486700  1
  C  1796  1  0.91976200  0.01710100  0.39247000  1
  C  1797  1  0.92798100  0.00953000  0.38028100  1
  C  1799  1  0.92811600  0.99451300  0.38057900  1
  C  1809  1  0.42046400  0.51794800  0.63410600  1
  C  1810  1  0.41290300  0.51035400  0.62181100  1
  C  1811  1  0.41295900  0.49536200  0.62208200  1
  C  1812  1  0.41976600  0.48774300  0.63447300  1
  C  1813  1  0.42800900  0.49531200  0.64665900  1
  C  1815  1  0.42814300  0.51032800  0.64636300  1
  C  1825  1  0.04168820  0.16058700  0.43334500  1
  C  1826  1  0.02542720  0.16913300  0.42516100  1
  C  1827  1  0.02123320  0.16241400  0.41214200  1
  C  1829  1  0.04734520  0.14829200  0.42565000  1
  C  1830  1  0.06242620  0.13658000  0.43079500  1
  C  1831  1  0.06538220  0.12349400  0.42349100  1
  C  1833  1  0.06133820  0.10644300  0.40708900  1
  C  1834  1  0.07429920  0.10061900  0.41882400  1
  C  1835  1  0.07734720  0.11121100  0.42879900  1
  C  1836  1  0.05448020  0.09918100  0.39442200  1
  C  1837  1  0.04296820  0.10563000  0.38224000  1
  C  1839  1  0.02487320  0.12142400  0.36708500  1
  C  1840  1  0.02677520  0.10837100  0.36014700  1
  C  1841  1  0.03737220  0.09863800  0.36951800  1
  C  1842  1  0.01321520  0.13386700  0.36122700  1
  C  1843  1  0.00746623  0.14634300  0.36909600  1
  C  1845  1  0.00366123  0.16173400  0.38711400  1
  C  1846  1  0.99078100  0.16753400  0.37533100  1
  C  1847  1  0.99380300  0.15824800  0.36413000  1
  C  1848  1  0.00600523  0.16808600  0.40072400  1
  C  1849  1  0.99071300  0.18059600  0.40329000  1
  C  1850  1  0.99907200  0.19405600  0.39844600  1
  C  1851  1  0.98282300  0.20608900  0.40045200  1
  C  1852  1  0.95783100  0.20502100  0.40739400  1
  C  1853  1  0.94984100  0.19150700  0.41237800  1
  C  1854  1  0.96593000  0.17947300  0.41030000  1
  C  1855  1  0.00638223  0.13369600  0.34654000  1
  C  1856  1  0.02643820  0.13565100  0.33621500  1
  C  1857  1  0.02002120  0.13573100  0.32169400  1
  C  1858  1  0.99338000  0.13384900  0.31707600  1
  C  1859  1  0.97339200  0.13182700  0.32748100  1
  C  1860  1  0.97981100  0.13163800  0.34202000  1
  C  1861  1  0.05627820  0.08410800  0.39461500  1
  C  1862  1  0.03373220  0.07618500  0.39876900  1
  C  1863  1  0.03478320  0.06131600  0.39925200  1
  C  1864  1  0.05834320  0.05387600  0.39560800  1
  C  1865  1  0.08088120  0.06191900  0.39139100  1
  C  1866  1  0.07988120  0.07685200  0.39088500  1
  C  1867  1  0.07396420  0.13754100  0.44459900  1
  C  1868  1  0.05976720  0.13281300  0.45662600  1
  C  1869  1  0.10054300  0.14216200  0.44634200  1
  C  1870  1  0.11270900  0.14195500  0.45981000  1
  C  1871  1  0.09874920  0.13705800  0.47193400  1
  C  1872  1  0.07199520  0.13258500  0.47005900  1
  C  1899  1  0.98655100  0.13462900  0.30281400  1
  C  1900  1  0.05848320  0.03913500  0.39655700  1
  C  1901  1  0.11060200  0.13601800  0.48529900  1
  C  1902  1  0.94125500  0.21666800  0.40963600  1
  C  1907  1  0.54183600  0.34419400  0.59365200  1
  C  1908  1  0.52547200  0.33567800  0.60181000  1
  C  1909  1  0.52129100  0.34239000  0.61483300  1
  C  1911  1  0.54743800  0.35650200  0.60133500  1
  C  1912  1  0.56244000  0.36823800  0.59617200  1
  C  1913  1  0.56534900  0.38133400  0.60346200  1
  C  1915  1  0.56120300  0.39840600  0.61983600  1
  C  1916  1  0.57413800  0.40423200  0.60809400  1
  C  1917  1  0.57719600  0.39363700  0.59812500  1
  C  1918  1  0.55431500  0.40567700  0.63249400  1
  C  1919  1  0.54287500  0.39921800  0.64469000  1
  C  1921  1  0.52482200  0.38341500  0.65985300  1
  C  1922  1  0.52681100  0.39645800  0.66680800  1
  C  1923  1  0.53739900  0.40619300  0.65743600  1
  C  1924  1  0.51318000  0.37097000  0.66571400  1
  C  1925  1  0.50738700  0.35850000  0.65784700  1
  C  1927  1  0.50364300  0.34308800  0.63984600  1
  C  1928  1  0.49073300  0.33729800  0.65162800  1
  C  1929  1  0.49363200  0.34662300  0.66280500  1
  C  1930  1  0.50602100  0.33672800  0.62624300  1
  C  1931  1  0.49072500  0.32422100  0.62367300  1
  C  1932  1  0.49907800  0.31076100  0.62851700  1
  C  1933  1  0.48283100  0.29872900  0.62650500  1
  C  1934  1  0.45784300  0.29979800  0.61955900  1
  C  1935  1  0.44986100  0.31331500  0.61457600  1
  C  1936  1  0.46595700  0.32534700  0.61665100  1
  C  1937  1  0.50627900  0.37116000  0.68038800  1
  C  1938  1  0.52623300  0.36907300  0.69073900  1
  C  1939  1  0.51976400  0.36913700  0.70525400  1
  C  1940  1  0.49317700  0.37130800  0.70985700  1
  C  1941  1  0.47330500  0.37343600  0.69940400  1
  C  1942  1  0.47975900  0.37345600  0.68487100  1
  C  1943  1  0.55615700  0.42074800  0.63231700  1
  C  1944  1  0.53359500  0.42868700  0.62822100  1
  C  1945  1  0.53466900  0.44355600  0.62775200  1
  C  1946  1  0.55827400  0.45097900  0.63135100  1
  C  1947  1  0.58082400  0.44292000  0.63551600  1
  C  1948  1  0.57980000  0.42798600  0.63600600  1
  C  1949  1  0.57397500  0.36727500  0.58236700  1
  C  1950  1  0.55977300  0.37200300  0.57034000  1
  C  1951  1  0.60056400  0.36266900  0.58062200  1
  C  1952  1  0.61272600  0.36287500  0.56715300  1
  C  1953  1  0.59875500  0.36776600  0.55502900  1
  C  1954  1  0.57200100  0.37223600  0.55690700  1
  C  1981  1  0.48624000  0.37086400  0.72414100  1
  C  1982  1  0.55843400  0.46572200  0.63041700  1
  C  1983  1  0.61060500  0.36880500  0.54166400  1
  C  1984  1  0.44127200  0.28815200  0.61731100  1
  C  1989  1  0.29063900  0.83266200  0.92099400  1
  C  1990  1  0.27426200  0.84084800  0.92948400  1
  C  1991  1  0.27019300  0.85388900  0.92278600  1
  C  1993  1  0.29660600  0.84038200  0.90875800  1
  C  1994  1  0.31219300  0.83528900  0.89719300  1
  C  1995  1  0.31607600  0.84276600  0.88426400  1
  C  1997  1  0.31383700  0.85949500  0.86740000  1
  C  1998  1  0.32792200  0.84798900  0.86186900  1
  C  1999  1  0.32959400  0.83776300  0.87231100  1
  C  2000  1  0.30813900  0.87237200  0.86021100  1
  C  2001  1  0.29542300  0.88433100  0.86646700  1
  C  2003  1  0.27516900  0.89909200  0.88193000  1
  C  2004  1  0.27883400  0.90635600  0.86916400  1
  C  2005  1  0.29085800  0.89726400  0.85964500  1
  C  2006  1  0.26236100  0.90476700  0.89414400  1
  C  2007  1  0.25605700  0.89682400  0.90649300  1
  C  2009  1  0.25226000  0.87884500  0.92195500  1
  C  2010  1  0.23855900  0.89050900  0.92747100  1
  C  2011  1  0.24135600  0.90165400  0.91809400  1
  C  2012  1  0.25480900  0.86528900  0.92842400  1
  C  2013  1  0.23968300  0.86279400  0.94104400  1
  C  2014  1  0.24784400  0.86810100  0.95437200  1
  C  2015  1  0.23174500  0.86622900  0.96649500  1
  C  2016  1  0.20704300  0.85896500  0.96568700  1
  C  2017  1  0.19923300  0.85354100  0.95230600  1
  C  2018  1  0.21517700  0.85547500  0.94018000  1
  C  2019  1  0.25490400  0.91937200  0.89384200  1
  C  2020  1  0.27381900  0.92996000  0.89712600  1
  C  2021  1  0.26694900  0.94441500  0.89637900  1
  C  2022  1  0.24098100  0.94876600  0.89230900  1
  C  2023  1  0.22218100  0.93802700  0.88902900  1
  C  2024  1  0.22900000  0.92355800  0.88975400  1
  C  2025  1  0.31543500  0.87333100  0.84562800  1
  C  2026  1  0.29764600  0.86863200  0.83502000  1
  C  2027  1  0.30393100  0.87034700  0.82057700  1
  C  2028  1  0.32813000  0.87684200  0.81631500  1
  C  2029  1  0.34591200  0.88142900  0.82704400  1
  C  2030  1  0.33971400  0.87968000  0.84150100  1
  C  2031  1  0.32372100  0.82145400  0.89820100  1
  C  2032  1  0.30998000  0.80951100  0.89290900  1
  C  2033  1  0.34995800  0.81960200  0.90332700  1
  C  2034  1  0.36221300  0.80614300  0.90306000  1
  C  2035  1  0.34870200  0.79410700  0.89761600  1
  C  2036  1  0.32228600  0.79609100  0.89263500  1
  C  2063  1  0.23366600  0.96303100  0.89134600  1
  C  2064  1  0.33408000  0.87937700  0.80211200  1
  C  2065  1  0.36065600  0.78074700  0.89651600  1
  C  2066  1  0.19060400  0.85681000  0.97744100  1
  C  2071  1  0.79066500  0.67217200  0.10593900  1
  C  2072  1  0.77431000  0.66398100  0.09744300  1
  C  2073  1  0.77023200  0.65094300  0.10414500  1
  C  2075  1  0.79660300  0.66446000  0.11818400  1
  C  2076  1  0.81213600  0.66956800  0.12976200  1
  C  2077  1  0.81599800  0.66209600  0.14269600  1
  C  2079  1  0.81378500  0.64536000  0.15955400  1
  C  2080  1  0.82785300  0.65687100  0.16508800  1
  C  2081  1  0.82950900  0.66709900  0.15465000  1
  C  2082  1  0.80810700  0.63247700  0.16673900  1
  C  2083  1  0.79541700  0.62051300  0.16047900  1
  C  2085  1  0.77520300  0.60574600  0.14500900  1
  C  2086  1  0.77884900  0.59848500  0.15777800  1
  C  2087  1  0.79086000  0.60758000  0.16729900  1
  C  2088  1  0.76238500  0.60007100  0.13279800  1
  C  2089  1  0.75611000  0.60800700  0.12044100  1
  C  2091  1  0.75228200  0.62599100  0.10498500  1
  C  2092  1  0.73852700  0.61433600  0.09948800  1
  C  2093  1  0.74138200  0.60317900  0.10884700  1
  C  2094  1  0.75483400  0.63954600  0.09851300  1
  C  2095  1  0.73969800  0.64204000  0.08589700  1
  C  2096  1  0.74783100  0.63671800  0.07257100  1
  C  2097  1  0.73172200  0.63858900  0.06045200  1
  C  2098  1  0.70703900  0.64587200  0.06126200  1
  C  2099  1  0.69925600  0.65131200  0.07464200  1
  C  2100  1  0.71520800  0.64937600  0.08676400  1
  C  2101  1  0.75492000  0.58546700  0.13310200  1
  C  2102  1  0.77381400  0.57487800  0.12978700  1
  C  2103  1  0.76693800  0.56042300  0.13054000  1
  C  2104  1  0.74098700  0.55607600  0.13464200  1
  C  2105  1  0.72220900  0.56681600  0.13795100  1
  C  2106  1  0.72903500  0.58128400  0.13722700  1
  C  2107  1  0.81541100  0.63151800  0.18132300  1
  C  2108  1  0.79764200  0.63623300  0.19193200  1
  C  2109  1  0.80392500  0.63450900  0.20637500  1
  C  2110  1  0.82811200  0.62800100  0.21063300  1
  C  2111  1  0.84588200  0.62340300  0.19989900  1
  C  2112  1  0.83969000  0.62516500  0.18544400  1
  C  2113  1  0.82367400  0.68340000  0.12875100  1
  C  2114  1  0.80994700  0.69534400  0.13405100  1
  C  2115  1  0.84990400  0.68524900  0.12361200  1
  C  2116  1  0.86216000  0.69870800  0.12386800  1
  C  2117  1  0.84867400  0.71074100  0.12933500  1
  C  2118  1  0.82226700  0.70876100  0.13433200  1
  C  2145  1  0.73366300  0.54181100  0.13560100  1
  C  2146  1  0.83406000  0.62545700  0.22483400  1
  C  2147  1  0.86063900  0.72410000  0.13043900  1
  C  2148  1  0.69059400  0.64803100  0.04951000  1
  C  2153  1  0.78048400  0.34418500  0.43326500  1
  C  2154  1  0.79665300  0.33553000  0.42514600  1
  C  2155  1  0.80141300  0.34227200  0.41219200  1
  C  2157  1  0.77538100  0.35655400  0.42558400  1
  C  2158  1  0.76060500  0.36838800  0.43070500  1
  C  2159  1  0.75794600  0.38148000  0.42337400  1
  C  2161  1  0.76229600  0.39846000  0.40692300  1
  C  2162  1  0.74938600  0.40438200  0.41862400  1
  C  2163  1  0.74613400  0.39383300  0.42862300  1
  C  2164  1  0.76923700  0.40564400  0.39422800  1
  C  2165  1  0.78068500  0.39909000  0.38208800  1
  C  2167  1  0.79880400  0.38318000  0.36706700  1
  C  2168  1  0.79674100  0.39616300  0.36000100  1
  C  2169  1  0.78613900  0.40596900  0.36929200  1
  C  2170  1  0.81059300  0.37071100  0.36133400  1
  C  2171  1  0.81629500  0.35827400  0.36925900  1
  C  2173  1  0.81971100  0.34290000  0.38731000  1
  C  2174  1  0.83326100  0.33721100  0.37568200  1
  C  2175  1  0.83050600  0.34649000  0.36445100  1
  C  2176  1  0.81693400  0.33655200  0.40089900  1
  C  2177  1  0.83212300  0.32403200  0.40363700  1
  C  2178  1  0.82446600  0.31062800  0.39831300  1
  C  2179  1  0.84047900  0.29857600  0.40071600  1
  C  2180  1  0.86445900  0.29957800  0.40859600  1
  C  2181  1  0.87179900  0.31302100  0.41401900  1
  C  2182  1  0.85599400  0.32507500  0.41150800  1
  C  2183  1  0.81785900  0.37090000  0.34672000  1
  C  2184  1  0.79828400  0.36855800  0.33622800  1
  C  2185  1  0.80486000  0.36941600  0.32175400  1
  C  2186  1  0.83117800  0.37265100  0.31730600  1
  C  2187  1  0.85068000  0.37492000  0.32794200  1
  C  2188  1  0.84414900  0.37409600  0.34244000  1
  C  2189  1  0.76753200  0.42072200  0.39432600  1
  C  2190  1  0.79018200  0.42863400  0.39834000  1
  C  2191  1  0.78917700  0.44350700  0.39881400  1
  C  2192  1  0.76555900  0.45095800  0.39530300  1
  C  2193  1  0.74292700  0.44292700  0.39120800  1
  C  2194  1  0.74388200  0.42799200  0.39071100  1
  C  2195  1  0.74907300  0.36755700  0.44452300  1
  C  2196  1  0.76285400  0.37297500  0.45640000  1
  C  2197  1  0.72272700  0.36259300  0.44635700  1
  C  2198  1  0.71030800  0.36321800  0.45975100  1
  C  2199  1  0.72379800  0.36892300  0.47165700  1
  C  2200  1  0.75035100  0.37367400  0.46974200  1
  C  2227  1  0.83805700  0.37395500  0.30302700  1
  C  2228  1  0.76543500  0.46569700  0.39629100  1
  C  2229  1  0.71138600  0.37073900  0.48475300  1
  C  2230  1  0.88055400  0.28789900  0.41142400  1
  C  2235  1  0.28033100  0.16068100  0.59373000  1
  C  2236  1  0.29660000  0.16930900  0.60181900  1
  C  2237  1  0.30136200  0.16257100  0.61477500  1
  C  2239  1  0.27528500  0.14829700  0.60139900  1
  C  2240  1  0.26059300  0.13644100  0.59626200  1
  C  2241  1  0.25796800  0.12334400  0.60358500  1
  C  2243  1  0.26237300  0.10635600  0.62002700  1
  C  2244  1  0.24948000  0.10043000  0.60832300  1
  C  2245  1  0.24624800  0.11097500  0.59831900  1
  C  2246  1  0.26932700  0.09917000  0.63272000  1
  C  2247  1  0.28076000  0.10572800  0.64486100  1
  C  2249  1  0.29886200  0.12164500  0.65988200  1
  C  2250  1  0.29676900  0.10866700  0.66695600  1
  C  2251  1  0.28615700  0.09886000  0.65767000  1
  C  2252  1  0.31061600  0.13412100  0.66562100  1
  C  2253  1  0.31636000  0.14654600  0.65768700  1
  C  2255  1  0.31973200  0.16192900  0.63964000  1
  C  2256  1  0.33324500  0.16763100  0.65127300  1
  C  2257  1  0.33058900  0.15832700  0.66248800  1
  C  2258  1  0.31693000  0.16828000  0.62605400  1
  C  2259  1  0.33211600  0.18079800  0.62331200  1
  C  2260  1  0.32445000  0.19420400  0.62862700  1
  C  2261  1  0.34046000  0.20625600  0.62621700  1
  C  2262  1  0.36444300  0.20525100  0.61834100  1
  C  2263  1  0.37178900  0.19180700  0.61292400  1
  C  2264  1  0.35598300  0.17975400  0.61543700  1
  C  2265  1  0.31786900  0.13393800  0.68023600  1
  C  2266  1  0.29827600  0.13627200  0.69072000  1
  C  2267  1  0.30484000  0.13544100  0.70519700  1
  C  2268  1  0.33116600  0.13223500  0.70965800  1
  C  2269  1  0.35069000  0.12998300  0.69902700  1
  C  2270  1  0.34416700  0.13077500  0.68452700  1
  C  2271  1  0.26758700  0.08409400  0.63263500  1
  C  2272  1  0.29023300  0.07616600  0.62864700  1
  C  2273  1  0.28920200  0.06129500  0.62818500  1
  C  2274  1  0.26555800  0.05385900  0.63168000  1
  C  2275  1  0.24293200  0.06190500  0.63575500  1
  C  2276  1  0.24391200  0.07684000  0.63623800  1
  C  2277  1  0.24906700  0.13727000  0.58244300  1
  C  2278  1  0.26284300  0.13184600  0.57056600  1
  C  2279  1  0.22271600  0.14222700  0.58060500  1
  C  2280  1  0.21030400  0.14160600  0.56721000  1
  C  2281  1  0.22379700  0.13590300  0.55530400  1
  C  2282  1  0.25034300  0.13114300  0.55722300  1
  C  2309  1  0.33804400  0.13097400  0.72394000  1
  C  2310  1  0.26541400  0.03911900  0.63070900  1
  C  2311  1  0.21139800  0.13409200  0.54220500  1
  C  2312  1  0.38053100  0.21693100  0.61550500  1
  C  2317  1  0.53195200  0.67211400  0.92096500  1
  C  2318  1  0.54825100  0.66399000  0.92955400  1
  C  2319  1  0.55265900  0.65096200  0.92288700  1
  C  2321  1  0.52629500  0.66435300  0.90871600  1
  C  2322  1  0.51089300  0.66939300  0.89706000  1
  C  2323  1  0.50718400  0.66183800  0.88415800  1
  C  2325  1  0.50964500  0.64501600  0.86739700  1
  C  2326  1  0.49548000  0.65645100  0.86177900  1
  C  2327  1  0.49365400  0.66666667  0.87216000  1
  C  2328  1  0.51547200  0.63211300  0.86028700  1
  C  2329  1  0.52821700  0.62021100  0.86662500  1
  C  2331  1  0.54850400  0.60558300  0.88219500  1
  C  2332  1  0.54491400  0.59823300  0.86947000  1
  C  2333  1  0.53287300  0.60724700  0.85988500  1
  C  2334  1  0.56134600  0.60001200  0.89444500  1
  C  2335  1  0.56754000  0.60803900  0.90675600  1
  C  2337  1  0.57102800  0.62609100  0.92216100  1
  C  2338  1  0.58502400  0.61452800  0.92768300  1
  C  2339  1  0.58240100  0.60333400  0.91834900  1
  C  2340  1  0.56820400  0.63965300  0.92859400  1
  C  2341  1  0.58323800  0.64228800  0.94122400  1
  C  2342  1  0.57558900  0.63666900  0.95451500  1
  C  2343  1  0.59147900  0.63887600  0.96666400  1
  C  2344  1  0.61538500  0.64684900  0.96590800  1
  C  2345  1  0.62272900  0.65255500  0.95257500  1
  C  2346  1  0.60704400  0.65024700  0.94042400  1
  C  2347  1  0.56890700  0.58542100  0.89422200  1
  C  2348  1  0.55004900  0.57482100  0.89755900  1
  C  2349  1  0.55694000  0.56037100  0.89678300  1
  C  2350  1  0.58286800  0.55603700  0.89262600  1
  C  2351  1  0.60161800  0.56678700  0.88930600  1
  C  2352  1  0.59477800  0.58125300  0.89005900  1
  C  2353  1  0.50836200  0.63109200  0.84568400  1
  C  2354  1  0.52618300  0.63588500  0.83513500  1
  C  2355  1  0.51998600  0.63425100  0.82067500  1
  C  2356  1  0.49583900  0.62775300  0.81633800  1
  C  2357  1  0.47805300  0.62303500  0.82701100  1
  C  2358  1  0.48416500  0.62470200  0.84148800  1
  C  2359  1  0.49938900  0.68324900  0.89792000  1
  C  2360  1  0.51252200  0.69499200  0.89179500  1
  C  2361  1  0.47354200  0.68523900  0.90354400  1
  C  2362  1  0.46099100  0.69860900  0.90286600  1
  C  2363  1  0.47382500  0.71037700  0.89647900  1
  C  2364  1  0.49989500  0.70830800  0.89106500  1
  C  2391  1  0.59017400  0.54177400  0.89159900  1
  C  2392  1  0.48984600  0.62544600  0.80210400  1
  C  2393  1  0.46121000  0.72344000  0.89459700  1
  C  2394  1  0.63137700  0.64952500  0.97770300  1
  C  2399  1  0.03193820  0.83272900  0.10597200  1
  C  2400  1  0.04822520  0.84085600  0.09737900  1
  C  2401  1  0.05262020  0.85388700  0.10404300  1
  C  2403  1  0.02628820  0.84048700  0.11822400  1
  C  2404  1  0.01092720  0.83543700  0.12989100  1
  C  2405  1  0.00723323  0.84299000  0.14279500  1
  C  2407  1  0.00968523  0.85981700  0.15955100  1
  C  2408  1  0.99552700  0.84838000  0.16517300  1
  C  2409  1  0.99370100  0.83810500  0.15479300  1
  C  2410  1  0.01551020  0.87272200  0.16665800  1
  C  2411  1  0.02822620  0.88463000  0.16031400  1
  C  2413  1  0.04845820  0.89926800  0.14473400  1
  C  2414  1  0.04490520  0.90661100  0.15746700  1
  C  2415  1  0.03288720  0.89759300  0.16705600  1
  C  2416  1  0.06130020  0.90483800  0.13248300  1
  C  2417  1  0.06746320  0.89681800  0.12016400  1
  C  2419  1  0.07098820  0.87875900  0.10476900  1
  C  2420  1  0.08503020  0.89031300  0.09926200  1
  C  2421  1  0.08234320  0.90152100  0.10857500  1
  C  2422  1  0.06817120  0.86519600  0.09834000  1
  C  2423  1  0.08322020  0.86255800  0.08571400  1
  C  2424  1  0.07558520  0.86817900  0.07242100  1
  C  2425  1  0.09148120  0.86596800  0.06027600  1
  C  2426  1  0.11538000  0.85799000  0.06103600  1
  C  2427  1  0.12271200  0.85228200  0.07437100  1
  C  2428  1  0.10702000  0.85459500  0.08651900  1
  C  2429  1  0.06887320  0.91942700  0.13270800  1
  C  2430  1  0.05003320  0.93003200  0.12935700  1
  C  2431  1  0.05693020  0.94448100  0.13014100  1
  C  2432  1  0.08284920  0.94880900  0.13431700  1
  C  2433  1  0.10158400  0.93805600  0.13765000  1
  C  2434  1  0.09473420  0.92359100  0.13689500  1
  C  2435  1  0.00840323  0.87374100  0.18126200  1
  C  2436  1  0.02620720  0.86892000  0.19180700  1
  C  2437  1  0.02000320  0.87054000  0.20626900  1
  C  2438  1  0.99586000  0.87703800  0.21061000  1
  C  2439  1  0.97809200  0.88178100  0.19994100  1
  C  2440  1  0.98420600  0.88012700  0.18546300  1
  C  2441  1  0.99941400  0.82158400  0.12903000  1
  C  2442  1  0.01253120  0.80984000  0.13516400  1
  C  2443  1  0.97357300  0.81959500  0.12339700  1
  C  2444  1  0.96102200  0.80622400  0.12406100  1
  C  2445  1  0.97382400  0.79446300  0.13047900  1
  C  2446  1  0.99988500  0.79653100  0.13590700  1
  C  2473  1  0.09016520  0.96307100  0.13534700  1
  C  2474  1  0.98984600  0.87932400  0.22484600  1
  C  2475  1  0.96119400  0.78140500  0.13236900  1
  C  2476  1  0.13136600  0.85530300  0.04924000  1
  C  2481  1  0.28423900  0.84500000  0.59304200  1
  C  2482  1  0.30068700  0.83651300  0.60117800  1
  C  2483  1  0.30431400  0.84304800  0.61433900  1
  C  2485  1  0.27775300  0.85704600  0.60094100  1
  C  2486  1  0.26178500  0.86851500  0.59600600  1
  C  2487  1  0.25729800  0.88127600  0.60365700  1
  C  2489  1  0.25882900  0.89790900  0.62060200  1
  C  2490  1  0.24432300  0.90339500  0.60922100  1
  C  2491  1  0.24309500  0.89308300  0.59885400  1
  C  2492  1  0.26445400  0.90501000  0.63352600  1
  C  2493  1  0.27774100  0.89882200  0.64533500  1
  C  2495  1  0.29853800  0.88341100  0.65990800  1
  C  2496  1  0.29522600  0.89620700  0.66716600  1
  C  2497  1  0.28282500  0.90569200  0.65818800  1
  C  2498  1  0.31132900  0.87117200  0.66552400  1
  C  2499  1  0.31766500  0.85887600  0.65751500  1
  C  2501  1  0.32178700  0.84363800  0.63939400  1
  C  2502  1  0.33501300  0.83789700  0.65110300  1
  C  2503  1  0.33190700  0.84711300  0.66235200  1
  C  2504  1  0.31953500  0.83734900  0.62575100  1
  C  2505  1  0.33468800  0.82478200  0.62320900  1
  C  2506  1  0.32601500  0.81136800  0.62802400  1
  C  2507  1  0.34204500  0.79924500  0.62607200  1
  C  2508  1  0.36714200  0.80017200  0.61922000  1
  C  2509  1  0.37546500  0.81364600  0.61427700  1
  C  2510  1  0.35959100  0.82577400  0.61630100  1
  C  2511  1  0.31829100  0.87129100  0.68019200  1
  C  2512  1  0.29851900  0.86881000  0.69055200  1
  C  2513  1  0.30494500  0.86914200  0.70506800  1
  C  2514  1  0.33131100  0.87198600  0.70969200  1
  C  2515  1  0.35101300  0.87442400  0.69920300  1
  C  2516  1  0.34461000  0.87415700  0.68466500  1
  C  2517  1  0.25653600  0.91947100  0.63466600  1
  C  2518  1  0.27369500  0.93033300  0.62989600  1
  C  2519  1  0.26672700  0.94466500  0.63172600  1
  C  2520  1  0.24244600  0.94854300  0.63837600  1
  C  2521  1  0.22530600  0.93755300  0.64303300  1
  C  2522  1  0.23220200  0.92320400  0.64119000  1
  C  2523  1  0.25029500  0.86754300  0.58218800  1
  C  2524  1  0.26391500  0.87301600  0.57029200  1
  C  2525  1  0.22422700  0.86219500  0.58033300  1
  C  2526  1  0.21198900  0.86241900  0.56688400  1
  C  2527  1  0.22536000  0.86804700  0.55488700  1
  C  2528  1  0.25162500  0.87323800  0.55687400  1
  C  2555  1  0.33822400  0.87218300  0.72401400  1
  C  2556  1  0.23576800  0.96263900  0.64093400  1
  C  2557  1  0.21338700  0.86907400  0.54154700  1
  C  2558  1  0.38346900  0.78841800  0.61700900  1
  C  2563  1  0.78418200  0.65985900  0.43388800  1
  C  2564  1  0.80071400  0.66832000  0.42577000  1
  C  2565  1  0.80429400  0.66180000  0.41259800  1
  C  2567  1  0.77770100  0.64781200  0.42598800  1
  C  2568  1  0.76174500  0.63633900  0.43092700  1
  C  2569  1  0.75727800  0.62357400  0.42328000  1
  C  2571  1  0.75886500  0.60692700  0.40634800  1
  C  2572  1  0.74437400  0.60143700  0.41773300  1
  C  2573  1  0.74313600  0.61175100  0.42809800  1
  C  2574  1  0.76449600  0.59982500  0.39342400  1
  C  2575  1  0.77775300  0.60601700  0.38160700  1
  C  2577  1  0.79854300  0.62142900  0.36703200  1
  C  2578  1  0.79515000  0.60864900  0.35975900  1
  C  2579  1  0.78275600  0.59916100  0.36873800  1
  C  2580  1  0.81134700  0.63366600  0.36141800  1
  C  2581  1  0.81770400  0.64595800  0.36943100  1
  C  2583  1  0.82177900  0.66121000  0.38754300  1
  C  2584  1  0.83497300  0.66696000  0.37583000  1
  C  2585  1  0.83196300  0.65771500  0.36459600  1
  C  2586  1  0.81951400  0.66750100  0.40118500  1
  C  2587  1  0.83467200  0.68006500  0.40372800  1
  C  2588  1  0.82598900  0.69348300  0.39892700  1
  C  2589  1  0.84201800  0.70560600  0.40088100  1
  C  2590  1  0.86712200  0.70467500  0.40772500  1
  C  2591  1  0.87545500  0.69119800  0.41265600  1
  C  2592  1  0.85957700  0.67907200  0.41063400  1
  C  2593  1  0.81829000  0.63355500  0.34674700  1
  C  2594  1  0.79850900  0.63605000  0.33639500  1
  C  2595  1  0.80492800  0.63575400  0.32187800  1
  C  2596  1  0.83129500  0.63293400  0.31724500  1
  C  2597  1  0.85100900  0.63048000  0.32772200  1
  C  2598  1  0.84461000  0.63070500  0.34226200  1
  C  2599  1  0.75658600  0.58536200  0.39228600  1
  C  2600  1  0.77378400  0.57450300  0.39702100  1
  C  2601  1  0.76682100  0.56017000  0.39519300  1
  C  2602  1  0.74250400  0.55628900  0.38858300  1
  C  2603  1  0.72532500  0.56727600  0.38396300  1
  C  2604  1  0.73221200  0.58162700  0.38580700  1
  C  2605  1  0.75026100  0.63731000  0.44474500  1
  C  2606  1  0.76388800  0.63184300  0.45664300  1
  C  2607  1  0.72417800  0.64263700  0.44660300  1
  C  2608  1  0.71194700  0.64241600  0.46005500  1
  C  2609  1  0.72533300  0.63680100  0.47205200  1
  C  2610  1  0.75160300  0.63161700  0.47006200  1
  C  2637  1  0.83820500  0.63281600  0.30292400  1
  C  2638  1  0.73582800  0.54219200  0.38602700  1
  C  2639  1  0.71336800  0.63577400  0.48539500  1
  C  2640  1  0.88344500  0.71643000  0.40994200  1
  C  2645  1  0.03253820  0.17193900  0.10564700  1
  C  2646  1  0.04892020  0.16371800  0.09719400  1
  C  2647  1  0.05323420  0.15076700  0.10402200  1
  C  2649  1  0.02680120  0.16433200  0.11798500  1
  C  2650  1  0.01135120  0.16951600  0.12956100  1
  C  2651  1  0.00756423  0.16212900  0.14255000  1
  C  2653  1  0.00976123  0.14547200  0.15948400  1
  C  2654  1  0.99597600  0.15707800  0.16502300  1
  C  2655  1  0.99432100  0.16725800  0.15453800  1
  C  2656  1  0.01522120  0.13257500  0.16668600  1
  C  2657  1  0.02767020  0.12053800  0.16043300  1
  C  2659  1  0.04799120  0.10572900  0.14503900  1
  C  2660  1  0.04342420  0.09835600  0.15766200  1
  C  2661  1  0.03140020  0.10747900  0.16715000  1
  C  2662  1  0.06112820  0.10006000  0.13291800  1
  C  2663  1  0.06766320  0.10797700  0.12059200  1
  C  2665  1  0.07151020  0.12588700  0.10505900  1
  C  2666  1  0.08569020  0.11428800  0.09974500  1
  C  2667  1  0.08290520  0.10318400  0.10917500  1
  C  2668  1  0.06881520  0.13938900  0.09849300  1
  C  2669  1  0.08397320  0.14185700  0.08588100  1
  C  2670  1  0.07603920  0.13634800  0.07259800  1
  C  2671  1  0.09214720  0.13822600  0.06048000  1
  C  2672  1  0.11663600  0.14569600  0.06124900  1
  C  2673  1  0.12422100  0.15131500  0.07458700  1
  C  2674  1  0.10826600  0.14938000  0.08670700  1
  C  2675  1  0.06866220  0.08547200  0.13329900  1
  C  2676  1  0.05069620  0.07492500  0.12865600  1
  C  2677  1  0.05719520  0.06045400  0.12991300  1
  C  2678  1  0.08179420  0.05607500  0.13589400  1
  C  2679  1  0.09974220  0.06676500  0.14041800  1
  C  2680  1  0.09332920  0.08124700  0.13913800  1
  C  2681  1  0.00789923  0.13166100  0.18126700  1
  C  2682  1  0.02596920  0.13603800  0.19187800  1
  C  2683  1  0.01964620  0.13435100  0.20631900  1
  C  2684  1  0.99513000  0.12820000  0.21057200  1
  C  2685  1  0.97707000  0.12393500  0.19984100  1
  C  2686  1  0.98330100  0.12566500  0.18538500  1
  C  2687  1  0.99985300  0.18335300  0.12849900  1
  C  2688  1  0.01374920  0.19532800  0.13360000  1
  C  2689  1  0.97348700  0.18517800  0.12354900  1
  C  2690  1  0.96126300  0.19864400  0.12380500  1
  C  2691  1  0.97493300  0.21071200  0.12906300  1
  C  2692  1  0.00147223  0.20875600  0.13386500  1
  C  2719  1  0.08816420  0.04181200  0.13793600  1
  C  2720  1  0.98915200  0.12563800  0.22476300  1
  C  2721  1  0.96301000  0.22408000  0.13016900  1
  C  2722  1  0.13308600  0.14785500  0.04949800  1
  C  2727  1  0.53255200  0.33289700  0.92131000  1
  C  2728  1  0.54889900  0.34112700  0.92977200  1
  C  2729  1  0.55321300  0.35407800  0.92294400  1
  C  2731  1  0.52681700  0.34050400  0.90897200  1
  C  2732  1  0.51139600  0.33531300  0.89738900  1
  C  2733  1  0.50761000  0.34270100  0.88440100  1
  C  2735  1  0.50975700  0.35937200  0.86747900  1
  C  2736  1  0.49598000  0.34776500  0.86193800  1
  C  2737  1  0.49435400  0.33757700  0.87241600  1
  C  2738  1  0.51520100  0.37227500  0.86028400  1
  C  2739  1  0.52764600  0.38431100  0.86653700  1
  C  2741  1  0.54794200  0.39912400  0.88193600  1
  C  2742  1  0.54342300  0.40649000  0.86930300  1
  C  2743  1  0.53140400  0.39736700  0.85981500  1
  C  2744  1  0.56108300  0.40479300  0.89405600  1
  C  2745  1  0.56758800  0.39688100  0.90638900  1
  C  2747  1  0.57147500  0.37896300  0.92191000  1
  C  2748  1  0.58569000  0.39055400  0.92721100  1
  C  2749  1  0.58284200  0.40167100  0.91780200  1
  C  2750  1  0.56878800  0.36545800  0.92847300  1
  C  2751  1  0.58395600  0.36298900  0.94108100  1
  C  2752  1  0.57604200  0.36850600  0.95436400  1
  C  2753  1  0.59216100  0.36662700  0.96647700  1
  C  2754  1  0.61663900  0.35914700  0.96570400  1
  C  2755  1  0.62420400  0.35351900  0.95236500  1
  C  2756  1  0.60823800  0.35545600  0.94024900  1
  C  2757  1  0.56863000  0.41937800  0.89367200  1
  C  2758  1  0.55068100  0.42993000  0.89832500  1
  C  2759  1  0.55717800  0.44439800  0.89705000  1
  C  2760  1  0.58176900  0.44877300  0.89105700  1
  C  2761  1  0.59970800  0.43807900  0.88653000  1
  C  2762  1  0.59328500  0.42359800  0.88781400  1
  C  2763  1  0.50788100  0.37319000  0.84570100  1
  C  2764  1  0.52593800  0.36878200  0.83509600  1
  C  2765  1  0.51963300  0.37047400  0.82065500  1
  C  2766  1  0.49514100  0.37664600  0.81639500  1
  C  2767  1  0.47709200  0.38094000  0.82712100  1
  C  2768  1  0.48330600  0.37920600  0.84157800  1
  C  2769  1  0.49989100  0.32147700  0.89845200  1
  C  2770  1  0.51377600  0.30950200  0.89333900  1
  C  2771  1  0.47353600  0.31965100  0.90341400  1
  C  2772  1  0.46131200  0.30618500  0.90317200  1
  C  2773  1  0.47495700  0.29412100  0.89788600  1
  C  2774  1  0.50148600  0.29607800  0.89306600  1
  C  2801  1  0.58815000  0.46303400  0.88901600  1
  C  2802  1  0.48917100  0.37919000  0.80220000  1
  C  2803  1  0.46302600  0.28075600  0.89677700  1
  C  2804  1  0.63309300  0.35698500  0.97745100  1
  C  2809  1  0.54094500  0.65989600  0.59309700  1
  C  2810  1  0.52458700  0.66849200  0.60117000  1
  C  2811  1  0.52043800  0.66193700  0.61427900  1
  C  2813  1  0.54692100  0.64777700  0.60099600  1
  C  2814  1  0.56259800  0.63618300  0.59609300  1
  C  2815  1  0.56679400  0.62341500  0.60378300  1
  C  2817  1  0.56496000  0.60685300  0.62078700  1
  C  2818  1  0.57943300  0.60126000  0.60944800  1
  C  2819  1  0.58085800  0.61152900  0.59904800  1
  C  2820  1  0.55923500  0.59983100  0.63374300  1
  C  2821  1  0.54600800  0.60613000  0.64551000  1
  C  2823  1  0.52521400  0.62166000  0.65995300  1
  C  2824  1  0.52859700  0.60893200  0.66732600  1
  C  2825  1  0.54098700  0.59937100  0.65842600  1
  C  2826  1  0.51233300  0.63392800  0.66545000  1
  C  2827  1  0.50606700  0.64618600  0.65737300  1
  C  2829  1  0.50231300  0.66139900  0.63920700  1
  C  2830  1  0.48853300  0.66705800  0.65077400  1
  C  2831  1  0.49140500  0.65785900  0.66206000  1
  C  2832  1  0.50495700  0.66768300  0.62557700  1
  C  2833  1  0.48987800  0.68025200  0.62287200  1
  C  2834  1  0.49784600  0.69362200  0.62815500  1
  C  2835  1  0.48200400  0.70575100  0.62582200  1
  C  2836  1  0.45787500  0.70486800  0.61806000  1
  C  2837  1  0.45021600  0.69145500  0.61268200  1
  C  2838  1  0.46585300  0.67932100  0.61512200  1
  C  2839  1  0.50506400  0.63382200  0.68007000  1
  C  2840  1  0.52451500  0.63654300  0.69053800  1
  C  2841  1  0.51803200  0.63565400  0.70502500  1
  C  2842  1  0.49192400  0.63201600  0.70951000  1
  C  2843  1  0.47253100  0.62938700  0.69889800  1
  C  2844  1  0.47897600  0.63023600  0.68438900  1
  C  2845  1  0.56703700  0.58535900  0.63496500  1
  C  2846  1  0.54983400  0.57451100  0.63021000  1
  C  2847  1  0.55675500  0.56017300  0.63204600  1
  C  2848  1  0.58103600  0.55627700  0.63868600  1
  C  2849  1  0.59820500  0.56725200  0.64334300  1
  C  2850  1  0.59135800  0.58160700  0.64149100  1
  C  2851  1  0.57406200  0.63700300  0.58225600  1
  C  2852  1  0.56090900  0.63083600  0.57054700  1
  C  2853  1  0.59987000  0.64266500  0.58027600  1
  C  2854  1  0.61238100  0.64200000  0.56690800  1
  C  2855  1  0.59953700  0.63557000  0.55516700  1
  C  2856  1  0.57349600  0.63012400  0.55722800  1
  C  2883  1  0.48517400  0.63064400  0.72380100  1
  C  2884  1  0.58770000  0.54217600  0.64121400  1
  C  2885  1  0.61212400  0.63374400  0.54211000  1
  C  2886  1  0.44193900  0.71663400  0.61530700  1
  C  2891  1  0.04107820  0.84490300  0.43382000  1
  C  2892  1  0.02464620  0.83633000  0.42576500  1
  C  2893  1  0.02048120  0.84289300  0.41266200  1
  C  2895  1  0.04699520  0.85704100  0.42593900  1
  C  2896  1  0.06262120  0.86865000  0.43085700  1
  C  2897  1  0.06679220  0.88142600  0.42317700  1
  C  2899  1  0.06494020  0.89799800  0.40618100  1
  C  2900  1  0.07936220  0.90359800  0.41753400  1
  C  2901  1  0.08077820  0.89332800  0.42793500  1
  C  2902  1  0.05924220  0.90501700  0.39322300  1
  C  2903  1  0.04605820  0.89871500  0.38144500  1
  C  2905  1  0.02525620  0.88318800  0.36700100  1
  C  2906  1  0.02876220  0.89589600  0.35960600  1
  C  2907  1  0.04115020  0.90545400  0.36850700  1
  C  2908  1  0.01232820  0.87093000  0.36150900  1
  C  2909  1  0.00600723  0.85868500  0.36959300  1
  C  2911  1  0.00228523  0.84345700  0.38775000  1
  C  2912  1  0.98848000  0.83780700  0.37618600  1
  C  2913  1  0.99126500  0.84703500  0.36491800  1
  C  2914  1  0.00496023  0.83716000  0.40137100  1
  C  2915  1  0.98988000  0.82459300  0.40407800  1
  C  2916  1  0.99783400  0.81122500  0.39878500  1
  C  2917  1  0.98199800  0.79909400  0.40112300  1
  C  2918  1  0.95788700  0.79997500  0.40890300  1
  C  2919  1  0.95024400  0.81338500  0.41429400  1
  C  2920  1  0.96588000  0.82551900  0.41185200  1
  C  2921  1  0.00503623  0.87104400  0.34689400  1
  C  2922  1  0.02443220  0.86824700  0.33641600  1
  C  2923  1  0.01793420  0.86915400  0.32193300  1
  C  2924  1  0.99186700  0.87288700  0.31746000  1
  C  2925  1  0.97253100  0.87559300  0.32808300  1
  C  2926  1  0.97899100  0.87473100  0.34258700  1
  C  2927  1  0.06704520  0.91948900  0.39200200  1
  C  2928  1  0.04980120  0.93033900  0.39671100  1
  C  2929  1  0.05672520  0.94467600  0.39487300  1
  C  2930  1  0.08104520  0.94856900  0.38827500  1
  C  2931  1  0.09825920  0.93759400  0.38366300  1
  C  2932  1  0.09141320  0.92323900  0.38552100  1
  C  2933  1  0.07407620  0.86782600  0.44469400  1
  C  2934  1  0.06091520  0.87398500  0.45640600  1
  C  2935  1  0.09990520  0.86219000  0.44667400  1
  C  2936  1  0.11241000  0.86285400  0.46004300  1
  C  2937  1  0.09954620  0.86926800  0.47178700  1
  C  2938  1  0.07349820  0.87470300  0.46972500  1
  C  2965  1  0.98510900  0.87427800  0.30317200  1
  C  2966  1  0.08771320  0.96266800  0.38574400  1
  C  2967  1  0.11211900  0.87109000  0.48484700  1
  C  2968  1  0.94196100  0.78820600  0.41166500  1
  C  2973  1  0.79231500  0.33296800  0.10568300  1
  C  2974  1  0.77601100  0.34112400  0.09712800  1
  C  2975  1  0.77134200  0.35406000  0.10392600  1
  C  2977  1  0.79772900  0.34061600  0.11803400  1
  C  2978  1  0.81298700  0.33548500  0.12970400  1
  C  2979  1  0.81661000  0.34295400  0.14266200  1
  C  2981  1  0.81423700  0.35972200  0.15947800  1
  C  2982  1  0.82808200  0.34818500  0.16511300  1
  C  2983  1  0.82986200  0.33794300  0.15469800  1
  C  2984  1  0.80867800  0.37265700  0.16658900  1
  C  2985  1  0.79618000  0.38463000  0.16025100  1
  C  2987  1  0.77577900  0.39929400  0.14475700  1
  C  2988  1  0.78028100  0.40676000  0.15733400  1
  C  2989  1  0.79235100  0.39772400  0.16688600  1
  C  2990  1  0.76258300  0.40484800  0.13260400  1
  C  2991  1  0.75615200  0.39684000  0.12032000  1
  C  2993  1  0.75261100  0.37885000  0.10485300  1
  C  2994  1  0.73812900  0.39033900  0.09953300  1
  C  2995  1  0.74073800  0.40149700  0.10891500  1
  C  2996  1  0.75558700  0.36534300  0.09832800  1
  C  2997  1  0.74051500  0.36272600  0.08570800  1
  C  2998  1  0.74791900  0.36853800  0.07246000  1
  C  2999  1  0.73202500  0.36631600  0.06031800  1
  C  3000  1  0.70835600  0.35814200  0.06103500  1
  C  3001  1  0.70125200  0.35225200  0.07432600  1
  C  3002  1  0.71694600  0.35456800  0.08647100  1
  C  3003  1  0.75490400  0.41941700  0.13290800  1
  C  3004  1  0.77279900  0.42998200  0.12822900  1
  C  3005  1  0.76626800  0.44444600  0.12951300  1
  C  3006  1  0.74171500  0.44880200  0.13556400  1
  C  3007  1  0.72382800  0.43809200  0.14011500  1
  C  3008  1  0.73027200  0.42361700  0.13880700  1
  C  3009  1  0.81581400  0.37364500  0.18118800  1
  C  3010  1  0.79769000  0.36917900  0.19173300  1
  C  3011  1  0.80388700  0.37080900  0.20619100  1
  C  3012  1  0.82833300  0.37698100  0.21052700  1
  C  3013  1  0.84642000  0.38137400  0.19986100  1
  C  3014  1  0.84031200  0.37970400  0.18538500  1
  C  3015  1  0.82445800  0.32162700  0.12879100  1
  C  3016  1  0.81116300  0.30984600  0.13474200  1
  C  3017  1  0.85043100  0.31966600  0.12332300  1
  C  3018  1  0.86294200  0.30628600  0.12398300  1
  C  3019  1  0.84994000  0.29447900  0.13020100  1
  C  3020  1  0.82375000  0.29651800  0.13545900  1
  C  3047  1  0.73534600  0.46305900  0.13766000  1
  C  3048  1  0.83431200  0.37929500  0.22475700  1
  C  3049  1  0.86250500  0.28140300  0.13207800  1
  C  3050  1  0.69236300  0.35545400  0.04924200  1
  C  3055  1  0.29230100  0.17187700  0.92126300  1
  C  3056  1  0.27600800  0.16371700  0.92982100  1
  C  3057  1  0.27136400  0.15077700  0.92303000  1
  C  3059  1  0.29771700  0.16423100  0.90891100  1
  C  3060  1  0.31294300  0.16937000  0.89723200  1
  C  3061  1  0.31655600  0.16190200  0.88427300  1
  C  3063  1  0.31420500  0.14513000  0.86746100  1
  C  3064  1  0.32804600  0.15666900  0.86182600  1
  C  3065  1  0.32982200  0.16691100  0.87224100  1
  C  3066  1  0.30865100  0.13219500  0.86035100  1
  C  3067  1  0.29616000  0.12021900  0.86669000  1
  C  3069  1  0.27579900  0.10554800  0.88219300  1
  C  3070  1  0.28025800  0.09809100  0.86960600  1
  C  3071  1  0.29231500  0.10712900  0.86005300  1
  C  3072  1  0.26260700  0.09999100  0.89434800  1
  C  3073  1  0.25622100  0.10798800  0.90664400  1
  C  3075  1  0.25265600  0.12598200  0.92210600  1
  C  3076  1  0.23814300  0.11449800  0.92741500  1
  C  3077  1  0.24081100  0.10332900  0.91805100  1
  C  3078  1  0.25562000  0.13949100  0.92863000  1
  C  3079  1  0.24053600  0.14210700  0.94124700  1
  C  3080  1  0.24793100  0.13629500  0.95449600  1
  C  3081  1  0.23203300  0.13852000  0.96663700  1
  C  3082  1  0.20836400  0.14669400  0.96591700  1
  C  3083  1  0.20126700  0.15258200  0.95262500  1
  C  3084  1  0.21696500  0.15026400  0.94048100  1
  C  3085  1  0.25492500  0.08542300  0.89404100  1
  C  3086  1  0.27280300  0.07485600  0.89873500  1
  C  3087  1  0.26628400  0.06039300  0.89743700  1
  C  3088  1  0.24174100  0.05603800  0.89137300  1
  C  3089  1  0.22386200  0.06674800  0.88681700  1
  C  3090  1  0.23031000  0.08122300  0.88812300  1
  C  3091  1  0.31580800  0.13120200  0.84575400  1
  C  3092  1  0.29770900  0.13568200  0.83520200  1
  C  3093  1  0.30390500  0.13402700  0.82074600  1
  C  3094  1  0.32833100  0.12782600  0.81641900  1
  C  3095  1  0.34640000  0.12342800  0.82709000  1
  C  3096  1  0.34029600  0.12512600  0.84156500  1
  C  3097  1  0.32442500  0.18322600  0.89814900  1
  C  3098  1  0.31114900  0.19500700  0.89218900  1
  C  3099  1  0.35038900  0.18518300  0.90363100  1
  C  3100  1  0.36290200  0.19856400  0.90298800  1
  C  3101  1  0.34993600  0.21036500  0.89674000  1
  C  3102  1  0.32375800  0.20832900  0.89146300  1
  C  3129  1  0.23536800  0.04178100  0.88928100  1
  C  3130  1  0.33429400  0.12547900  0.80219100  1
  C  3131  1  0.36252000  0.22343500  0.89485500  1
  C  3132  1  0.19238000  0.14939100  0.97771300  1
  C  3137  1  0.92797700  0.23989700  0.40325100  1
  C  3138  1  0.92405500  0.24744700  0.41608300  1
  C  3139  1  0.90848200  0.25996800  0.41598300  1
  C  3140  1  0.89709600  0.26535900  0.40335300  1
  C  3141  1  0.90125000  0.25782600  0.39054900  1
  C  3143  1  0.91681500  0.24528600  0.39063000  1
  C  3153  1  0.42798500  0.26492400  0.62369400  1
  C  3154  1  0.42407200  0.25737500  0.61086000  1
  C  3155  1  0.40849700  0.24485400  0.61095700  1
  C  3156  1  0.39710400  0.23946100  0.62358600  1
  C  3157  1  0.40125700  0.24699400  0.63639200  1
  C  3159  1  0.41682000  0.25953400  0.63631200  1
  C  3169  1  0.17754300  0.86324800  0.00076300  1
  C  3170  1  0.17360500  0.85043800  0.00835700  1
  C  3171  1  0.15832600  0.85059000  0.02099400  1
  C  3172  1  0.14721400  0.86324900  0.02648400  1
  C  3173  1  0.15136100  0.87602900  0.01890100  1
  C  3175  1  0.16664600  0.87589600  0.00625300  1
  C  3185  1  0.67751300  0.64159200  0.02619200  1
  C  3186  1  0.67356600  0.65440100  0.01859900  1
  C  3187  1  0.65829400  0.65424800  0.00596100  1
  C  3188  1  0.64719500  0.64158500  0.00046700  1
  C  3189  1  0.65135100  0.62880700  0.00805000  1
  C  3191  1  0.66666667  0.62894200  0.02069900  1
  C  3201  1  0.39613100  0.76508900  0.62339800  1
  C  3202  1  0.39974600  0.75747300  0.61058000  1
  C  3203  1  0.41496000  0.74482600  0.61068100  1
  C  3204  1  0.42627700  0.73937500  0.62330200  1
  C  3205  1  0.42243700  0.74697900  0.63609300  1
  C  3207  1  0.40722500  0.75964100  0.63601100  1
  C  3217  1  0.89611300  0.73976100  0.40355600  1
  C  3218  1  0.89971900  0.74737500  0.41637600  1
  C  3219  1  0.91493300  0.76002200  0.41627800  1
  C  3220  1  0.92625800  0.76547500  0.40365800  1
  C  3221  1  0.92242500  0.75787300  0.39086600  1
  C  3223  1  0.90721300  0.74520900  0.39094700  1
  C  3233  1  0.14616600  0.14141800  0.02618000  1
  C  3234  1  0.15006300  0.15422800  0.01858100  1
  C  3235  1  0.16533000  0.15408200  0.00594100  1
  C  3236  1  0.17646500  0.14142700  0.00045300  1
  C  3237  1  0.17235400  0.12864700  0.00804100  1
  C  3239  1  0.15708400  0.12877400  0.02069300  1
  C  3249  1  0.64618200  0.36342000  0.00076800  1
  C  3250  1  0.65008900  0.35061000  0.00836400  1
  C  3251  1  0.66535100  0.35075600  0.02100400  1
  C  3252  1  0.67647500  0.36341400  0.02649500  1
  C  3253  1  0.67235400  0.37619400  0.01891000  1
  C  3255  1  0.65708800  0.37606500  0.00625700  1
  C  3265  1  0.42789100  0.73995000  0.90195800  1
  C  3266  1  0.41995500  0.74649100  0.91479700  1
  C  3267  1  0.40494500  0.75922500  0.91438800  1
  C  3268  1  0.39695300  0.76541200  0.90145100  1
  C  3269  1  0.40481300  0.75888200  0.88856600  1
  C  3271  1  0.41996300  0.74620100  0.88898800  1
  C  3281  1  0.92789100  0.76488900  0.12499600  1
  C  3282  1  0.91996100  0.75834800  0.11215800  1
  C  3283  1  0.90494200  0.74561600  0.11256500  1
  C  3284  1  0.89694200  0.73943000  0.12550100  1
  C  3285  1  0.90480100  0.74595900  0.13838800  1
  C  3287  1  0.91995500  0.75863900  0.13796500  1
  C  3297  1  0.67784000  0.36347800  0.50106200  1
  C  3298  1  0.66996400  0.35062700  0.50758800  1
  C  3299  1  0.65499700  0.35103700  0.52032500  1
  C  3300  1  0.64703500  0.36398600  0.52648800  1
  C  3301  1  0.65483200  0.37688300  0.51997100  1
  C  3303  1  0.66993200  0.37645900  0.50728600  1
  C  3313  1  0.17784200  0.14134700  0.52589800  1
  C  3314  1  0.16996000  0.15419900  0.51937400  1
  C  3315  1  0.15499100  0.15378800  0.50663800  1
  C  3316  1  0.14703500  0.14083900  0.50047300  1
  C  3317  1  0.15483700  0.12794200  0.50698800  1
  C  3319  1  0.16994000  0.12836600  0.51967200  1
  C  3329  1  0.89584800  0.26490100  0.12474800  1
  C  3330  1  0.90377400  0.25835800  0.11190900  1
  C  3331  1  0.91875500  0.24561500  0.11231800  1
  C  3332  1  0.92672500  0.23942300  0.12525500  1
  C  3333  1  0.91887400  0.24595400  0.13814100  1
  C  3335  1  0.90375000  0.25864400  0.13771900  1
  C  3345  1  0.39584800  0.23994000  0.90219900  1
  C  3346  1  0.40377200  0.24648300  0.91503800  1
  C  3347  1  0.41875900  0.25922300  0.91463000  1
  C  3348  1  0.42673700  0.26541600  0.90169300  1
  C  3349  1  0.41889100  0.25888500  0.88880700  1
  C  3351  1  0.40376000  0.24619600  0.88922800  1
  C  3361  1  0.64567800  0.64109500  0.52581600  1
  C  3362  1  0.65361000  0.65394900  0.51931500  1
  C  3363  1  0.66874000  0.65354800  0.50663100  1
  C  3364  1  0.67680800  0.64060500  0.50049500  1
  C  3365  1  0.66895500  0.62770300  0.50698600  1
  C  3367  1  0.65369900  0.62811900  0.51961900  1
  C  3377  1  0.14568700  0.86375000  0.50113600  1
  C  3378  1  0.15362900  0.85089500  0.50763400  1
  C  3379  1  0.16876100  0.85129700  0.52031700  1
  C  3380  1  0.17682100  0.86424200  0.52645500  1
  C  3381  1  0.16895900  0.87714200  0.51996500  1
  C  3383  1  0.15369900  0.87672500  0.50733400  1
  C  3393  1  0.99807100  0.13213500  0.24896500  1
  C  3394  1  0.00397923  0.14449600  0.25688700  1
  C  3395  1  0.00439023  0.14380900  0.27187900  1
  C  3396  1  0.99920100  0.13101400  0.27910400  1
  C  3397  1  0.99360900  0.11859000  0.27126100  1
  C  3399  1  0.99290400  0.11931900  0.25626700  1
  C  3409  1  0.49813700  0.37255700  0.77801800  1
  C  3410  1  0.50444700  0.36019000  0.77019500  1
  C  3411  1  0.50502300  0.36078400  0.75520400  1
  C  3412  1  0.49952300  0.37348000  0.74788300  1
  C  3413  1  0.49346100  0.38591200  0.75561800  1
  C  3415  1  0.49265700  0.38528100  0.77061800  1
  C  3425  1  0.24635800  0.01753200  0.89506500  1
  C  3426  1  0.25760400  0.00975200  0.90641800  1
  C  3427  1  0.25772800  0.99475000  0.90589600  1
  C  3428  1  0.24679700  0.98727100  0.89433100  1
  C  3429  1  0.23593100  0.99502300  0.88280900  1
  C  3431  1  0.23571700  0.01004100  0.88336800  1
  C  3441  1  0.74634600  0.48730700  0.13188200  1
  C  3442  1  0.75761100  0.49508800  0.12053400  1
  C  3443  1  0.75773800  0.51009000  0.12105800  1
  C  3444  1  0.74679000  0.51756900  0.13261900  1
  C  3445  1  0.73590400  0.50981700  0.14413700  1
  C  3447  1  0.73568700  0.49479800  0.14357600  1
  C  3457  1  0.82539900  0.37188800  0.24877800  1
  C  3458  1  0.81782400  0.35944200  0.25613200  1
  C  3459  1  0.81744500  0.35946300  0.27113300  1
  C  3460  1  0.82462700  0.37159400  0.27896900  1
  C  3461  1  0.83182400  0.38416200  0.27166700  1
  C  3463  1  0.83226600  0.38412200  0.25664700  1
  C  3473  1  0.32539800  0.13287500  0.77816300  1
  C  3474  1  0.31789400  0.14533100  0.77080600  1
  C  3475  1  0.31744500  0.14529600  0.75580700  1
  C  3476  1  0.32449900  0.13313900  0.74797900  1
  C  3477  1  0.33165300  0.12056800  0.75527800  1
  C  3479  1  0.33215200  0.12061800  0.77029800  1
  C  3489  1  0.57730200  0.48725900  0.89497800  1
  C  3490  1  0.56610400  0.49498400  0.90638400  1
  C  3491  1  0.56603300  0.50998800  0.90595200  1
  C  3492  1  0.57697700  0.51752600  0.89442800  1
  C  3493  1  0.58779900  0.50983400  0.88285400  1
  C  3495  1  0.58795700  0.49481100  0.88332200  1
  C  3505  1  0.07730920  0.01758900  0.13197100  1
  C  3506  1  0.06611420  0.00986700  0.12056400  1
  C  3507  1  0.06604020  0.99486300  0.12099500  1
  C  3508  1  0.07697820  0.98732300  0.13251700  1
  C  3509  1  0.08780120  0.99501300  0.14409200  1
  C  3511  1  0.08796220  0.01003500  0.14362600  1
  C  3521  1  0.32535200  0.87246600  0.77795200  1
  C  3522  1  0.31871300  0.86005500  0.77028200  1
  C  3523  1  0.31812000  0.86047000  0.75528900  1
  C  3524  1  0.32407000  0.87300300  0.74780500  1
  C  3525  1  0.33051500  0.88548900  0.75538100  1
  C  3527  1  0.33122000  0.88505000  0.77039200  1
  C  3537  1  0.82535700  0.63234400  0.24900100  1
  C  3538  1  0.81879000  0.64475300  0.25669300  1
  C  3539  1  0.81821200  0.64431500  0.27168600  1
  C  3540  1  0.82409300  0.63176100  0.27914800  1
  C  3541  1  0.83046200  0.61927800  0.27155100  1
  C  3543  1  0.83116600  0.61974000  0.25654000  1
  C  3553  1  0.49845400  0.63290200  0.77806500  1
  C  3554  1  0.50599700  0.64533600  0.77068200  1
  C  3555  1  0.50610900  0.64532900  0.75567700  1
  C  3556  1  0.49870500  0.63322200  0.74785900  1
  C  3557  1  0.49157700  0.62066000  0.75519200  1
  C  3559  1  0.49138900  0.62068700  0.77021300  1
  C  3569  1  0.99845400  0.87188800  0.24888700  1
  C  3570  1  0.00608923  0.85947800  0.25628700  1
  C  3571  1  0.00612823  0.85949300  0.27129200  1
  C  3572  1  0.99857300  0.87158400  0.27909900  1
  C  3573  1  0.99136500  0.88412300  0.27174700  1
  C  3575  1  0.99124100  0.88408500  0.25672600  1
  C  3585  1  0.74380000  0.51793600  0.39294500  1
  C  3586  1  0.75137900  0.51027300  0.40519500  1
  C  3587  1  0.75136900  0.49528300  0.40483100  1
  C  3588  1  0.74459200  0.48773600  0.39239100  1
  C  3589  1  0.73634700  0.49537200  0.38024800  1
  C  3591  1  0.73616900  0.51038600  0.38063600  1
  C  3601  1  0.24371500  0.98689700  0.63401000  1
  C  3602  1  0.25131100  0.99456100  0.62176400  1
  C  3603  1  0.25129900  0.00955000  0.62212800  1
  C  3604  1  0.24450200  0.01709600  0.63456600  1
  C  3605  1  0.23623900  0.00946000  0.64670500  1
  C  3607  1  0.23606300  0.99444500  0.64631700  1
  C  3617  1  0.07994320  0.98689700  0.39284300  1
  C  3618  1  0.07240320  0.99449400  0.40514100  1
  C  3619  1  0.07245720  0.00948400  0.40486700  1
  C  3620  1  0.07923920  0.01710100  0.39247000  1
  C  3621  1  0.08745820  0.00953000  0.38028100  1
  C  3623  1  0.08759320  0.99451300  0.38057900  1
  C  3633  1  0.57994100  0.51794800  0.63410600  1
  C  3634  1  0.57238000  0.51035400  0.62181100  1
  C  3635  1  0.57243600  0.49536200  0.62208200  1
  C  3636  1  0.57924300  0.48774300  0.63447300  1
  C  3637  1  0.58748600  0.49531200  0.64665900  1
  C  3639  1  0.58762000  0.51032800  0.64636300  1
  N  4  1  0.87546900  0.15004800  0.41298100  1
  N  8  1  0.89694300  0.12012900  0.41040600  1
  N  14  1  0.87586400  0.11925600  0.38015700  1
  N  20  1  0.85364700  0.14900900  0.38285700  1
  N  86  1  0.37554700  0.35475000  0.61400100  1
  N  90  1  0.39687700  0.38470900  0.61653800  1
  N  96  1  0.37571900  0.38559800  0.64676300  1
  N  102  1  0.35363900  0.35581000  0.64410100  1
  N  168  1  0.12463900  0.85304400  0.91047100  1
  N  172  1  0.14766900  0.85584000  0.88079500  1
  N  178  1  0.12612100  0.88600500  0.87975600  1
  N  184  1  0.10276700  0.88316300  0.90935600  1
  N  250  1  0.62464700  0.65179500  0.11647000  1
  N  254  1  0.64760800  0.64901800  0.14616000  1
  N  260  1  0.62612800  0.61883700  0.14718800  1
  N  266  1  0.60282600  0.62166800  0.11757300  1
  N  332  1  0.62854800  0.35474300  0.41298900  1
  N  336  1  0.60750500  0.38476300  0.41028400  1
  N  342  1  0.62890700  0.38545600  0.38012800  1
  N  348  1  0.65062200  0.35555500  0.38294100  1
  N  414  1  0.12846700  0.15010900  0.61399000  1
  N  418  1  0.10754300  0.12006000  0.61667200  1
  N  424  1  0.12902600  0.11935700  0.64681000  1
  N  430  1  0.15066300  0.14927000  0.64401000  1
  N  496  1  0.37943700  0.65173600  0.91051000  1
  N  500  1  0.35675300  0.64876400  0.88078200  1
  N  506  1  0.37852600  0.61863700  0.87993400  1
  N  512  1  0.40159800  0.62167200  0.90959000  1
  N  578  1  0.87941600  0.85310900  0.11642600  1
  N  582  1  0.85680000  0.85606500  0.14616800  1
  N  588  1  0.87850500  0.88621000  0.14700000  1
  N  594  1  0.90152400  0.88318500  0.11733100  1
  N  660  1  0.13058500  0.85525400  0.61363200  1
  N  664  1  0.10672800  0.88468000  0.61674400  1
  N  670  1  0.12820400  0.88554800  0.64691800  1
  N  676  1  0.15245100  0.85624100  0.64375700  1
  N  742  1  0.63054000  0.64960200  0.41329900  1
  N  746  1  0.60672600  0.62016400  0.41019800  1
  N  752  1  0.62825500  0.61928100  0.38003100  1
  N  758  1  0.65246600  0.64859900  0.38318400  1
  N  824  1  0.87993800  0.15169100  0.11636400  1
  N  828  1  0.85681200  0.14902300  0.14603800  1
  N  834  1  0.87852700  0.11890700  0.14724800  1
  N  840  1  0.90173100  0.12156900  0.11758300  1
  N  906  1  0.37994300  0.35314700  0.91059300  1
  N  910  1  0.35684100  0.35581100  0.88091800  1
  N  916  1  0.37847800  0.38594600  0.87972700  1
  N  922  1  0.40166000  0.38328600  0.90939600  1
  N  988  1  0.37491700  0.64962900  0.61362100  1
  N  992  1  0.39832700  0.62010000  0.61687500  1
  N  998  1  0.37657600  0.61941300  0.64698000  1
  N  1004  1  0.35278600  0.64885300  0.64367800  1
  N  1070  1  0.87496500  0.85519900  0.41332100  1
  N  1074  1  0.89834400  0.88474000  0.41008100  1
  N  1080  1  0.87655500  0.88544500  0.37998500  1
  N  1086  1  0.85277700  0.85599900  0.38327600  1
  N  1152  1  0.62549600  0.35320700  0.11633300  1
  N  1156  1  0.64832100  0.35607100  0.14604700  1
  N  1162  1  0.62638700  0.38615300  0.14705100  1
  N  1168  1  0.60341700  0.38327700  0.11734500  1
  N  1234  1  0.12550600  0.15163400  0.91061800  1
  N  1238  1  0.14826700  0.14878500  0.88088800  1
  N  1244  1  0.12638900  0.11869200  0.87989500  1
  N  1250  1  0.10347900  0.12155200  0.90961900  1
  N  1321  1  0.73046800  0.26311500  0.37784600  1
  N  1322  1  0.77673500  0.24250900  0.42869000  1
  N  1327  1  0.78321300  0.22814400  0.40228100  1
  N  1328  1  0.72303900  0.27724900  0.40294600  1
  N  1337  1  0.23046900  0.24170300  0.64909300  1
  N  1338  1  0.27675700  0.26231300  0.59825500  1
  N  1343  1  0.28322200  0.27667700  0.62466700  1
  N  1344  1  0.22304700  0.22757200  0.62399200  1
  N  1353  1  0.98086000  0.88876900  0.02426300  1
  N  1354  1  0.02600500  0.83778700  0.00334400  1
  N  1359  1  0.03261800  0.86418400  0.98891300  1
  N  1360  1  0.97336400  0.86368200  0.03847700  1
  N  1369  1  0.48086600  0.61606400  0.00268400  1
  N  1370  1  0.52595600  0.66705400  0.02361300  1
  N  1375  1  0.53259500  0.64065600  0.03803800  1
  N  1376  1  0.47336100  0.64115000  0.98846900  1
  N  1385  1  0.27421100  0.74163200  0.64878500  1
  N  1386  1  0.22816400  0.76248000  0.59798600  1
  N  1391  1  0.22224600  0.77695000  0.62436000  1
  N  1392  1  0.28108700  0.72738200  0.62369500  1
  N  1401  1  0.77420300  0.76322000  0.37817500  1
  N  1402  1  0.72813000  0.74236700  0.42896700  1
  N  1407  1  0.72222700  0.72789800  0.40259200  1
  N  1408  1  0.78106600  0.77746900  0.40326600  1
  N  1417  1  0.02392500  0.11591100  0.00268100  1
  N  1418  1  0.97868100  0.16687300  0.02359100  1
  N  1423  1  0.97214400  0.14047500  0.03802900  1
  N  1424  1  0.03135100  0.14099500  0.98845900  1
  N  1433  1  0.52391100  0.38893100  0.02427400  1
  N  1434  1  0.47871500  0.33796300  0.00335200  1
  N  1439  1  0.47215700  0.36436300  0.98892100  1
  N  1440  1  0.53134500  0.36384700  0.03849400  1
  N  1449  1  0.23825100  0.76530400  0.87554300  1
  N  1450  1  0.26820300  0.74023900  0.92780600  1
  N  1455  1  0.28240900  0.72785500  0.90244500  1
  N  1456  1  0.22397200  0.77762400  0.90199500  1
  N  1465  1  0.73823100  0.73953800  0.15141000  1
  N  1466  1  0.76821600  0.76459900  0.09914800  1
  N  1471  1  0.78242000  0.77698100  0.12450800  1
  N  1472  1  0.72395400  0.72722000  0.12495600  1
  N  1481  1  0.48823800  0.38990300  0.52639300  1
  N  1482  1  0.51822000  0.33762400  0.50132400  1
  N  1487  1  0.53227200  0.36302300  0.48897300  1
  N  1488  1  0.47408600  0.36346900  0.53867500  1
  N  1497  1  0.98824700  0.11492300  0.50056500  1
  N  1498  1  0.01821000  0.16720200  0.52563900  1
  N  1503  1  0.03227200  0.14180300  0.53798600  1
  N  1504  1  0.97408200  0.14135800  0.48828700  1
  N  1513  1  0.76647000  0.23952700  0.15116300  1
  N  1514  1  0.73659400  0.26461800  0.09889900  1
  N  1519  1  0.72241100  0.27700500  0.12426200  1
  N  1520  1  0.78072400  0.22720300  0.12471200  1
  N  1529  1  0.26649300  0.26531200  0.87578500  1
  N  1530  1  0.23658300  0.24022400  0.92804600  1
  N  1535  1  0.22240100  0.22783900  0.90268400  1
  N  1536  1  0.28074400  0.27763200  0.90223900  1
  N  1545  1  0.51668700  0.61468600  0.50058800  1
  N  1546  1  0.48630000  0.66694900  0.52555100  1
  N  1551  1  0.47213500  0.64155200  0.53785600  1
  N  1552  1  0.53093000  0.64113100  0.48834500  1
  N  1561  1  0.01668500  0.89015900  0.52636600  1
  N  1562  1  0.98632800  0.83789500  0.50139800  1
  N  1567  1  0.97214400  0.86329100  0.48909700  1
  N  1568  1  0.03095000  0.86371600  0.53860100  1
  N  1577  1  0.82970300  0.10574800  0.27864600  1
  N  1578  1  0.85020600  0.15727400  0.24961100  1
  N  1583  1  0.84046800  0.13277100  0.23487100  1
  N  1584  1  0.84318700  0.13050600  0.29304600  1
  N  1593  1  0.32933300  0.39867200  0.74813300  1
  N  1594  1  0.35088400  0.34749200  0.77756400  1
  N  1599  1  0.34045200  0.37201000  0.79211500  1
  N  1600  1  0.34366800  0.37381700  0.73395400  1
  N  1609  1  0.06703100  0.98767200  0.87073300  1
  N  1610  1  0.10917900  0.01718100  0.91806800  1
  N  1615  1  0.08861800  0.03165700  0.89543500  1
  N  1616  1  0.09017500  0.97321900  0.89452100  1
  N  1625  1  0.56698600  0.51716700  0.15620900  1
  N  1626  1  0.60920400  0.48765900  0.10888800  1
  N  1631  1  0.58860100  0.47318200  0.13151000  1
  N  1632  1  0.59017000  0.53162100  0.13242800  1
  N  1641  1  0.67793200  0.39660000  0.27951100  1
  N  1642  1  0.65117600  0.34721400  0.24829700  1
  N  1647  1  0.66419500  0.37184300  0.23467400  1
  N  1648  1  0.66227000  0.37088300  0.29296300  1
  N  1657  1  0.17767500  0.10812300  0.74742600  1
  N  1658  1  0.15139200  0.15758800  0.77863400  1
  N  1663  1  0.16422200  0.13293700  0.79226600  1
  N  1664  1  0.16209100  0.13383500  0.73399000  1
  N  1673  1  0.43775700  0.51725000  0.87082100  1
  N  1674  1  0.39556600  0.48749700  0.91799600  1
  N  1679  1  0.41604700  0.47313400  0.89526900  1
  N  1680  1  0.41467900  0.53157700  0.89469800  1
  N  1689  1  0.93775700  0.98759500  0.15612500  1
  N  1690  1  0.89557900  0.01735500  0.10895200  1
  N  1695  1  0.91606000  0.03171600  0.13168100  1
  N  1696  1  0.91467900  0.97327200  0.13224400  1
  N  1705  1  0.17592400  0.89813800  0.74774700  1
  N  1706  1  0.15307500  0.84747300  0.77779000  1
  N  1711  1  0.16410000  0.87205900  0.79205300  1
  N  1712  1  0.16108500  0.87296900  0.73386500  1
  N  1721  1  0.67583300  0.60661400  0.27916500  1
  N  1722  1  0.65319300  0.65735400  0.24920400  1
  N  1727  1  0.66409400  0.63277100  0.23490000  1
  N  1728  1  0.66109400  0.63174600  0.29308700  1
  N  1737  1  0.32634100  0.60822200  0.74738200  1
  N  1738  1  0.35394200  0.65753700  0.77849500  1
  N  1743  1  0.34084100  0.63294500  0.79216900  1
  N  1744  1  0.34188800  0.63395400  0.73384700  1
  N  1753  1  0.82599900  0.89655800  0.27953200  1
  N  1754  1  0.85420900  0.84729900  0.24848800  1
  N  1759  1  0.84087800  0.87184300  0.23478300  1
  N  1760  1  0.84172200  0.87086000  0.29311600  1
  N  1769  1  0.56983300  0.48779600  0.36784500  1
  N  1770  1  0.59952500  0.51777500  0.41755700  1
  N  1775  1  0.58656200  0.53200500  0.39327200  1
  N  1776  1  0.58675700  0.47361000  0.39186200  1
  N  1785  1  0.06970700  0.01703600  0.65910600  1
  N  1786  1  0.09947900  0.98706000  0.60940400  1
  N  1791  1  0.08648100  0.97282900  0.63368400  1
  N  1792  1  0.08667700  0.03122100  0.63509300  1
  N  1801  1  0.93504000  0.01717300  0.36792200  1
  N  1802  1  0.90528500  0.98692500  0.41746200  1
  N  1807  1  0.91819300  0.97282800  0.39309400  1
  N  1808  1  0.91812500  0.03123100  0.39201200  1
  N  1817  1  0.43509200  0.48766600  0.65901200  1
  N  1818  1  0.40523600  0.51792300  0.60949600  1
  N  1823  1  0.41819400  0.53201700  0.63385800  1
  N  1824  1  0.41812200  0.47361300  0.63492700  1
  N  1828  1  0.03494620  0.15004800  0.41298100  1
  N  1832  1  0.05642020  0.12012900  0.41040600  1
  N  1838  1  0.03534120  0.11925600  0.38015700  1
  N  1844  1  0.01312420  0.14900900  0.38285700  1
  N  1910  1  0.53502400  0.35475000  0.61400100  1
  N  1914  1  0.55635400  0.38470900  0.61653800  1
  N  1920  1  0.53519600  0.38559800  0.64676300  1
  N  1926  1  0.51311600  0.35581000  0.64410100  1
  N  1992  1  0.28411600  0.85304400  0.91047100  1
  N  1996  1  0.30714600  0.85584000  0.88079500  1
  N  2002  1  0.28559800  0.88600500  0.87975600  1
  N  2008  1  0.26224400  0.88316300  0.90935600  1
  N  2074  1  0.78412400  0.65179500  0.11647000  1
  N  2078  1  0.80708500  0.64901800  0.14616000  1
  N  2084  1  0.78560500  0.61883700  0.14718800  1
  N  2090  1  0.76230300  0.62166800  0.11757300  1
  N  2156  1  0.78802500  0.35474300  0.41298900  1
  N  2160  1  0.76698200  0.38476300  0.41028400  1
  N  2166  1  0.78838400  0.38545600  0.38012800  1
  N  2172  1  0.81009900  0.35555500  0.38294100  1
  N  2238  1  0.28794400  0.15010900  0.61399000  1
  N  2242  1  0.26702000  0.12006000  0.61667200  1
  N  2248  1  0.28850300  0.11935700  0.64681000  1
  N  2254  1  0.31014000  0.14927000  0.64401000  1
  N  2320  1  0.53891400  0.65173600  0.91051000  1
  N  2324  1  0.51623000  0.64876400  0.88078200  1
  N  2330  1  0.53800300  0.61863700  0.87993400  1
  N  2336  1  0.56107500  0.62167200  0.90959000  1
  N  2402  1  0.03889320  0.85310900  0.11642600  1
  N  2406  1  0.01627720  0.85606500  0.14616800  1
  N  2412  1  0.03798220  0.88621000  0.14700000  1
  N  2418  1  0.06100120  0.88318500  0.11733100  1
  N  2484  1  0.29006200  0.85525400  0.61363200  1
  N  2488  1  0.26620500  0.88468000  0.61674400  1
  N  2494  1  0.28768100  0.88554800  0.64691800  1
  N  2500  1  0.31192800  0.85624100  0.64375700  1
  N  2566  1  0.79001700  0.64960200  0.41329900  1
  N  2570  1  0.76620300  0.62016400  0.41019800  1
  N  2576  1  0.78773200  0.61928100  0.38003100  1
  N  2582  1  0.81194300  0.64859900  0.38318400  1
  N  2648  1  0.03941520  0.15169100  0.11636400  1
  N  2652  1  0.01628920  0.14902300  0.14603800  1
  N  2658  1  0.03800420  0.11890700  0.14724800  1
  N  2664  1  0.06120820  0.12156900  0.11758300  1
  N  2730  1  0.53942000  0.35314700  0.91059300  1
  N  2734  1  0.51631800  0.35581100  0.88091800  1
  N  2740  1  0.53795500  0.38594600  0.87972700  1
  N  2746  1  0.56113700  0.38328600  0.90939600  1
  N  2812  1  0.53439400  0.64962900  0.61362100  1
  N  2816  1  0.55780400  0.62010000  0.61687500  1
  N  2822  1  0.53605300  0.61941300  0.64698000  1
  N  2828  1  0.51226300  0.64885300  0.64367800  1
  N  2894  1  0.03444220  0.85519900  0.41332100  1
  N  2898  1  0.05782120  0.88474000  0.41008100  1
  N  2904  1  0.03603220  0.88544500  0.37998500  1
  N  2910  1  0.01225420  0.85599900  0.38327600  1
  N  2976  1  0.78497300  0.35320700  0.11633300  1
  N  2980  1  0.80779800  0.35607100  0.14604700  1
  N  2986  1  0.78586400  0.38615300  0.14705100  1
  N  2992  1  0.76289400  0.38327700  0.11734500  1
  N  3058  1  0.28498300  0.15163400  0.91061800  1
  N  3062  1  0.30774400  0.14878500  0.88088800  1
  N  3068  1  0.28586600  0.11869200  0.87989500  1
  N  3074  1  0.26295600  0.12155200  0.90961900  1
  N  3145  1  0.88994500  0.26311500  0.37784600  1
  N  3146  1  0.93621200  0.24250900  0.42869000  1
  N  3151  1  0.94269000  0.22814400  0.40228100  1
  N  3152  1  0.88251600  0.27724900  0.40294600  1
  N  3161  1  0.38994600  0.24170300  0.64909300  1
  N  3162  1  0.43623400  0.26231300  0.59825500  1
  N  3167  1  0.44269900  0.27667700  0.62466700  1
  N  3168  1  0.38252400  0.22757200  0.62399200  1
  N  3177  1  0.14033700  0.88876900  0.02426300  1
  N  3178  1  0.18548200  0.83778700  0.00334400  1
  N  3183  1  0.19209500  0.86418400  0.98891300  1
  N  3184  1  0.13284100  0.86368200  0.03847700  1
  N  3193  1  0.64034300  0.61606400  0.00268400  1
  N  3194  1  0.68543300  0.66705400  0.02361300  1
  N  3199  1  0.69207200  0.64065600  0.03803800  1
  N  3200  1  0.63283800  0.64115000  0.98846900  1
  N  3209  1  0.43368800  0.74163200  0.64878500  1
  N  3210  1  0.38764100  0.76248000  0.59798600  1
  N  3215  1  0.38172300  0.77695000  0.62436000  1
  N  3216  1  0.44056400  0.72738200  0.62369500  1
  N  3225  1  0.93368000  0.76322000  0.37817500  1
  N  3226  1  0.88760700  0.74236700  0.42896700  1
  N  3231  1  0.88170400  0.72789800  0.40259200  1
  N  3232  1  0.94054300  0.77746900  0.40326600  1
  N  3241  1  0.18340200  0.11591100  0.00268100  1
  N  3242  1  0.13815800  0.16687300  0.02359100  1
  N  3247  1  0.13162100  0.14047500  0.03802900  1
  N  3248  1  0.19082800  0.14099500  0.98845900  1
  N  3257  1  0.68338800  0.38893100  0.02427400  1
  N  3258  1  0.63819200  0.33796300  0.00335200  1
  N  3263  1  0.63163400  0.36436300  0.98892100  1
  N  3264  1  0.69082200  0.36384700  0.03849400  1
  N  3273  1  0.39772800  0.76530400  0.87554300  1
  N  3274  1  0.42768000  0.74023900  0.92780600  1
  N  3279  1  0.44188600  0.72785500  0.90244500  1
  N  3280  1  0.38344900  0.77762400  0.90199500  1
  N  3289  1  0.89770800  0.73953800  0.15141000  1
  N  3290  1  0.92769300  0.76459900  0.09914800  1
  N  3295  1  0.94189700  0.77698100  0.12450800  1
  N  3296  1  0.88343100  0.72722000  0.12495600  1
  N  3305  1  0.64771500  0.38990300  0.52639300  1
  N  3306  1  0.67769700  0.33762400  0.50132400  1
  N  3311  1  0.69174900  0.36302300  0.48897300  1
  N  3312  1  0.63356300  0.36346900  0.53867500  1
  N  3321  1  0.14772400  0.11492300  0.50056500  1
  N  3322  1  0.17768700  0.16720200  0.52563900  1
  N  3327  1  0.19174900  0.14180300  0.53798600  1
  N  3328  1  0.13355900  0.14135800  0.48828700  1
  N  3337  1  0.92594700  0.23952700  0.15116300  1
  N  3338  1  0.89607100  0.26461800  0.09889900  1
  N  3343  1  0.88188800  0.27700500  0.12426200  1
  N  3344  1  0.94020100  0.22720300  0.12471200  1
  N  3353  1  0.42597000  0.26531200  0.87578500  1
  N  3354  1  0.39606000  0.24022400  0.92804600  1
  N  3359  1  0.38187800  0.22783900  0.90268400  1
  N  3360  1  0.44022100  0.27763200  0.90223900  1
  N  3369  1  0.67616400  0.61468600  0.50058800  1
  N  3370  1  0.64577700  0.66694900  0.52555100  1
  N  3375  1  0.63161200  0.64155200  0.53785600  1
  N  3376  1  0.69040700  0.64113100  0.48834500  1
  N  3385  1  0.17616200  0.89015900  0.52636600  1
  N  3386  1  0.14580500  0.83789500  0.50139800  1
  N  3391  1  0.13162100  0.86329100  0.48909700  1
  N  3392  1  0.19042700  0.86371600  0.53860100  1
  N  3401  1  0.98918000  0.10574800  0.27864600  1
  N  3402  1  0.00968323  0.15727400  0.24961100  1
  N  3407  1  0.99994500  0.13277100  0.23487100  1
  N  3408  1  0.00266423  0.13050600  0.29304600  1
  N  3417  1  0.48881000  0.39867200  0.74813300  1
  N  3418  1  0.51036100  0.34749200  0.77756400  1
  N  3423  1  0.49992900  0.37201000  0.79211500  1
  N  3424  1  0.50314500  0.37381700  0.73395400  1
  N  3433  1  0.22650800  0.98767200  0.87073300  1
  N  3434  1  0.26865600  0.01718100  0.91806800  1
  N  3439  1  0.24809500  0.03165700  0.89543500  1
  N  3440  1  0.24965200  0.97321900  0.89452100  1
  N  3449  1  0.72646300  0.51716700  0.15620900  1
  N  3450  1  0.76868100  0.48765900  0.10888800  1
  N  3455  1  0.74807800  0.47318200  0.13151000  1
  N  3456  1  0.74964700  0.53162100  0.13242800  1
  N  3465  1  0.83740900  0.39660000  0.27951100  1
  N  3466  1  0.81065300  0.34721400  0.24829700  1
  N  3471  1  0.82367200  0.37184300  0.23467400  1
  N  3472  1  0.82174700  0.37088300  0.29296300  1
  N  3481  1  0.33715200  0.10812300  0.74742600  1
  N  3482  1  0.31086900  0.15758800  0.77863400  1
  N  3487  1  0.32369900  0.13293700  0.79226600  1
  N  3488  1  0.32156800  0.13383500  0.73399000  1
  N  3497  1  0.59723400  0.51725000  0.87082100  1
  N  3498  1  0.55504300  0.48749700  0.91799600  1
  N  3503  1  0.57552400  0.47313400  0.89526900  1
  N  3504  1  0.57415600  0.53157700  0.89469800  1
  N  3513  1  0.09723420  0.98759500  0.15612500  1
  N  3514  1  0.05505620  0.01735500  0.10895200  1
  N  3519  1  0.07553720  0.03171600  0.13168100  1
  N  3520  1  0.07415620  0.97327200  0.13224400  1
  N  3529  1  0.33540100  0.89813800  0.74774700  1
  N  3530  1  0.31255200  0.84747300  0.77779000  1
  N  3535  1  0.32357700  0.87205900  0.79205300  1
  N  3536  1  0.32056200  0.87296900  0.73386500  1
  N  3545  1  0.83531000  0.60661400  0.27916500  1
  N  3546  1  0.81267000  0.65735400  0.24920400  1
  N  3551  1  0.82357100  0.63277100  0.23490000  1
  N  3552  1  0.82057100  0.63174600  0.29308700  1
  N  3561  1  0.48581800  0.60822200  0.74738200  1
  N  3562  1  0.51341900  0.65753700  0.77849500  1
  N  3567  1  0.50031800  0.63294500  0.79216900  1
  N  3568  1  0.50136500  0.63395400  0.73384700  1
  N  3577  1  0.98547600  0.89655800  0.27953200  1
  N  3578  1  0.01368620  0.84729900  0.24848800  1
  N  3583  1  0.00035523  0.87184300  0.23478300  1
  N  3584  1  0.00119923  0.87086000  0.29311600  1
  N  3593  1  0.72931000  0.48779600  0.36784500  1
  N  3594  1  0.75900200  0.51777500  0.41755700  1
  N  3599  1  0.74603900  0.53200500  0.39327200  1
  N  3600  1  0.74623400  0.47361000  0.39186200  1
  N  3609  1  0.22918400  0.01703600  0.65910600  1
  N  3610  1  0.25895600  0.98706000  0.60940400  1
  N  3615  1  0.24595800  0.97282900  0.63368400  1
  N  3616  1  0.24615400  0.03122100  0.63509300  1
  N  3625  1  0.09451720  0.01717300  0.36792200  1
  N  3626  1  0.06476220  0.98692500  0.41746200  1
  N  3631  1  0.07767020  0.97282800  0.39309400  1
  N  3632  1  0.07760220  0.03123100  0.39201200  1
  N  3641  1  0.59456900  0.48766600  0.65901200  1
  N  3642  1  0.56471300  0.51792300  0.60949600  1
  N  3647  1  0.57767100  0.53201700  0.63385800  1
  N  3648  1  0.57759900  0.47361300  0.63492700  1
  O  1323  1  0.71453400  0.25434300  0.37248300  1
  O  1324  1  0.79287400  0.25145200  0.43357600  1
  O  1325  1  0.75966900  0.23973800  0.43804500  1
  O  1326  1  0.74815200  0.26601300  0.36886300  1
  O  1339  1  0.21453500  0.25047400  0.65445500  1
  O  1340  1  0.29289800  0.25337100  0.59337000  1
  O  1341  1  0.25969700  0.26508500  0.58889800  1
  O  1342  1  0.24814900  0.23880300  0.65807700  1
  O  1355  1  0.96479400  0.89419000  0.01559600  1
  O  1356  1  0.04228800  0.83284400  0.01218000  1
  O  1357  1  0.00875400  0.82849400  0.00068800  1
  O  1358  1  0.99871900  0.89769000  0.02704600  1
  O  1371  1  0.46480300  0.61063800  0.01134900  1
  O  1372  1  0.54223900  0.67200200  0.01477800  1
  O  1373  1  0.50869900  0.67634400  0.02626900  1
  O  1374  1  0.49873800  0.60714900  0.99990100  1
  O  1387  1  0.29042800  0.75029100  0.65409200  1
  O  1388  1  0.21173800  0.75365800  0.59315500  1
  O  1389  1  0.24524000  0.76509200  0.58859200  1
  O  1390  1  0.25651500  0.73889700  0.65781400  1
  O  1403  1  0.79042200  0.75456200  0.37286800  1
  O  1404  1  0.71170200  0.75118900  0.43379700  1
  O  1405  1  0.74520200  0.73975500  0.43836500  1
  O  1406  1  0.75651100  0.76595700  0.36914600  1
  O  1419  1  0.04001300  0.11050500  0.01134600  1
  O  1420  1  0.96237600  0.17180100  0.01475700  1
  O  1421  1  0.99591000  0.17618000  0.02623900  1
  O  1422  1  0.00608300  0.10697700  0.99990700  1
  O  1435  1  0.53999600  0.39434400  0.01561200  1
  O  1436  1  0.46241300  0.33303100  0.01218400  1
  O  1437  1  0.49595100  0.32866000  0.00070300  1
  O  1438  1  0.50606000  0.39785900  0.02705000  1
  O  1451  1  0.22409000  0.75718200  0.86813700  1
  O  1452  1  0.28264000  0.74847700  0.93492700  1
  O  1453  1  0.24823100  0.73690200  0.93512300  1
  O  1454  1  0.25853900  0.76871600  0.86850900  1
  O  1467  1  0.72407100  0.74766100  0.15881600  1
  O  1468  1  0.78265300  0.75635800  0.09202900  1
  O  1469  1  0.74824800  0.76793700  0.09182900  1
  O  1470  1  0.75851400  0.73612500  0.15844400  1
  O  1483  1  0.47402700  0.39729000  0.51827900  1
  O  1484  1  0.53269400  0.33050900  0.50954800  1
  O  1485  1  0.49825100  0.33029700  0.49800500  1
  O  1486  1  0.50851000  0.39695900  0.52978200  1
  O  1499  1  0.97404000  0.10753400  0.50867900  1
  O  1500  1  0.03268200  0.17432000  0.51741500  1
  O  1501  1  0.99823900  0.17452600  0.52896200  1
  O  1502  1  0.00852300  0.10787000  0.49717400  1
  O  1515  1  0.78064800  0.24763900  0.15857000  1
  O  1516  1  0.72214100  0.25639100  0.09177500  1
  O  1517  1  0.75657700  0.26794300  0.09158600  1
  O  1518  1  0.74617700  0.23612700  0.15819700  1
  O  1531  1  0.28067000  0.25719700  0.86837800  1
  O  1532  1  0.22213000  0.24845400  0.93516900  1
  O  1533  1  0.25656100  0.23689600  0.93536200  1
  O  1534  1  0.24620300  0.26871400  0.86875100  1
  O  1547  1  0.53080700  0.60730200  0.50875000  1
  O  1548  1  0.47192100  0.67405800  0.51727500  1
  O  1549  1  0.50621500  0.67428500  0.52894400  1
  O  1550  1  0.49646500  0.60762600  0.49712800  1
  O  1563  1  0.03079800  0.89754700  0.51820200  1
  O  1564  1  0.97195300  0.83078200  0.50967300  1
  O  1565  1  0.00624500  0.83056400  0.49800100  1
  O  1566  1  0.99645900  0.89721700  0.52982900  1
  O  1579  1  0.80681400  0.10094500  0.27615100  1
  O  1580  1  0.87331600  0.16162500  0.25235000  1
  O  1581  1  0.83379800  0.16682700  0.25279200  1
  O  1582  1  0.84661200  0.09651200  0.27528300  1
  O  1595  1  0.30632000  0.40335100  0.75054600  1
  O  1596  1  0.37411000  0.34326400  0.77491000  1
  O  1597  1  0.33470900  0.33782300  0.77439600  1
  O  1598  1  0.34600600  0.40803700  0.75147400  1
  O  1611  1  0.04280000  0.99023100  0.86851000  1
  O  1612  1  0.09733100  0.01414400  0.92940900  1
  O  1613  1  0.13355900  0.01448100  0.91951600  1
  O  1614  1  0.08007800  0.99089000  0.85982200  1
  O  1627  1  0.54275100  0.51460900  0.15842100  1
  O  1628  1  0.59737400  0.49069800  0.09754200  1
  O  1629  1  0.63358600  0.49035700  0.10745000  1
  O  1630  1  0.58001500  0.51394600  0.16712400  1
  O  1643  1  0.70119200  0.40095400  0.27716200  1
  O  1644  1  0.62759100  0.34351700  0.25084400  1
  O  1645  1  0.66643600  0.33700800  0.25103800  1
  O  1646  1  0.66178900  0.40636500  0.27660500  1
  O  1659  1  0.20092600  0.10374200  0.74975100  1
  O  1660  1  0.12783100  0.16134300  0.77610800  1
  O  1661  1  0.16673500  0.16774900  0.77585700  1
  O  1662  1  0.16150700  0.09837600  0.75035900  1
  O  1675  1  0.46197800  0.51467900  0.86857400  1
  O  1676  1  0.40744300  0.49045500  0.92934800  1
  O  1677  1  0.37120000  0.49021300  0.91947100  1
  O  1678  1  0.42468800  0.51411100  0.85989700  1
  O  1691  1  0.96197600  0.99016500  0.15837200  1
  O  1692  1  0.90745800  0.01439800  0.09760000  1
  O  1693  1  0.87121100  0.01464000  0.10747600  1
  O  1694  1  0.92468600  0.99073300  0.16705000  1
  O  1707  1  0.19899500  0.90274900  0.75013400  1
  O  1708  1  0.12977400  0.84333800  0.77517200  1
  O  1709  1  0.16907400  0.83768700  0.77472300  1
  O  1710  1  0.15939300  0.90762000  0.75096100  1
  O  1723  1  0.69888600  0.60198500  0.27676700  1
  O  1724  1  0.62991200  0.66151100  0.25183600  1
  O  1725  1  0.66923500  0.66711700  0.25227800  1
  O  1726  1  0.65926600  0.59715300  0.27594100  1
  O  1739  1  0.30311500  0.60388300  0.74984800  1
  O  1740  1  0.37751900  0.66117100  0.77583700  1
  O  1741  1  0.33873600  0.66778900  0.77584300  1
  O  1742  1  0.34252000  0.59844800  0.75020100  1
  O  1755  1  0.80275100  0.90084700  0.27703000  1
  O  1756  1  0.87781500  0.84374200  0.25117800  1
  O  1757  1  0.83910800  0.83699800  0.25112200  1
  O  1758  1  0.84212200  0.90636300  0.27672700  1
  O  1771  1  0.54619400  0.49036500  0.36426300  1
  O  1772  1  0.58444900  0.51490200  0.42780400  1
  O  1773  1  0.62313200  0.51498000  0.42103700  1
  O  1774  1  0.58494700  0.49086000  0.35766900  1
  O  1787  1  0.04606200  0.01446600  0.66267900  1
  O  1788  1  0.08441700  0.98993200  0.59915200  1
  O  1789  1  0.12309000  0.98985600  0.60593300  1
  O  1790  1  0.08480600  0.01397200  0.66928700  1
  O  1803  1  0.95867400  0.01460600  0.36432500  1
  O  1804  1  0.92037600  0.98972500  0.42772200  1
  O  1805  1  0.88168900  0.98972200  0.42096300  1
  O  1806  1  0.91992100  0.01418000  0.35772700  1
  O  1819  1  0.45873300  0.49023100  0.66259500  1
  O  1820  1  0.42030700  0.51512500  0.59922600  1
  O  1821  1  0.38163300  0.51512600  0.60600900  1
  O  1822  1  0.41999400  0.49065500  0.66921600  1
  O  3147  1  0.87401100  0.25434300  0.37248300  1
  O  3148  1  0.95235100  0.25145200  0.43357600  1
  O  3149  1  0.91914600  0.23973800  0.43804500  1
  O  3150  1  0.90762900  0.26601300  0.36886300  1
  O  3163  1  0.37401200  0.25047400  0.65445500  1
  O  3164  1  0.45237500  0.25337100  0.59337000  1
  O  3165  1  0.41917400  0.26508500  0.58889800  1
  O  3166  1  0.40762600  0.23880300  0.65807700  1
  O  3179  1  0.12427100  0.89419000  0.01559600  1
  O  3180  1  0.20176500  0.83284400  0.01218000  1
  O  3181  1  0.16823100  0.82849400  0.00068800  1
  O  3182  1  0.15819600  0.89769000  0.02704600  1
  O  3195  1  0.62428000  0.61063800  0.01134900  1
  O  3196  1  0.70171600  0.67200200  0.01477800  1
  O  3197  1  0.66817600  0.67634400  0.02626900  1
  O  3198  1  0.65821500  0.60714900  0.99990100  1
  O  3211  1  0.44990500  0.75029100  0.65409200  1
  O  3212  1  0.37121500  0.75365800  0.59315500  1
  O  3213  1  0.40471700  0.76509200  0.58859200  1
  O  3214  1  0.41599200  0.73889700  0.65781400  1
  O  3227  1  0.94989900  0.75456200  0.37286800  1
  O  3228  1  0.87117900  0.75118900  0.43379700  1
  O  3229  1  0.90467900  0.73975500  0.43836500  1
  O  3230  1  0.91598800  0.76595700  0.36914600  1
  O  3243  1  0.19949000  0.11050500  0.01134600  1
  O  3244  1  0.12185300  0.17180100  0.01475700  1
  O  3245  1  0.15538700  0.17618000  0.02623900  1
  O  3246  1  0.16556000  0.10697700  0.99990700  1
  O  3259  1  0.69947300  0.39434400  0.01561200  1
  O  3260  1  0.62189000  0.33303100  0.01218400  1
  O  3261  1  0.65542800  0.32866000  0.00070300  1
  O  3262  1  0.66553700  0.39785900  0.02705000  1
  O  3275  1  0.38356700  0.75718200  0.86813700  1
  O  3276  1  0.44211700  0.74847700  0.93492700  1
  O  3277  1  0.40770800  0.73690200  0.93512300  1
  O  3278  1  0.41801600  0.76871600  0.86850900  1
  O  3291  1  0.88354800  0.74766100  0.15881600  1
  O  3292  1  0.94213000  0.75635800  0.09202900  1
  O  3293  1  0.90772500  0.76793700  0.09182900  1
  O  3294  1  0.91799100  0.73612500  0.15844400  1
  O  3307  1  0.63350400  0.39729000  0.51827900  1
  O  3308  1  0.69217100  0.33050900  0.50954800  1
  O  3309  1  0.65772800  0.33029700  0.49800500  1
  O  3310  1  0.66798700  0.39695900  0.52978200  1
  O  3323  1  0.13351700  0.10753400  0.50867900  1
  O  3324  1  0.19215900  0.17432000  0.51741500  1
  O  3325  1  0.15771600  0.17452600  0.52896200  1
  O  3326  1  0.16800000  0.10787000  0.49717400  1
  O  3339  1  0.94012500  0.24763900  0.15857000  1
  O  3340  1  0.88161800  0.25639100  0.09177500  1
  O  3341  1  0.91605400  0.26794300  0.09158600  1
  O  3342  1  0.90565400  0.23612700  0.15819700  1
  O  3355  1  0.44014700  0.25719700  0.86837800  1
  O  3356  1  0.38160700  0.24845400  0.93516900  1
  O  3357  1  0.41603800  0.23689600  0.93536200  1
  O  3358  1  0.40568000  0.26871400  0.86875100  1
  O  3371  1  0.69028400  0.60730200  0.50875000  1
  O  3372  1  0.63139800  0.67405800  0.51727500  1
  O  3373  1  0.66569200  0.67428500  0.52894400  1
  O  3374  1  0.65594200  0.60762600  0.49712800  1
  O  3387  1  0.19027500  0.89754700  0.51820200  1
  O  3388  1  0.13143000  0.83078200  0.50967300  1
  O  3389  1  0.16572200  0.83056400  0.49800100  1
  O  3390  1  0.15593600  0.89721700  0.52982900  1
  O  3403  1  0.96629100  0.10094500  0.27615100  1
  O  3404  1  0.03279320  0.16162500  0.25235000  1
  O  3405  1  0.99327500  0.16682700  0.25279200  1
  O  3406  1  0.00608923  0.09651200  0.27528300  1
  O  3419  1  0.46579700  0.40335100  0.75054600  1
  O  3420  1  0.53358700  0.34326400  0.77491000  1
  O  3421  1  0.49418600  0.33782300  0.77439600  1
  O  3422  1  0.50548300  0.40803700  0.75147400  1
  O  3435  1  0.20227700  0.99023100  0.86851000  1
  O  3436  1  0.25680800  0.01414400  0.92940900  1
  O  3437  1  0.29303600  0.01448100  0.91951600  1
  O  3438  1  0.23955500  0.99089000  0.85982200  1
  O  3451  1  0.70222800  0.51460900  0.15842100  1
  O  3452  1  0.75685100  0.49069800  0.09754200  1
  O  3453  1  0.79306300  0.49035700  0.10745000  1
  O  3454  1  0.73949200  0.51394600  0.16712400  1
  O  3467  1  0.86066900  0.40095400  0.27716200  1
  O  3468  1  0.78706800  0.34351700  0.25084400  1
  O  3469  1  0.82591300  0.33700800  0.25103800  1
  O  3470  1  0.82126600  0.40636500  0.27660500  1
  O  3483  1  0.36040300  0.10374200  0.74975100  1
  O  3484  1  0.28730800  0.16134300  0.77610800  1
  O  3485  1  0.32621200  0.16774900  0.77585700  1
  O  3486  1  0.32098400  0.09837600  0.75035900  1
  O  3499  1  0.62145500  0.51467900  0.86857400  1
  O  3500  1  0.56692000  0.49045500  0.92934800  1
  O  3501  1  0.53067700  0.49021300  0.91947100  1
  O  3502  1  0.58416500  0.51411100  0.85989700  1
  O  3515  1  0.12145300  0.99016500  0.15837200  1
  O  3516  1  0.06693520  0.01439800  0.09760000  1
  O  3517  1  0.03068820  0.01464000  0.10747600  1
  O  3518  1  0.08416320  0.99073300  0.16705000  1
  O  3531  1  0.35847200  0.90274900  0.75013400  1
  O  3532  1  0.28925100  0.84333800  0.77517200  1
  O  3533  1  0.32855100  0.83768700  0.77472300  1
  O  3534  1  0.31887000  0.90762000  0.75096100  1
  O  3547  1  0.85836300  0.60198500  0.27676700  1
  O  3548  1  0.78938900  0.66151100  0.25183600  1
  O  3549  1  0.82871200  0.66711700  0.25227800  1
  O  3550  1  0.81874300  0.59715300  0.27594100  1
  O  3563  1  0.46259200  0.60388300  0.74984800  1
  O  3564  1  0.53699600  0.66117100  0.77583700  1
  O  3565  1  0.49821300  0.66778900  0.77584300  1
  O  3566  1  0.50199700  0.59844800  0.75020100  1
  O  3579  1  0.96222800  0.90084700  0.27703000  1
  O  3580  1  0.03729220  0.84374200  0.25117800  1
  O  3581  1  0.99858500  0.83699800  0.25112200  1
  O  3582  1  0.00159923  0.90636300  0.27672700  1
  O  3595  1  0.70567100  0.49036500  0.36426300  1
  O  3596  1  0.74392600  0.51490200  0.42780400  1
  O  3597  1  0.78260900  0.51498000  0.42103700  1
  O  3598  1  0.74442400  0.49086000  0.35766900  1
  O  3611  1  0.20553900  0.01446600  0.66267900  1
  O  3612  1  0.24389400  0.98993200  0.59915200  1
  O  3613  1  0.28256700  0.98985600  0.60593300  1
  O  3614  1  0.24428300  0.01397200  0.66928700  1
  O  3627  1  0.11815100  0.01460600  0.36432500  1
  O  3628  1  0.07985320  0.98972500  0.42772200  1
  O  3629  1  0.04116620  0.98972200  0.42096300  1
  O  3630  1  0.07939820  0.01418000  0.35772700  1
  O  3643  1  0.61821000  0.49023100  0.66259500  1
  O  3644  1  0.57978400  0.51512500  0.59922600  1
  O  3645  1  0.54111000  0.51512600  0.60600900  1
  O  3646  1  0.57947100  0.49065500  0.66921600  1
