# generated using pymatgen
data_H34C47N10
_symmetry_space_group_name_H-M   'P 1'
_cell_length_a   54.74790000
_cell_length_b   61.87930000
_cell_length_c   61.98580000
_cell_angle_alpha   90.00000000
_cell_angle_beta   89.98040000
_cell_angle_gamma   90.00000000
_symmetry_Int_Tables_number   1
_chemical_formula_structural   H34C47N10
_chemical_formula_sum   'H544 C752 N160'
_cell_volume   209993.10866171
_cell_formula_units_Z   16
loop_
 _symmetry_equiv_pos_site_id
 _symmetry_equiv_pos_as_xyz
  1  'x, y, z'
loop_
 _atom_site_type_symbol
 _atom_site_label
 _atom_site_symmetry_multiplicity
 _atom_site_fract_x
 _atom_site_fract_y
 _atom_site_fract_z
 _atom_site_occupancy
  H  26  1  0.82697400  0.09151800  0.35503700  1
  H  27  1  0.83657100  0.12907200  0.35420600  1
  H  28  1  0.89451100  0.07859700  0.38491300  1
  H  29  1  0.90441600  0.11573700  0.38365400  1
  H  30  1  0.91744000  0.13591000  0.34572500  1
  H  31  1  0.92625700  0.13616900  0.30805900  1
  H  32  1  0.85897900  0.16688600  0.29593600  1
  H  33  1  0.84983000  0.16615900  0.33317500  1
  H  34  1  0.87528700  0.19458000  0.36112200  1
  H  35  1  0.84438700  0.22037200  0.36898300  1
  H  36  1  0.80316900  0.17215000  0.40034000  1
  H  37  1  0.83416500  0.14636600  0.39281200  1
  H  38  1  0.88009400  0.14531300  0.41176400  1
  H  39  1  0.92123400  0.17477200  0.36224200  1
  H  40  1  0.95268000  0.18282400  0.38753300  1
  H  45  1  0.91111600  0.15405200  0.43701200  1
  H  71  1  0.32695300  0.41107700  0.58572800  1
  H  72  1  0.33655000  0.37352700  0.58657200  1
  H  73  1  0.39449600  0.42399000  0.55581800  1
  H  74  1  0.40440100  0.38684500  0.55709100  1
  H  75  1  0.41743200  0.36666400  0.59501500  1
  H  76  1  0.42625700  0.36640300  0.63267300  1
  H  77  1  0.35894000  0.33575500  0.64485200  1
  H  78  1  0.34978900  0.33648400  0.60762100  1
  H  79  1  0.37523500  0.30801100  0.57967000  1
  H  80  1  0.34431600  0.28222300  0.57184500  1
  H  81  1  0.30314000  0.33044800  0.54046600  1
  H  82  1  0.33415200  0.35621900  0.54796400  1
  H  83  1  0.38007100  0.35726000  0.52900300  1
  H  84  1  0.42117600  0.32778500  0.57851400  1
  H  85  1  0.45262400  0.31971400  0.55321100  1
  H  90  1  0.41109500  0.34849900  0.50374500  1
  H  116  1  0.07571900  0.86295900  0.81010300  1
  H  117  1  0.08407100  0.86300400  0.84782400  1
  H  118  1  0.14829900  0.84433000  0.79750300  1
  H  119  1  0.15662600  0.84410400  0.83495900  1
  H  120  1  0.16886500  0.87623000  0.85899000  1
  H  121  1  0.17700400  0.91402600  0.85962800  1
  H  122  1  0.10541000  0.92582500  0.88161100  1
  H  123  1  0.09707600  0.88826900  0.88067600  1
  H  124  1  0.12331300  0.86314800  0.91290000  1
  H  125  1  0.09258000  0.85500900  0.93866200  1
  H  126  1  0.05500400  0.81810700  0.89212400  1
  H  127  1  0.08592600  0.82602700  0.86630500  1
  H  128  1  0.13119500  0.81044300  0.86094300  1
  H  129  1  0.16835200  0.85832100  0.89659700  1
  H  130  1  0.19987800  0.83299100  0.90464600  1
  H  135  1  0.16221400  0.78514100  0.86956200  1
  H  161  1  0.57571700  0.63960900  0.13061600  1
  H  162  1  0.58407900  0.63954800  0.09289200  1
  H  163  1  0.64825300  0.65837500  0.14317700  1
  H  164  1  0.65659100  0.65858700  0.10571500  1
  H  165  1  0.66881300  0.62637900  0.08173800  1
  H  166  1  0.67696800  0.58858100  0.08107600  1
  H  167  1  0.60543100  0.57677600  0.05899700  1
  H  168  1  0.59707100  0.61432600  0.05995900  1
  H  169  1  0.62331700  0.63948300  0.02779100  1
  H  170  1  0.59257400  0.64759800  0.00204200  1
  H  171  1  0.55492500  0.68442600  0.04861700  1
  H  172  1  0.58585300  0.67653000  0.07442000  1
  H  173  1  0.63113300  0.69217000  0.07968700  1
  H  174  1  0.66836700  0.64425400  0.04412000  1
  H  175  1  0.69990600  0.66958100  0.03607200  1
  H  180  1  0.66216400  0.71746600  0.07106500  1
  H  206  1  0.67657900  0.41395200  0.35522600  1
  H  207  1  0.66777200  0.37622700  0.35525900  1
  H  208  1  0.60920100  0.42636000  0.38564000  1
  H  209  1  0.60007100  0.38905200  0.38521000  1
  H  210  1  0.58691000  0.36779200  0.34828300  1
  H  211  1  0.57738300  0.36666000  0.31078700  1
  H  212  1  0.64494000  0.33659500  0.29821400  1
  H  213  1  0.65477600  0.33816300  0.33529000  1
  H  214  1  0.63026300  0.31017600  0.36491100  1
  H  215  1  0.66123800  0.28487500  0.37375700  1
  H  216  1  0.70286200  0.33450300  0.40226100  1
  H  217  1  0.67145800  0.35985200  0.39410700  1
  H  218  1  0.62537000  0.36115800  0.41381700  1
  H  219  1  0.58445000  0.32918300  0.36572700  1
  H  220  1  0.55336700  0.32174700  0.39141300  1
  H  225  1  0.59437400  0.35339600  0.43952500  1
  H  251  1  0.17658200  0.08863100  0.58546500  1
  H  252  1  0.16774900  0.12635200  0.58544000  1
  H  253  1  0.10924700  0.07620100  0.55502700  1
  H  254  1  0.10009200  0.11350200  0.55546300  1
  H  255  1  0.08690200  0.13473700  0.59241300  1
  H  256  1  0.07734900  0.13586000  0.62990800  1
  H  257  1  0.14485200  0.16600200  0.64247500  1
  H  258  1  0.15471700  0.16443800  0.60539700  1
  H  259  1  0.13021800  0.19239100  0.57577000  1
  H  260  1  0.16118300  0.21770000  0.56691400  1
  H  261  1  0.20284600  0.16808200  0.53840900  1
  H  262  1  0.17144900  0.14272200  0.54657200  1
  H  263  1  0.12535900  0.14138800  0.52687700  1
  H  264  1  0.08440100  0.17335400  0.57497400  1
  H  265  1  0.05335100  0.18081300  0.54928600  1
  H  270  1  0.09439500  0.14917600  0.50116900  1
  H  296  1  0.42758400  0.63981100  0.80729000  1
  H  297  1  0.41993900  0.64058400  0.84513200  1
  H  298  1  0.35503600  0.65901000  0.79542000  1
  H  299  1  0.34742700  0.66006700  0.83299300  1
  H  300  1  0.33508700  0.62902900  0.85811300  1
  H  301  1  0.32625400  0.59138300  0.85962100  1
  H  302  1  0.39799500  0.57894800  0.88080900  1
  H  303  1  0.40702400  0.61634800  0.87901300  1
  H  304  1  0.38170800  0.64325700  0.91092000  1
  H  305  1  0.41253500  0.65233600  0.93617400  1
  H  306  1  0.45065500  0.68647000  0.88795600  1
  H  307  1  0.41927100  0.67799100  0.86265000  1
  H  308  1  0.37368600  0.69405900  0.85701300  1
  H  309  1  0.33694800  0.64790900  0.89526500  1
  H  310  1  0.30584200  0.67367200  0.90277100  1
  H  315  1  0.34270700  0.71979300  0.86472900  1
  H  341  1  0.92759400  0.86275500  0.13343800  1
  H  342  1  0.91994800  0.86198900  0.09560000  1
  H  343  1  0.85500300  0.84369700  0.14535200  1
  H  344  1  0.84739300  0.84264600  0.10778600  1
  H  345  1  0.83502800  0.87357600  0.08261400  1
  H  346  1  0.82618500  0.91122000  0.08109800  1
  H  347  1  0.89796900  0.92367400  0.05998300  1
  H  348  1  0.90700300  0.88627200  0.06178700  1
  H  349  1  0.88170500  0.85939800  0.02984100  1
  H  350  1  0.91253200  0.85031600  0.00457400  1
  H  351  1  0.95058300  0.81609500  0.05274900  1
  H  352  1  0.91919500  0.82457900  0.07807000  1
  H  353  1  0.87362300  0.80856700  0.08379500  1
  H  354  1  0.83696900  0.85468100  0.04546800  1
  H  355  1  0.80585000  0.82892900  0.03798500  1
  H  360  1  0.84262600  0.78283800  0.07611200  1
  H  386  1  0.17625800  0.91109400  0.58270000  1
  H  387  1  0.16763500  0.87335600  0.58258800  1
  H  388  1  0.10384700  0.92417500  0.56393000  1
  H  389  1  0.09524300  0.88669200  0.56354600  1
  H  390  1  0.08280000  0.86256800  0.59560000  1
  H  391  1  0.07468700  0.86203100  0.63334900  1
  H  392  1  0.14608500  0.83954400  0.64508800  1
  H  393  1  0.15441000  0.84039700  0.60759300  1
  H  394  1  0.12819700  0.80837200  0.58236300  1
  H  395  1  0.15895700  0.78259100  0.57421400  1
  H  396  1  0.19660300  0.82931600  0.53754300  1
  H  397  1  0.16567100  0.85514200  0.54547000  1
  H  398  1  0.12048100  0.86067500  0.52995300  1
  H  399  1  0.08312100  0.82489100  0.57759000  1
  H  400  1  0.05163600  0.81695000  0.55222400  1
  H  405  1  0.08950000  0.85217300  0.50462400  1
  H  431  1  0.67625400  0.59148200  0.35801700  1
  H  432  1  0.66765300  0.62922000  0.35813500  1
  H  433  1  0.60380600  0.57842600  0.37672500  1
  H  434  1  0.59522500  0.61591500  0.37711800  1
  H  435  1  0.58278400  0.64009700  0.34511000  1
  H  436  1  0.57468000  0.64063400  0.30736600  1
  H  437  1  0.64615400  0.66292900  0.29558200  1
  H  438  1  0.65446300  0.66208200  0.33307600  1
  H  439  1  0.62828900  0.69421100  0.35826000  1
  H  440  1  0.65908100  0.71997100  0.36637700  1
  H  441  1  0.69659300  0.67326200  0.40315600  1
  H  442  1  0.66563500  0.64746200  0.39525100  1
  H  443  1  0.62046000  0.64191200  0.41073300  1
  H  444  1  0.58321000  0.67777900  0.36311400  1
  H  445  1  0.55171400  0.68574600  0.38847900  1
  H  450  1  0.58946900  0.65043900  0.43606200  1
  H  476  1  0.92853200  0.14613100  0.13059400  1
  H  477  1  0.92016900  0.14572300  0.09296600  1
  H  478  1  0.85337300  0.15237900  0.14372400  1
  H  479  1  0.84496400  0.15237800  0.10618900  1
  H  480  1  0.83097400  0.12635700  0.07563700  1
  H  481  1  0.82331000  0.08854500  0.07582300  1
  H  482  1  0.89862400  0.07641100  0.06896300  1
  H  483  1  0.90632700  0.11413600  0.06834300  1
  H  484  1  0.88230100  0.13381400  0.02973200  1
  H  485  1  0.91292800  0.14187600  0.00396700  1
  H  486  1  0.94284000  0.18838400  0.04604200  1
  H  487  1  0.91200900  0.18033000  0.07201100  1
  H  488  1  0.86813600  0.19084100  0.08444400  1
  H  489  1  0.83798300  0.14631400  0.04038700  1
  H  490  1  0.80653700  0.17165000  0.03187700  1
  H  495  1  0.83732700  0.21610300  0.07555700  1
  H  521  1  0.42856100  0.35641600  0.81014200  1
  H  522  1  0.42018800  0.35686400  0.84777400  1
  H  523  1  0.35340000  0.35019900  0.79704700  1
  H  524  1  0.34497900  0.35024000  0.83458600  1
  H  525  1  0.33099500  0.37625000  0.86515500  1
  H  526  1  0.32332900  0.41406400  0.86499100  1
  H  527  1  0.39864400  0.42619600  0.87179600  1
  H  528  1  0.40635200  0.38847200  0.87239000  1
  H  529  1  0.38232000  0.36881100  0.91101900  1
  H  530  1  0.41295100  0.36076000  0.93676900  1
  H  531  1  0.44286800  0.31424100  0.89469100  1
  H  532  1  0.41203600  0.32228400  0.86873600  1
  H  533  1  0.36817100  0.31177100  0.85630600  1
  H  534  1  0.33800000  0.35628200  0.90039300  1
  H  535  1  0.30654500  0.33094400  0.90889500  1
  H  540  1  0.33735400  0.28650900  0.86518700  1
  H  566  1  0.32448600  0.58852400  0.58237900  1
  H  567  1  0.33230500  0.62639700  0.58151700  1
  H  568  1  0.39701300  0.57629600  0.56333800  1
  H  569  1  0.40479900  0.61390800  0.56218600  1
  H  570  1  0.41733700  0.63929900  0.59291200  1
  H  571  1  0.42618100  0.64070500  0.63049300  1
  H  572  1  0.35443400  0.66188200  0.64300500  1
  H  573  1  0.34539600  0.66018500  0.60566900  1
  H  574  1  0.37056000  0.69212900  0.57875600  1
  H  575  1  0.33966400  0.71737400  0.56967700  1
  H  576  1  0.30176700  0.66901800  0.53551200  1
  H  577  1  0.33320000  0.64372900  0.54401000  1
  H  578  1  0.37861400  0.63784000  0.52811200  1
  H  579  1  0.41537300  0.67646000  0.57388700  1
  H  580  1  0.44641200  0.68387500  0.54805500  1
  H  585  1  0.40952300  0.64544700  0.50231600  1
  H  611  1  0.82449600  0.91406500  0.35831400  1
  H  612  1  0.83232200  0.87619600  0.35921300  1
  H  613  1  0.89697700  0.92631400  0.37743500  1
  H  614  1  0.90476700  0.88870700  0.37862300  1
  H  615  1  0.91730300  0.86339500  0.34782900  1
  H  616  1  0.92615100  0.86201500  0.31024100  1
  H  617  1  0.85447500  0.84065400  0.29777500  1
  H  618  1  0.84543300  0.84232800  0.33511500  1
  H  619  1  0.87063300  0.81046800  0.36207000  1
  H  620  1  0.83975500  0.78520700  0.37116500  1
  H  621  1  0.80175000  0.83356900  0.40525100  1
  H  622  1  0.83316600  0.85887500  0.39674100  1
  H  623  1  0.87860400  0.86474300  0.41265800  1
  H  624  1  0.91545400  0.82621800  0.36683800  1
  H  625  1  0.94648600  0.81881100  0.39266100  1
  H  630  1  0.90950000  0.85713800  0.43844500  1
  H  656  1  0.57258600  0.35631900  0.13354300  1
  H  657  1  0.58023600  0.35596400  0.09579000  1
  H  658  1  0.64789900  0.34948800  0.14563700  1
  H  659  1  0.65558700  0.34869500  0.10797900  1
  H  660  1  0.66936600  0.37347900  0.07654800  1
  H  661  1  0.67765500  0.41118600  0.07594900  1
  H  662  1  0.60247800  0.42416600  0.06957100  1
  H  663  1  0.59414200  0.38654900  0.06976600  1
  H  664  1  0.61757300  0.36481500  0.03139500  1
  H  665  1  0.58688600  0.35589600  0.00608300  1
  H  666  1  0.55584400  0.31220000  0.05039700  1
  H  667  1  0.58718600  0.32072900  0.07579100  1
  H  668  1  0.63167500  0.31001500  0.08825700  1
  H  669  1  0.66133100  0.35256800  0.04195600  1
  H  670  1  0.69231900  0.32671500  0.03395000  1
  H  675  1  0.66248000  0.28435200  0.08023700  1
  H  701  1  0.07258900  0.14630500  0.80717100  1
  H  702  1  0.08024500  0.14667400  0.84492000  1
  H  703  1  0.14790800  0.15302600  0.79502200  1
  H  704  1  0.15560300  0.15382400  0.83267200  1
  H  705  1  0.16942300  0.12913200  0.86417800  1
  H  706  1  0.17772100  0.09142800  0.86476700  1
  H  707  1  0.10253100  0.07842500  0.87105100  1
  H  708  1  0.09418500  0.11604100  0.87087000  1
  H  709  1  0.11753900  0.13773100  0.90926500  1
  H  710  1  0.08683700  0.14665900  0.93457900  1
  H  711  1  0.05592900  0.19046100  0.89031300  1
  H  712  1  0.08728700  0.18191900  0.86491700  1
  H  713  1  0.13179200  0.19256200  0.85234800  1
  H  714  1  0.16127400  0.15006400  0.89876400  1
  H  715  1  0.19226700  0.17590400  0.90677600  1
  H  720  1  0.16260900  0.21821200  0.86036300  1
  H  731  1  0.70719400  0.25777400  0.45550700  1
  H  732  1  0.77612700  0.23724600  0.36210300  1
  H  733  1  0.74600100  0.26364100  0.35492700  1
  H  736  1  0.74857300  0.21369700  0.46819700  1
  H  737  1  0.74254900  0.25720400  0.48739400  1
  H  738  1  0.77096300  0.24538200  0.47992100  1
  H  739  1  0.75294800  0.23367600  0.50063100  1
  H  741  1  0.78007600  0.20448700  0.40954700  1
  H  743  1  0.70447300  0.27588900  0.36602800  1
  H  754  1  0.20729600  0.24482500  0.48519600  1
  H  755  1  0.27603100  0.26533700  0.57867400  1
  H  756  1  0.24590200  0.23893000  0.58581000  1
  H  759  1  0.24871600  0.28890700  0.47256100  1
  H  760  1  0.24261900  0.24543100  0.45331800  1
  H  761  1  0.27105200  0.25720200  0.46080000  1
  H  762  1  0.25306900  0.26896100  0.44010500  1
  H  764  1  0.28005100  0.29812400  0.53126000  1
  H  766  1  0.20440600  0.22667300  0.57467000  1
  H  777  1  0.95660500  0.76584200  0.97694200  1
  H  778  1  0.02696200  0.85867300  0.95703400  1
  H  779  1  0.99709200  0.86601600  0.98352000  1
  H  782  1  0.99740300  0.75295900  0.93266300  1
  H  783  1  0.99217900  0.73362000  0.97613900  1
  H  784  1  0.02039100  0.74099100  0.96389100  1
  H  785  1  0.00200600  0.72037000  0.95244700  1
  H  787  1  0.03046800  0.81096500  0.92416100  1
  H  789  1  0.95605000  0.85575300  0.99636200  1
  H  800  1  0.45663900  0.73675700  0.96379600  1
  H  801  1  0.52692800  0.64389200  0.98369100  1
  H  802  1  0.49707800  0.63656600  0.95719900  1
  H  805  1  0.49742400  0.74961100  0.00807800  1
  H  806  1  0.49218300  0.76897200  0.96461800  1
  H  807  1  0.52040000  0.76159700  0.97683600  1
  H  808  1  0.50201700  0.78221000  0.98830900  1
  H  810  1  0.53040800  0.69157800  0.01658600  1
  H  812  1  0.45604700  0.64685400  0.94436600  1
  H  823  1  0.29541200  0.74492200  0.48532400  1
  H  824  1  0.22481000  0.76440200  0.57796500  1
  H  825  1  0.25492300  0.73810300  0.58532200  1
  H  828  1  0.25421300  0.78896500  0.47242700  1
  H  829  1  0.25989300  0.74545400  0.45313700  1
  H  830  1  0.23155200  0.75749700  0.46047100  1
  H  831  1  0.24984900  0.76910500  0.43989600  1
  H  833  1  0.22108800  0.79728200  0.53031100  1
  H  835  1  0.29610300  0.72551500  0.57507500  1
  H  846  1  0.79529100  0.75766700  0.45546900  1
  H  847  1  0.72492500  0.73816900  0.36273200  1
  H  848  1  0.75505000  0.76447500  0.35541500  1
  H  851  1  0.75403300  0.71363100  0.46831800  1
  H  852  1  0.75976400  0.75713000  0.48761500  1
  H  853  1  0.73141400  0.74513100  0.48025700  1
  H  854  1  0.74965100  0.73349500  0.50084500  1
  H  856  1  0.72108300  0.70528700  0.41039100  1
  H  858  1  0.79620000  0.77706600  0.36570800  1
  H  869  1  0.04624700  0.23557300  0.96375200  1
  H  870  1  0.97336700  0.14397700  0.98220600  1
  H  871  1  0.00319400  0.13633300  0.95589300  1
  H  874  1  0.00618400  0.24880800  0.00811100  1
  H  875  1  0.00951600  0.26813300  0.96445600  1
  H  876  1  0.98182600  0.26078300  0.97761800  1
  H  877  1  0.00067400  0.28141900  0.98843400  1
  H  879  1  0.96949100  0.19262500  0.01464900  1
  H  881  1  0.04345600  0.14539000  0.94219800  1
  H  892  1  0.54623700  0.26703100  0.97694000  1
  H  893  1  0.47340800  0.35865400  0.95849500  1
  H  894  1  0.50324700  0.36630000  0.98477900  1
  H  897  1  0.50618000  0.25379100  0.93261400  1
  H  898  1  0.50940400  0.23450800  0.97629400  1
  H  899  1  0.48174800  0.24188000  0.96310800  1
  H  900  1  0.50057600  0.22120800  0.95232500  1
  H  902  1  0.46950800  0.31000200  0.92607200  1
  H  904  1  0.54351100  0.35721800  0.99845000  1
  H  915  1  0.20654900  0.75757400  0.95427100  1
  H  916  1  0.27707000  0.73808200  0.86157500  1
  H  917  1  0.24678800  0.76421200  0.85417300  1
  H  920  1  0.24808600  0.71378900  0.96726800  1
  H  921  1  0.24203900  0.75732400  0.98641600  1
  H  922  1  0.27047800  0.74545400  0.97909300  1
  H  923  1  0.25231100  0.73378900  0.99972400  1
  H  925  1  0.28128200  0.70558500  0.90955300  1
  H  927  1  0.20559100  0.77674100  0.86447200  1
  H  938  1  0.70660400  0.74508200  0.98644400  1
  H  939  1  0.77702700  0.76448000  0.07917400  1
  H  940  1  0.74674300  0.73833900  0.08654000  1
  H  943  1  0.74817500  0.78887900  0.97350200  1
  H  944  1  0.74203900  0.74538900  0.95428200  1
  H  945  1  0.77050300  0.75720400  0.96160100  1
  H  946  1  0.75234700  0.76893400  0.94100800  1
  H  948  1  0.78129800  0.79702100  0.03121200  1
  H  950  1  0.70555400  0.72583000  0.07622000  1
  H  961  1  0.45726000  0.26650900  0.47670800  1
  H  962  1  0.52606200  0.36014900  0.45629600  1
  H  963  1  0.49583100  0.36732000  0.48257100  1
  H  966  1  0.49887600  0.25381500  0.43283400  1
  H  967  1  0.49249600  0.23456600  0.47621700  1
  H  968  1  0.52100400  0.24204000  0.46458800  1
  H  969  1  0.50307100  0.22131500  0.45278100  1
  H  971  1  0.53021600  0.31259900  0.42364700  1
  H  973  1  0.45429100  0.35615300  0.49472600  1
  H  984  1  0.95727500  0.23603500  0.46401700  1
  H  985  1  0.02607400  0.14240400  0.48443400  1
  H  986  1  0.99584100  0.13522000  0.45818000  1
  H  989  1  0.99890200  0.24874700  0.50786000  1
  H  990  1  0.99249300  0.26798300  0.46447800  1
  H  991  1  0.02101100  0.26051700  0.47607900  1
  H  992  1  0.00308000  0.28124300  0.48790000  1
  H  994  1  0.03021300  0.18995800  0.51706100  1
  H  996  1  0.95429800  0.14639500  0.44603200  1
  H  1007  1  0.79625900  0.24503000  0.98675500  1
  H  1008  1  0.72338700  0.26310600  0.07830000  1
  H  1009  1  0.75354500  0.23705700  0.08595000  1
  H  1012  1  0.75545200  0.28898800  0.97349500  1
  H  1013  1  0.75988700  0.24531900  0.95425700  1
  H  1014  1  0.73187500  0.25799100  0.96152700  1
  H  1015  1  0.75052600  0.26915800  0.94095700  1
  H  1017  1  0.71912200  0.29547200  0.02970800  1
  H  1019  1  0.79394600  0.22365800  0.07684100  1
  H  1030  1  0.29622500  0.25753000  0.95397100  1
  H  1031  1  0.22340200  0.23953600  0.86242200  1
  H  1032  1  0.25356600  0.26559300  0.85479100  1
  H  1035  1  0.25541400  0.21356100  0.96720400  1
  H  1036  1  0.25982400  0.25722000  0.98646700  1
  H  1037  1  0.23181900  0.24454700  0.97918700  1
  H  1038  1  0.25045500  0.23337400  0.99975400  1
  H  1040  1  0.21912800  0.20710300  0.91097700  1
  H  1042  1  0.29395800  0.27898300  0.86389700  1
  H  1053  1  0.54531000  0.73532800  0.46385100  1
  H  1054  1  0.47489700  0.64247900  0.48355500  1
  H  1055  1  0.50499500  0.63509900  0.45728300  1
  H  1058  1  0.50402100  0.74829300  0.50780800  1
  H  1059  1  0.51003200  0.76759100  0.46439900  1
  H  1060  1  0.48159800  0.76029300  0.47628300  1
  H  1061  1  0.49985500  0.78087500  0.48795600  1
  H  1063  1  0.47087300  0.69054200  0.51607600  1
  H  1065  1  0.54612700  0.64539800  0.44460000  1
  H  1076  1  0.04529300  0.76731300  0.47687500  1
  H  1077  1  0.97495300  0.86018700  0.45712700  1
  H  1078  1  0.00505600  0.86757600  0.48337600  1
  H  1081  1  0.00399500  0.75433100  0.43295500  1
  H  1082  1  0.00996800  0.73508100  0.47638700  1
  H  1083  1  0.98154800  0.74239200  0.46450400  1
  H  1084  1  0.99978100  0.72177900  0.45285000  1
  H  1086  1  0.97085600  0.81206800  0.42468500  1
  H  1088  1  0.04618000  0.85725100  0.49606000  1
  H  1099  1  0.94830700  0.20720300  0.25012400  1
  H  1100  1  0.89331700  0.12035200  0.19555700  1
  H  1101  1  0.89150300  0.11471700  0.23354700  1
  H  1104  1  0.95780700  0.21607100  0.19268600  1
  H  1105  1  0.93374400  0.24224200  0.22657200  1
  H  1106  1  0.92107100  0.23634500  0.20079400  1
  H  1107  1  0.94812400  0.25195000  0.20298800  1
  H  1109  1  0.92843900  0.15912700  0.16827600  1
  H  1111  1  0.91553500  0.12599900  0.26974700  1
  H  1122  1  0.44825300  0.29533300  0.69057600  1
  H  1123  1  0.39338100  0.38222300  0.74520700  1
  H  1124  1  0.39156400  0.38786900  0.70722100  1
  H  1127  1  0.45774700  0.28644300  0.74800800  1
  H  1128  1  0.43370300  0.26029400  0.71410900  1
  H  1129  1  0.42101500  0.26617600  0.73989400  1
  H  1130  1  0.44807000  0.25057200  0.73768400  1
  H  1132  1  0.42845800  0.34340400  0.77245300  1
  H  1134  1  0.41557600  0.37657200  0.67099600  1
  H  1145  1  0.19770400  0.97238400  0.92679200  1
  H  1146  1  0.14235100  0.02611100  0.83969000  1
  H  1147  1  0.14061200  0.98798900  0.83445100  1
  H  1150  1  0.20724800  0.03000500  0.93497900  1
  H  1151  1  0.18331500  0.99637300  0.96159300  1
  H  1152  1  0.17062400  0.02214000  0.95548200  1
  H  1153  1  0.19776700  0.02009000  0.97095500  1
  H  1155  1  0.17753500  0.05384100  0.87812700  1
  H  1157  1  0.16631400  0.95189600  0.84666700  1
  H  1168  1  0.69770700  0.53022100  0.01389100  1
  H  1169  1  0.64227300  0.47648900  0.10098100  1
  H  1170  1  0.64053800  0.51461100  0.10622900  1
  H  1173  1  0.70723400  0.47259700  0.00569000  1
  H  1174  1  0.68334700  0.50624800  0.97908300  1
  H  1175  1  0.67063400  0.48048500  0.98518500  1
  H  1176  1  0.69779100  0.48252600  0.96971700  1
  H  1178  1  0.67748500  0.44876200  0.06254700  1
  H  1180  1  0.66611900  0.55069300  0.09409000  1
  H  1191  1  0.55464200  0.29536000  0.25337600  1
  H  1192  1  0.60880900  0.38211300  0.19796800  1
  H  1193  1  0.61117200  0.38783100  0.23591600  1
  H  1196  1  0.54306900  0.28676600  0.19656000  1
  H  1197  1  0.57088000  0.26038100  0.22798600  1
  H  1198  1  0.58109100  0.26722000  0.20158200  1
  H  1199  1  0.55482300  0.25084100  0.20519200  1
  H  1201  1  0.57335400  0.34314400  0.17121800  1
  H  1203  1  0.58759300  0.37666400  0.27236200  1
  H  1214  1  0.05456800  0.20717600  0.68734400  1
  H  1215  1  0.10881700  0.12046600  0.74272500  1
  H  1216  1  0.11115700  0.11473500  0.70477500  1
  H  1219  1  0.04301500  0.21578600  0.74416100  1
  H  1220  1  0.07085200  0.24216500  0.71272900  1
  H  1221  1  0.08104800  0.23532300  0.73913100  1
  H  1222  1  0.05479000  0.25170900  0.73552800  1
  H  1224  1  0.07336700  0.15946500  0.76950000  1
  H  1226  1  0.08766100  0.12582600  0.66835800  1
  H  1237  1  0.30471300  0.53333500  0.92686600  1
  H  1238  1  0.35960500  0.47893900  0.83990700  1
  H  1239  1  0.36179800  0.51703200  0.83459800  1
  H  1242  1  0.29325000  0.47631100  0.93476500  1
  H  1243  1  0.32083600  0.50753100  0.96159300  1
  H  1244  1  0.33114000  0.48118000  0.95451300  1
  H  1245  1  0.30476200  0.48456100  0.97077900  1
  H  1247  1  0.32406500  0.45162600  0.87846800  1
  H  1249  1  0.33652800  0.55333300  0.84665400  1
  H  1260  1  0.80469400  0.96930300  0.01389800  1
  H  1261  1  0.85956500  0.02365500  0.10086200  1
  H  1262  1  0.86173400  0.98555900  0.10616100  1
  H  1265  1  0.79326000  0.02632800  0.00601200  1
  H  1266  1  0.82089200  0.99512200  0.97918300  1
  H  1267  1  0.83118400  0.02147000  0.98628300  1
  H  1268  1  0.80483100  0.01809600  0.96999900  1
  H  1270  1  0.82404300  0.05098800  0.06233700  1
  H  1272  1  0.83648700  0.94927200  0.09411800  1
  H  1283  1  0.05391400  0.79526100  0.69218300  1
  H  1284  1  0.10957600  0.88283100  0.74505400  1
  H  1285  1  0.11146100  0.88769400  0.70693300  1
  H  1288  1  0.04439900  0.78758400  0.74983800  1
  H  1289  1  0.06776600  0.76060100  0.71621200  1
  H  1290  1  0.08076600  0.76677900  0.74179600  1
  H  1291  1  0.05346900  0.75145000  0.74005400  1
  H  1293  1  0.07366200  0.84581700  0.77307600  1
  H  1295  1  0.08603400  0.87541000  0.67102500  1
  H  1306  1  0.55392400  0.70736100  0.24855400  1
  H  1307  1  0.60954300  0.61977600  0.19564000  1
  H  1308  1  0.61143500  0.61491000  0.23376100  1
  H  1311  1  0.54440400  0.71503800  0.19090700  1
  H  1312  1  0.56773900  0.74202300  0.22453300  1
  H  1313  1  0.58075300  0.73586100  0.19894300  1
  H  1314  1  0.55344400  0.75117500  0.20070000  1
  H  1316  1  0.57362900  0.65678200  0.16764600  1
  H  1318  1  0.58597500  0.62721900  0.26968800  1
  H  1329  1  0.44764100  0.70751100  0.68912500  1
  H  1330  1  0.39294100  0.61978700  0.74257300  1
  H  1331  1  0.39052500  0.61494700  0.70447000  1
  H  1334  1  0.45880300  0.71484600  0.74637100  1
  H  1335  1  0.43273800  0.74202600  0.71448500  1
  H  1336  1  0.42148800  0.73512600  0.74053900  1
  H  1337  1  0.44825600  0.75102800  0.73778100  1
  H  1339  1  0.42919100  0.65687700  0.77017000  1
  H  1341  1  0.41564300  0.62731800  0.66833300  1
  H  1352  1  0.94762500  0.79513300  0.25161500  1
  H  1353  1  0.89293700  0.88284400  0.19816900  1
  H  1354  1  0.89052200  0.88769900  0.23627200  1
  H  1357  1  0.95878600  0.78777800  0.19436300  1
  H  1358  1  0.93271000  0.76060800  0.22626700  1
  H  1359  1  0.92146600  0.76750700  0.20021800  1
  H  1360  1  0.94822800  0.75160000  0.20296700  1
  H  1362  1  0.92916300  0.84569900  0.17056700  1
  H  1364  1  0.91563500  0.87532900  0.27240400  1
  H  1375  1  0.69843200  0.47320300  0.42542100  1
  H  1376  1  0.64321600  0.52629900  0.33787000  1
  H  1377  1  0.64158400  0.48813700  0.33283900  1
  H  1380  1  0.70745000  0.53097400  0.43342900  1
  H  1381  1  0.68412700  0.49700600  0.46003600  1
  H  1382  1  0.67097200  0.52258600  0.45391800  1
  H  1383  1  0.69814700  0.52092700  0.46938900  1
  H  1385  1  0.67857800  0.55438500  0.37516800  1
  H  1387  1  0.66586100  0.45216200  0.34464900  1
  H  1398  1  0.19846200  0.02935800  0.51523100  1
  H  1399  1  0.14324400  0.97628700  0.60283100  1
  H  1400  1  0.14161200  0.01445000  0.60785200  1
  H  1403  1  0.20748600  0.97158800  0.50723400  1
  H  1404  1  0.18413900  0.00553600  0.48063500  1
  H  1405  1  0.17099500  0.97995400  0.48677600  1
  H  1406  1  0.19816500  0.98161700  0.47127900  1
  H  1408  1  0.17861500  0.94818700  0.56552300  1
  H  1410  1  0.16583600  0.05041100  0.59605000  1
  H  1421  1  0.80442700  0.03273600  0.42564200  1
  H  1422  1  0.85847300  0.97882600  0.33797100  1
  H  1423  1  0.86075600  0.01695700  0.33290200  1
  H  1426  1  0.79347000  0.97543600  0.43338400  1
  H  1427  1  0.81993800  0.00746600  0.46011000  1
  H  1428  1  0.83106200  0.98133100  0.45321100  1
  H  1429  1  0.80450900  0.98418200  0.46935800  1
  H  1431  1  0.82272400  0.95127100  0.37541000  1
  H  1433  1  0.83705100  0.05318900  0.34468100  1
  H  1444  1  0.30442400  0.46984200  0.51512000  1
  H  1445  1  0.35850500  0.52377300  0.60272700  1
  H  1446  1  0.36076600  0.48564400  0.60781400  1
  H  1449  1  0.29350700  0.52714500  0.50734900  1
  H  1450  1  0.31996700  0.49508500  0.48063500  1
  H  1451  1  0.33110500  0.52121800  0.48751700  1
  H  1452  1  0.30456000  0.51837300  0.47137600  1
  H  1454  1  0.32275900  0.55132000  0.56529000  1
  H  1456  1  0.33713100  0.44941700  0.59610900  1
  C  1  1  0.93544400  0.16838100  0.41448500  1
  C  2  1  0.93746400  0.17473200  0.39272500  1
  C  3  1  0.91899200  0.16956900  0.37773800  1
  C  4  1  0.89788300  0.15764600  0.38379300  1
  C  5  1  0.89532600  0.15309200  0.40618600  1
  C  6  1  0.91368600  0.15812400  0.42117700  1
  C  7  1  0.87743800  0.15109500  0.36823700  1
  C  8  1  0.85754500  0.16721600  0.37485600  1
  C  9  1  0.83663700  0.16175400  0.38730700  1
  C  10  1  0.81846800  0.17710400  0.39227700  1
  C  11  1  0.82086100  0.19879200  0.38547800  1
  C  12  1  0.84214000  0.20481000  0.37425100  1
  C  13  1  0.86030200  0.18946900  0.36956000  1
  C  14  1  0.88350400  0.15257000  0.34410200  1
  C  15  1  0.87079700  0.12708000  0.37031700  1
  C  16  1  0.84884000  0.11880200  0.36123800  1
  C  17  1  0.84319800  0.09658500  0.36145700  1
  C  18  1  0.85974300  0.08147700  0.37029300  1
  C  19  1  0.88186600  0.08919000  0.37887700  1
  C  20  1  0.88746400  0.11135900  0.37837000  1
  C  21  1  0.90506900  0.14297500  0.33558600  1
  C  22  1  0.91023800  0.14284300  0.31331300  1
  C  23  1  0.89355200  0.15180100  0.29841600  1
  C  24  1  0.87171800  0.16074400  0.30636700  1
  C  25  1  0.86658900  0.16057200  0.32858600  1
  C  46  1  0.43541000  0.33417000  0.52626700  1
  C  47  1  0.43742100  0.32782200  0.54802800  1
  C  48  1  0.41894400  0.33299300  0.56301900  1
  C  49  1  0.39784500  0.34492600  0.55696900  1
  C  50  1  0.39529600  0.34947500  0.53457600  1
  C  51  1  0.41365600  0.34442800  0.51957800  1
  C  52  1  0.37740300  0.35149200  0.57253400  1
  C  53  1  0.35750600  0.33537200  0.56593500  1
  C  54  1  0.33661000  0.34083400  0.55348200  1
  C  55  1  0.31843400  0.32548800  0.54852300  1
  C  56  1  0.32079200  0.30381600  0.55537700  1
  C  57  1  0.34207300  0.29778800  0.56658200  1
  C  58  1  0.36023700  0.31312400  0.57125900  1
  C  59  1  0.38348000  0.35003400  0.59666300  1
  C  60  1  0.37077600  0.37550700  0.57043300  1
  C  61  1  0.34882300  0.38379200  0.57953200  1
  C  62  1  0.34317700  0.40600800  0.57930500  1
  C  63  1  0.35972500  0.42111300  0.57045800  1
  C  64  1  0.38185900  0.41339800  0.56188300  1
  C  65  1  0.38745000  0.39122800  0.56238600  1
  C  66  1  0.40505100  0.35961600  0.60516500  1
  C  67  1  0.41022400  0.35974700  0.62743300  1
  C  68  1  0.39353100  0.35081000  0.64234500  1
  C  69  1  0.37168000  0.34189600  0.63441200  1
  C  70  1  0.36655100  0.34206100  0.61219600  1
  C  91  1  0.18471000  0.80693300  0.88704500  1
  C  92  1  0.18553200  0.82818000  0.89521100  1
  C  93  1  0.16705300  0.84320400  0.89010100  1
  C  94  1  0.14721500  0.83774300  0.87636300  1
  C  95  1  0.14565800  0.81570900  0.86996200  1
  C  96  1  0.16402000  0.80068100  0.87495900  1
  C  97  1  0.12689700  0.85347400  0.86998100  1
  C  98  1  0.10719800  0.84680800  0.88621300  1
  C  99  1  0.08754000  0.83263500  0.88132700  1
  C  100  1  0.06946000  0.82749800  0.89670600  1
  C  101  1  0.07081200  0.83582500  0.91789600  1
  C  102  1  0.09103900  0.84869900  0.92344600  1
  C  103  1  0.10909200  0.85357900  0.90809200  1
  C  104  1  0.13268800  0.87766800  0.87147800  1
  C  105  1  0.12065400  0.85157500  0.84595000  1
  C  106  1  0.09756500  0.85796200  0.83760500  1
  C  107  1  0.09255000  0.85803500  0.81529800  1
  C  108  1  0.11089200  0.85254800  0.80022600  1
  C  109  1  0.13433200  0.84752000  0.80803000  1
  C  110  1  0.13906600  0.84718600  0.83031100  1
  C  111  1  0.15537000  0.88629600  0.86433500  1
  C  112  1  0.16017000  0.90866400  0.86437700  1
  C  113  1  0.14203500  0.92351800  0.87091500  1
  C  114  1  0.11910700  0.91544000  0.87722800  1
  C  115  1  0.11439400  0.89310900  0.87688300  1
  C  136  1  0.68469800  0.69565400  0.05363000  1
  C  137  1  0.68554800  0.67439600  0.04549900  1
  C  138  1  0.66705400  0.65937700  0.05060100  1
  C  139  1  0.64718500  0.66485500  0.06430500  1
  C  140  1  0.64561400  0.68689500  0.07068700  1
  C  141  1  0.66398200  0.70192100  0.06568700  1
  C  142  1  0.62686800  0.64912600  0.07071100  1
  C  143  1  0.60716700  0.65579200  0.05448900  1
  C  144  1  0.58748000  0.66993000  0.05939400  1
  C  145  1  0.56939500  0.67505300  0.04402600  1
  C  146  1  0.57075800  0.66666667  0.02283700  1
  C  147  1  0.59100900  0.65388200  0.01726900  1
  C  148  1  0.60907900  0.64903400  0.03260600  1
  C  149  1  0.63265600  0.62492800  0.06922500  1
  C  150  1  0.62064300  0.65103200  0.09475000  1
  C  151  1  0.59755700  0.64462100  0.10310200  1
  C  152  1  0.59254300  0.64454500  0.12541300  1
  C  153  1  0.61086700  0.65008000  0.14047200  1
  C  154  1  0.63429800  0.65514400  0.13265600  1
  C  155  1  0.63903600  0.65548100  0.11037400  1
  C  156  1  0.65533300  0.61630900  0.07637600  1
  C  157  1  0.66014000  0.59394300  0.07631800  1
  C  158  1  0.64202300  0.57908800  0.06975500  1
  C  159  1  0.61910500  0.58716200  0.06342400  1
  C  160  1  0.61438200  0.60949100  0.06377000  1
  C  181  1  0.57092600  0.33680200  0.41798000  1
  C  182  1  0.56864100  0.32984500  0.39636800  1
  C  183  1  0.58685400  0.33478100  0.38106700  1
  C  184  1  0.60773100  0.34728600  0.38651500  1
  C  185  1  0.61039100  0.35270900  0.40870900  1
  C  186  1  0.59217400  0.34807700  0.42399700  1
  C  187  1  0.62769400  0.35381300  0.37044500  1
  C  188  1  0.64808300  0.33822100  0.37710500  1
  C  189  1  0.66919500  0.34430900  0.38898600  1
  C  190  1  0.68764100  0.32929100  0.39421000  1
  C  191  1  0.68559200  0.30746800  0.38796100  1
  C  192  1  0.66382300  0.30075000  0.37775900  1
  C  193  1  0.64549900  0.31577400  0.37265300  1
  C  194  1  0.62113100  0.35161500  0.34646800  1
  C  195  1  0.63378900  0.37798600  0.37181300  1
  C  196  1  0.65538600  0.38643900  0.36222100  1
  C  197  1  0.66054800  0.40874900  0.36191400  1
  C  198  1  0.64382600  0.42375100  0.37068100  1
  C  199  1  0.62196700  0.41586100  0.37962800  1
  C  200  1  0.61685500  0.39360000  0.37964900  1
  C  201  1  0.59920500  0.36067900  0.33810000  1
  C  202  1  0.59360500  0.36028300  0.31591700  1
  C  203  1  0.61017300  0.35129200  0.30093200  1
  C  204  1  0.63229100  0.34276600  0.30872200  1
  C  205  1  0.63784200  0.34344300  0.33085600  1
  C  226  1  0.07095100  0.16580700  0.52270300  1
  C  227  1  0.06863300  0.17272200  0.54432700  1
  C  228  1  0.08682700  0.16777500  0.55963000  1
  C  229  1  0.10770700  0.15526800  0.55417900  1
  C  230  1  0.11039800  0.14987200  0.53197900  1
  C  231  1  0.09219100  0.15450500  0.51669400  1
  C  232  1  0.12766700  0.14875200  0.57024200  1
  C  233  1  0.14806000  0.16434600  0.56358300  1
  C  234  1  0.16917300  0.15826700  0.55168800  1
  C  235  1  0.18762400  0.17328700  0.54647200  1
  C  236  1  0.18555400  0.19511200  0.55270800  1
  C  237  1  0.16377500  0.20182700  0.56290600  1
  C  238  1  0.14545100  0.18679600  0.56801100  1
  C  239  1  0.12109500  0.15096100  0.59422100  1
  C  240  1  0.13378700  0.12458400  0.56887900  1
  C  241  1  0.15537500  0.11613500  0.57847600  1
  C  242  1  0.16055300  0.09382900  0.57877800  1
  C  243  1  0.14385000  0.07882100  0.57000000  1
  C  244  1  0.12199200  0.08670300  0.56105800  1
  C  245  1  0.11686500  0.10896200  0.56104300  1
  C  246  1  0.09918300  0.14186300  0.60259400  1
  C  247  1  0.09356500  0.14225300  0.62477600  1
  C  248  1  0.11010900  0.15126900  0.63976000  1
  C  249  1  0.13222100  0.15981500  0.63196800  1
  C  250  1  0.13778700  0.15913900  0.60983500  1
  C  271  1  0.32129600  0.69924000  0.88446700  1
  C  272  1  0.32019900  0.67818900  0.89323900  1
  C  273  1  0.33839300  0.66283200  0.88835300  1
  C  274  1  0.35795200  0.66759900  0.87405100  1
  C  275  1  0.35956300  0.68935100  0.86674200  1
  C  276  1  0.34136700  0.70467800  0.87136100  1
  C  277  1  0.37777700  0.65133400  0.86775000  1
  C  278  1  0.39797000  0.65810300  0.88343600  1
  C  279  1  0.41785900  0.67175900  0.87784800  1
  C  280  1  0.43624900  0.67713600  0.89285400  1
  C  281  1  0.43526200  0.66935800  0.91421400  1
  C  282  1  0.41446900  0.65744400  0.92057200  1
  C  283  1  0.39621100  0.65218500  0.90556200  1
  C  284  1  0.37147900  0.62729800  0.87004100  1
  C  285  1  0.38350300  0.65242500  0.84356600  1
  C  286  1  0.40631900  0.64555000  0.83501700  1
  C  287  1  0.41090000  0.64496300  0.81264100  1
  C  288  1  0.39235800  0.65038400  0.79774700  1
  C  289  1  0.36913600  0.65580900  0.80579600  1
  C  290  1  0.36483600  0.65664700  0.82813300  1
  C  291  1  0.34847900  0.61887400  0.86348600  1
  C  292  1  0.34325700  0.59658900  0.86405600  1
  C  293  1  0.36123900  0.58159000  0.87058100  1
  C  294  1  0.38440900  0.58945400  0.87645100  1
  C  295  1  0.38954400  0.61170000  0.87559000  1
  C  316  1  0.82123900  0.80339100  0.05636500  1
  C  317  1  0.82019400  0.82441400  0.04752500  1
  C  318  1  0.83839400  0.83976800  0.05240000  1
  C  319  1  0.85792200  0.83501400  0.06672800  1
  C  320  1  0.85949800  0.81327500  0.07408000  1
  C  321  1  0.84130000  0.79795100  0.06947000  1
  C  322  1  0.87774500  0.85128300  0.07301100  1
  C  323  1  0.89793600  0.84451300  0.05731000  1
  C  324  1  0.91780100  0.83083000  0.06288000  1
  C  325  1  0.93619700  0.82545700  0.04786600  1
  C  326  1  0.93523200  0.83325700  0.02651500  1
  C  327  1  0.91445300  0.84519000  0.02017100  1
  C  328  1  0.89619500  0.85045500  0.03519000  1
  C  329  1  0.87144400  0.87531700  0.07072300  1
  C  330  1  0.88349500  0.85019300  0.09718300  1
  C  331  1  0.90631400  0.85705200  0.10572400  1
  C  332  1  0.91089300  0.85764200  0.12809600  1
  C  333  1  0.89235800  0.85221500  0.14300400  1
  C  334  1  0.86911500  0.84685600  0.13496700  1
  C  335  1  0.86481500  0.84602200  0.11263300  1
  C  336  1  0.84842900  0.88373500  0.07725600  1
  C  337  1  0.84320000  0.90602000  0.07668200  1
  C  338  1  0.86119100  0.92102200  0.07017400  1
  C  339  1  0.88437700  0.91316400  0.06432900  1
  C  340  1  0.88951700  0.89091900  0.06519600  1
  C  361  1  0.06690400  0.83462900  0.52628400  1
  C  362  1  0.06601000  0.82640000  0.54747500  1
  C  363  1  0.08446800  0.83144400  0.56252100  1
  C  364  1  0.10437400  0.84516100  0.55713300  1
  C  365  1  0.10598100  0.85165600  0.53516300  1
  C  366  1  0.08763400  0.84673500  0.52012000  1
  C  367  1  0.12470700  0.85142200  0.57287400  1
  C  368  1  0.14435800  0.83514600  0.56614400  1
  C  369  1  0.16403300  0.84007500  0.55201900  1
  C  370  1  0.18212200  0.82469100  0.54687500  1
  C  371  1  0.18076400  0.80344400  0.55514100  1
  C  372  1  0.16050600  0.79785000  0.56795100  1
  C  373  1  0.14243400  0.81321000  0.57283200  1
  C  374  1  0.11888100  0.84985400  0.59702400  1
  C  375  1  0.13110100  0.87547800  0.57110300  1
  C  376  1  0.15423200  0.88368300  0.57756000  1
  C  377  1  0.15939700  0.90599900  0.57774900  1
  C  378  1  0.14119000  0.92121100  0.57226100  1
  C  379  1  0.11772000  0.91353900  0.56712000  1
  C  380  1  0.11282100  0.89124800  0.56669300  1
  C  381  1  0.09624600  0.85711700  0.60564400  1
  C  382  1  0.09146500  0.85713300  0.62798100  1
  C  383  1  0.10955900  0.85050000  0.64280500  1
  C  384  1  0.13241200  0.84398600  0.63472500  1
  C  385  1  0.13712000  0.84428700  0.61242800  1
  C  406  1  0.56691900  0.66801600  0.41440600  1
  C  407  1  0.56606000  0.67626300  0.39322100  1
  C  408  1  0.58453000  0.67121100  0.37817800  1
  C  409  1  0.60440100  0.65745700  0.38355700  1
  C  410  1  0.60597600  0.65094400  0.40552300  1
  C  411  1  0.58762600  0.65588800  0.42056900  1
  C  412  1  0.62473300  0.65117500  0.36781000  1
  C  413  1  0.64439200  0.66744600  0.37452200  1
  C  414  1  0.66402900  0.66252000  0.38867700  1
  C  415  1  0.68213200  0.67789400  0.39381200  1
  C  416  1  0.68084300  0.69911200  0.38547000  1
  C  417  1  0.66060100  0.70472000  0.37266000  1
  C  418  1  0.64252100  0.68936900  0.36778200  1
  C  419  1  0.61889900  0.65273200  0.34366600  1
  C  420  1  0.63109600  0.62711600  0.36959700  1
  C  421  1  0.65423700  0.61890100  0.36316000  1
  C  422  1  0.65940100  0.59658400  0.36298700  1
  C  423  1  0.64116300  0.58137500  0.36842000  1
  C  424  1  0.61768900  0.58905600  0.37354600  1
  C  425  1  0.61280500  0.61135100  0.37398500  1
  C  426  1  0.59624900  0.64550800  0.33505600  1
  C  427  1  0.59147300  0.64549000  0.31272200  1
  C  428  1  0.60959100  0.65206400  0.29788600  1
  C  429  1  0.63246600  0.65851900  0.30595300  1
  C  430  1  0.63716400  0.65822800  0.32824900  1
  C  451  1  0.81804400  0.19587000  0.05374300  1
  C  452  1  0.81930500  0.17569200  0.04324100  1
  C  453  1  0.83772500  0.16066100  0.04853400  1
  C  454  1  0.85518200  0.16484700  0.06498200  1
  C  455  1  0.85503000  0.18611400  0.07369200  1
  C  456  1  0.83680100  0.20119200  0.06845500  1
  C  457  1  0.87531000  0.14885100  0.07115000  1
  C  458  1  0.89493100  0.15484000  0.05460600  1
  C  459  1  0.91209000  0.17175800  0.05792800  1
  C  460  1  0.93011800  0.17683600  0.04247300  1
  C  461  1  0.93098700  0.16572900  0.02257900  1
  C  462  1  0.91296700  0.15009400  0.01831500  1
  C  463  1  0.89502800  0.14520200  0.03376400  1
  C  464  1  0.86931900  0.12467500  0.07017400  1
  C  465  1  0.88178500  0.15075000  0.09513000  1
  C  466  1  0.90589200  0.14827300  0.10325700  1
  C  467  1  0.91092600  0.14834100  0.12556100  1
  C  468  1  0.89183300  0.15025500  0.14079000  1
  C  469  1  0.86770600  0.15167800  0.13312300  1
  C  470  1  0.86285900  0.15178000  0.11086200  1
  C  471  1  0.84541700  0.11622400  0.07313500  1
  C  472  1  0.84080300  0.09381600  0.07344200  1
  C  473  1  0.86014300  0.07882400  0.07144900  1
  C  474  1  0.88411400  0.08683000  0.06975400  1
  C  475  1  0.88854000  0.10919300  0.06928900  1
  C  496  1  0.31806200  0.30673400  0.88701200  1
  C  497  1  0.31930900  0.32691200  0.89751600  1
  C  498  1  0.33773500  0.34194500  0.89223000  1
  C  499  1  0.35521400  0.33775300  0.87579200  1
  C  500  1  0.35505800  0.31649500  0.86705900  1
  C  501  1  0.33682600  0.30141900  0.87229500  1
  C  502  1  0.37533500  0.35375900  0.86961200  1
  C  503  1  0.39495000  0.34776900  0.88615200  1
  C  504  1  0.41211400  0.33085700  0.88281800  1
  C  505  1  0.43014600  0.32578900  0.89826300  1
  C  506  1  0.43101400  0.33690200  0.91815500  1
  C  507  1  0.41299700  0.35254400  0.92241900  1
  C  508  1  0.39504900  0.35742300  0.90698600  1
  C  509  1  0.36934200  0.37793700  0.87058300  1
  C  510  1  0.38179700  0.35187400  0.84562400  1
  C  511  1  0.40591500  0.35430900  0.83749100  1
  C  512  1  0.41094900  0.35423100  0.81518400  1
  C  513  1  0.39186200  0.35229500  0.79996400  1
  C  514  1  0.36773100  0.35089900  0.80764200  1
  C  515  1  0.36287400  0.35082300  0.82990300  1
  C  516  1  0.34543200  0.38638100  0.86766900  1
  C  517  1  0.34082400  0.40878900  0.86735700  1
  C  518  1  0.36016000  0.42378400  0.86935400  1
  C  519  1  0.38413500  0.41577700  0.87101300  1
  C  520  1  0.38856500  0.39341400  0.87146800  1
  C  541  1  0.43097000  0.66532700  0.52268700  1
  C  542  1  0.43207000  0.67427400  0.54363500  1
  C  543  1  0.41391700  0.66944300  0.55903600  1
  C  544  1  0.39437500  0.65506400  0.55440300  1
  C  545  1  0.39275700  0.64758900  0.53274200  1
  C  546  1  0.41090500  0.65215200  0.51737500  1
  C  547  1  0.37457500  0.64886400  0.57071100  1
  C  548  1  0.35438600  0.66457200  0.56392600  1
  C  549  1  0.33455900  0.65895300  0.55023800  1
  C  550  1  0.31614200  0.67395200  0.54484700  1
  C  551  1  0.31703900  0.69534000  0.55264100  1
  C  552  1  0.33779000  0.70174500  0.56456100  1
  C  553  1  0.35607800  0.68673800  0.56983800  1
  C  554  1  0.38093500  0.65122700  0.59468800  1
  C  555  1  0.36875600  0.62465400  0.56973500  1
  C  556  1  0.34589300  0.61619900  0.57660800  1
  C  557  1  0.34120200  0.59380700  0.57724200  1
  C  558  1  0.35967000  0.57880200  0.57185600  1
  C  559  1  0.38295500  0.58675700  0.56648200  1
  C  560  1  0.38736100  0.60911300  0.56558700  1
  C  561  1  0.40395300  0.64467600  0.60306800  1
  C  562  1  0.40918100  0.64518200  0.62531700  1
  C  563  1  0.39119700  0.65165500  0.64032400  1
  C  564  1  0.36802700  0.65756900  0.63249800  1
  C  565  1  0.36288300  0.65676500  0.61028700  1
  C  586  1  0.93096900  0.83726800  0.41806800  1
  C  587  1  0.93211600  0.82837700  0.39709800  1
  C  588  1  0.91396600  0.83320200  0.38170300  1
  C  589  1  0.89440000  0.84755400  0.38635200  1
  C  590  1  0.89273900  0.85498300  0.40802700  1
  C  591  1  0.91089200  0.85043300  0.42338500  1
  C  592  1  0.87459100  0.85374100  0.37005900  1
  C  593  1  0.85440200  0.83803100  0.37685400  1
  C  594  1  0.83455300  0.84364500  0.39053100  1
  C  595  1  0.81613700  0.82864000  0.39592000  1
  C  596  1  0.81708000  0.80724000  0.38816300  1
  C  597  1  0.83786000  0.80083900  0.37626700  1
  C  598  1  0.85614100  0.81585400  0.37098900  1
  C  599  1  0.88094200  0.85137000  0.34607900  1
  C  600  1  0.86874000  0.87794300  0.37104200  1
  C  601  1  0.84589600  0.88639800  0.36413100  1
  C  602  1  0.84119800  0.90878800  0.36348900  1
  C  603  1  0.85965900  0.92379800  0.36886400  1
  C  604  1  0.88292900  0.91585000  0.37428000  1
  C  605  1  0.88733600  0.89349500  0.37518900  1
  C  606  1  0.90393600  0.85798400  0.33768000  1
  C  607  1  0.90916900  0.85749000  0.31542800  1
  C  608  1  0.89120700  0.85096900  0.30043200  1
  C  609  1  0.86805500  0.84499800  0.30827300  1
  C  610  1  0.86291200  0.84579000  0.33048600  1
  C  631  1  0.68051200  0.30311300  0.05649300  1
  C  632  1  0.67956800  0.32305100  0.04542700  1
  C  633  1  0.66144800  0.33844600  0.05048500  1
  C  634  1  0.64424900  0.33500800  0.06732600  1
  C  635  1  0.64441200  0.31411600  0.07691200  1
  C  636  1  0.66246200  0.29873500  0.07205200  1
  C  637  1  0.62457400  0.35151800  0.07333300  1
  C  638  1  0.60450400  0.34532700  0.05731300  1
  C  639  1  0.58699100  0.32888800  0.06146700  1
  C  640  1  0.56863200  0.32358100  0.04640200  1
  C  641  1  0.56748700  0.33407300  0.02623600  1
  C  642  1  0.58627800  0.34880000  0.02097600  1
  C  643  1  0.60444300  0.35404600  0.03608000  1
  C  644  1  0.63098900  0.37555700  0.07146700  1
  C  645  1  0.61857900  0.35050600  0.09746800  1
  C  646  1  0.59467300  0.35346100  0.10590600  1
  C  647  1  0.59007200  0.35388400  0.12827900  1
  C  648  1  0.60942100  0.35199000  0.14324500  1
  C  649  1  0.63338300  0.35021400  0.13524200  1
  C  650  1  0.63780000  0.34964000  0.11291700  1
  C  651  1  0.65507400  0.38375000  0.07395200  1
  C  652  1  0.66005500  0.40609800  0.07379800  1
  C  653  1  0.64094200  0.42130700  0.07173000  1
  C  654  1  0.61682700  0.41357600  0.07036300  1
  C  655  1  0.61202400  0.39126800  0.07037500  1
  C  676  1  0.18057400  0.19946100  0.88414500  1
  C  677  1  0.17955000  0.17956100  0.89527200  1
  C  678  1  0.16142300  0.16417600  0.89021500  1
  C  679  1  0.14428700  0.16758900  0.87332900  1
  C  680  1  0.14451100  0.18846000  0.86370000  1
  C  681  1  0.16255700  0.20383900  0.86856600  1
  C  682  1  0.12461000  0.15108000  0.86734000  1
  C  683  1  0.10453600  0.15727100  0.88336800  1
  C  684  1  0.08706400  0.17374800  0.87923400  1
  C  685  1  0.06868900  0.17905000  0.89429400  1
  C  686  1  0.06749600  0.16853000  0.91444400  1
  C  687  1  0.08626000  0.15377500  0.91969300  1
  C  688  1  0.10443300  0.14852100  0.90458900  1
  C  689  1  0.13103100  0.12704200  0.86920200  1
  C  690  1  0.11859300  0.15209800  0.84321400  1
  C  691  1  0.09468700  0.14913600  0.83479200  1
  C  692  1  0.09008200  0.14870800  0.81242200  1
  C  693  1  0.10942200  0.15061300  0.79743900  1
  C  694  1  0.13339100  0.15233400  0.80542500  1
  C  695  1  0.13781300  0.15290700  0.82774700  1
  C  696  1  0.15512600  0.11885800  0.86675400  1
  C  697  1  0.16011400  0.09650900  0.86689600  1
  C  698  1  0.14099800  0.08129700  0.86891600  1
  C  699  1  0.11687900  0.08901900  0.87027700  1
  C  700  1  0.11206900  0.11132500  0.87027200  1
  C  721  1  0.76777600  0.23278500  0.39537700  1
  C  722  1  0.75167600  0.23995400  0.41185800  1
  C  723  1  0.73340900  0.25578700  0.40749800  1
  C  724  1  0.73099800  0.26477700  0.38655300  1
  C  725  1  0.74741700  0.25784900  0.37036900  1
  C  726  1  0.76537700  0.24223800  0.37467400  1
  C  728  1  0.71937000  0.25296200  0.44398000  1
  C  729  1  0.73761900  0.23762900  0.44857500  1
  C  735  1  0.75226300  0.24196000  0.48509400  1
  C  740  1  0.78405900  0.21573300  0.39865500  1
  C  742  1  0.71190300  0.27828400  0.38051100  1
  C  744  1  0.26774700  0.26980600  0.54539400  1
  C  745  1  0.25168500  0.26263900  0.52889400  1
  C  746  1  0.23341400  0.24679800  0.53322900  1
  C  747  1  0.23096200  0.23780000  0.55417000  1
  C  748  1  0.24734600  0.24472800  0.57037200  1
  C  749  1  0.26531100  0.26034400  0.56609000  1
  C  751  1  0.21944800  0.24963400  0.49673600  1
  C  752  1  0.23770600  0.26497100  0.49216200  1
  C  758  1  0.25235900  0.26065900  0.45563300  1
  C  763  1  0.28402400  0.28687000  0.54214200  1
  C  765  1  0.21186000  0.22428800  0.56019000  1
  C  767  1  0.01804400  0.82550500  0.95224700  1
  C  768  1  0.00169200  0.80915700  0.95934100  1
  C  769  1  0.98353200  0.81363200  0.97523300  1
  C  770  1  0.98147300  0.83456100  0.98441300  1
  C  771  1  0.99818100  0.85058500  0.97758400  1
  C  772  1  0.01601100  0.84617600  0.96190300  1
  C  774  1  0.96892900  0.77728100  0.97217900  1
  C  775  1  0.98707700  0.77256500  0.95680900  1
  C  781  1  0.00159000  0.73591500  0.96076800  1
  C  786  1  0.03430500  0.82211800  0.93518000  1
  C  788  1  0.96256500  0.84080900  0.99807500  1
  C  790  1  0.51802700  0.67706300  0.98848200  1
  C  791  1  0.50168900  0.69341900  0.98139000  1
  C  792  1  0.48354600  0.68895700  0.96549000  1
  C  793  1  0.48148200  0.66802900  0.95630600  1
  C  794  1  0.49817400  0.65199600  0.96313500  1
  C  795  1  0.51599100  0.65639500  0.97882000  1
  C  797  1  0.46895500  0.72531200  0.96855600  1
  C  798  1  0.48708900  0.73001600  0.98393200  1
  C  804  1  0.50159900  0.76667100  0.97997800  1
  C  809  1  0.53426500  0.68044000  0.00555600  1
  C  811  1  0.46257800  0.66179100  0.94264600  1
  C  813  1  0.23370600  0.76924200  0.54485400  1
  C  814  1  0.25013400  0.76224500  0.52854300  1
  C  815  1  0.26843600  0.74646400  0.53302500  1
  C  816  1  0.27057800  0.73731100  0.55392900  1
  C  817  1  0.25378900  0.74402900  0.56991200  1
  C  818  1  0.23581400  0.75959800  0.56549600  1
  C  820  1  0.28303700  0.74960900  0.49673700  1
  C  821  1  0.26475400  0.76486800  0.49201500  1
  C  827  1  0.25032700  0.76077600  0.45541600  1
  C  832  1  0.21732300  0.78623800  0.54146000  1
  C  834  1  0.28959100  0.72374600  0.56016500  1
  C  836  1  0.73376200  0.73331100  0.39584800  1
  C  837  1  0.75013700  0.74031800  0.41218400  1
  C  838  1  0.76844600  0.75610200  0.40772600  1
  C  839  1  0.77063600  0.76525900  0.38682500  1
  C  840  1  0.75388300  0.75854200  0.37082000  1
  C  841  1  0.73592100  0.74295200  0.37520700  1
  C  843  1  0.78294700  0.75297200  0.44403800  1
  C  844  1  0.76465600  0.73771000  0.44873700  1
  C  850  1  0.75017300  0.74182400  0.48532700  1
  C  855  1  0.71735700  0.71632300  0.39922700  1
  C  857  1  0.78966100  0.77882500  0.38061500  1
  C  859  1  0.98312500  0.17688900  0.98756400  1
  C  860  1  0.99996200  0.19296800  0.98070400  1
  C  861  1  0.01817300  0.18827300  0.96490100  1
  C  862  1  0.01979300  0.16741100  0.95547900  1
  C  863  1  0.00257000  0.15169900  0.96204600  1
  C  864  1  0.98473400  0.15630000  0.97765800  1
  C  866  1  0.03363500  0.22431900  0.96836500  1
  C  867  1  0.01545000  0.22925400  0.98361800  1
  C  873  1  0.00074200  0.26586600  0.98012300  1
  C  878  1  0.96661100  0.18050900  0.00445200  1
  C  880  1  0.03848900  0.16087500  0.94165600  1
  C  882  1  0.48313600  0.32573100  0.95315500  1
  C  883  1  0.49996800  0.30964900  0.96000600  1
  C  884  1  0.51818800  0.31434400  0.97578800  1
  C  885  1  0.51982600  0.33521200  0.98519200  1
  C  886  1  0.50260000  0.35092500  0.97864700  1
  C  887  1  0.48476600  0.34632700  0.96304400  1
  C  889  1  0.53363100  0.27829000  0.97233000  1
  C  890  1  0.51543900  0.27335800  0.95709500  1
  C  896  1  0.50065900  0.23677100  0.96061900  1
  C  901  1  0.46663000  0.32211900  0.93626900  1
  C  903  1  0.53851900  0.34173900  0.99901000  1
  C  905  1  0.26827000  0.73332400  0.89472400  1
  C  906  1  0.25183800  0.74029900  0.91104100  1
  C  907  1  0.23343200  0.75597000  0.90652900  1
  C  908  1  0.23120700  0.76504100  0.88559600  1
  C  909  1  0.24798200  0.75833600  0.86959900  1
  C  910  1  0.26605400  0.74286700  0.87404300  1
  C  912  1  0.21892900  0.75290100  0.94285700  1
  C  913  1  0.23730800  0.73774100  0.94760400  1
  C  919  1  0.25173900  0.74206200  0.98417700  1
  C  924  1  0.28479600  0.71645600  0.89817500  1
  C  926  1  0.21214500  0.77853500  0.87936400  1
  C  928  1  0.76826100  0.76927500  0.04602800  1
  C  929  1  0.75185000  0.76231400  0.02970000  1
  C  930  1  0.73344200  0.74663500  0.03419000  1
  C  931  1  0.73119700  0.73754200  0.05511300  1
  C  932  1  0.74795600  0.74423100  0.07112100  1
  C  933  1  0.76602800  0.75970600  0.06669700  1
  C  935  1  0.71897400  0.74974300  0.99786300  1
  C  936  1  0.73736000  0.76490600  0.99313400  1
  C  942  1  0.75176800  0.76063200  0.95653900  1
  C  947  1  0.78478100  0.78615600  0.04260200  1
  C  949  1  0.71212400  0.72404600  0.06132900  1
  C  951  1  0.51779700  0.32680500  0.45185400  1
  C  952  1  0.50170700  0.31028000  0.45898600  1
  C  953  1  0.48337900  0.31463300  0.47474700  1
  C  954  1  0.48089200  0.33561900  0.48369600  1
  C  955  1  0.49729900  0.35184900  0.47680400  1
  C  956  1  0.51532600  0.34754600  0.46127100  1
  C  958  1  0.46943200  0.27806700  0.47192800  1
  C  959  1  0.48774300  0.27347400  0.45666700  1
  C  965  1  0.50233000  0.23687400  0.46105700  1
  C  970  1  0.53414100  0.32352600  0.43486900  1
  C  972  1  0.46174600  0.34165500  0.49713800  1
  C  974  1  0.01781300  0.17574900  0.48886200  1
  C  975  1  0.00172300  0.19227100  0.48173100  1
  C  976  1  0.98339900  0.18791300  0.46598100  1
  C  977  1  0.98090700  0.16692200  0.45704400  1
  C  978  1  0.99731000  0.15069400  0.46393900  1
  C  979  1  0.01533800  0.15500300  0.47945900  1
  C  981  1  0.96944700  0.22448000  0.46879500  1
  C  982  1  0.98776000  0.22908000  0.48404200  1
  C  988  1  0.00233600  0.26568200  0.47962900  1
  C  993  1  0.03416400  0.17904800  0.50582700  1
  C  995  1  0.96176700  0.16088400  0.44360800  1
  C  997  1  0.73300000  0.26845200  0.04540600  1
  C  998  1  0.74988600  0.26169800  0.02934300  1
  C  999  1  0.76829100  0.24605600  0.03403500  1
  C  1000  1  0.77008400  0.23671900  0.05489300  1
  C  1001  1  0.75280200  0.24315600  0.07058900  1
  C  1002  1  0.73477500  0.25861300  0.06598900  1
  C  1004  1  0.78361500  0.24956000  0.99800200  1
  C  1005  1  0.76524600  0.26465900  0.99307400  1
  C  1011  1  0.75074300  0.26084800  0.95649100  1
  C  1016  1  0.71631200  0.28522300  0.04178800  1
  C  1018  1  0.78892200  0.22302800  0.06140300  1
  C  1020  1  0.23302300  0.23413800  0.89530300  1
  C  1021  1  0.24988900  0.24088500  0.91137200  1
  C  1022  1  0.26829700  0.25653000  0.90669000  1
  C  1023  1  0.27009800  0.26589000  0.88584100  1
  C  1024  1  0.25281900  0.25947300  0.87014400  1
  C  1025  1  0.23480700  0.24399600  0.87472800  1
  C  1027  1  0.28359300  0.25300500  0.94272100  1
  C  1028  1  0.26522100  0.23790300  0.94764100  1
  C  1034  1  0.25068400  0.24169100  0.98422400  1
  C  1039  1  0.21631500  0.21737800  0.89892200  1
  C  1041  1  0.28893700  0.27958900  0.87934000  1
  C  1043  1  0.48375000  0.67566700  0.48833000  1
  C  1044  1  0.50013400  0.69201500  0.48129000  1
  C  1045  1  0.51842400  0.68751600  0.46552400  1
  C  1046  1  0.52057900  0.66656700  0.45640700  1
  C  1047  1  0.50385500  0.65053700  0.46319300  1
  C  1048  1  0.48588500  0.65497200  0.47874100  1
  C  1050  1  0.53295700  0.72389300  0.46856900  1
  C  1051  1  0.51468800  0.72863300  0.48381700  1
  C  1057  1  0.50036100  0.76532500  0.47964600  1
  C  1062  1  0.46732400  0.67911700  0.50526200  1
  C  1064  1  0.53958100  0.66032400  0.44285200  1
  C  1066  1  0.98377100  0.82698700  0.45238600  1
  C  1067  1  0.00014600  0.81063700  0.45942800  1
  C  1068  1  0.01844100  0.81513800  0.47517600  1
  C  1069  1  0.02061500  0.83609800  0.48426500  1
  C  1070  1  0.00389300  0.85212800  0.47749200  1
  C  1071  1  0.98592800  0.84769200  0.46195000  1
  C  1073  1  0.03295000  0.77875100  0.47215500  1
  C  1074  1  0.01468000  0.77401000  0.45691800  1
  C  1080  1  0.00030500  0.73733700  0.46113900  1
  C  1085  1  0.96735000  0.82354300  0.43545800  1
  C  1087  1  0.03960800  0.84233500  0.49782300  1
  C  1089  1  0.91118900  0.15084600  0.19672000  1
  C  1090  1  0.92108600  0.16630600  0.21118000  1
  C  1091  1  0.91998100  0.16294600  0.23388500  1
  C  1092  1  0.90907400  0.14401000  0.24240700  1
  C  1093  1  0.89934200  0.12865200  0.22790800  1
  C  1094  1  0.90029600  0.13205200  0.20548500  1
  C  1096  1  0.94091100  0.19642600  0.23949200  1
  C  1097  1  0.94179900  0.20008000  0.21709000  1
  C  1103  1  0.93807800  0.23833300  0.20982100  1
  C  1108  1  0.91299000  0.15341700  0.17449500  1
  C  1110  1  0.90838900  0.13974400  0.26432700  1
  C  1112  1  0.41121600  0.35171200  0.74402400  1
  C  1113  1  0.42108800  0.33624600  0.72955200  1
  C  1114  1  0.41998000  0.33961100  0.70684700  1
  C  1115  1  0.40909500  0.35856100  0.69834000  1
  C  1116  1  0.39938700  0.37392500  0.71284900  1
  C  1117  1  0.40034200  0.37052000  0.73527000  1
  C  1119  1  0.44087000  0.30611400  0.70121600  1
  C  1120  1  0.44175400  0.30245200  0.72361600  1
  C  1126  1  0.43802800  0.26419300  0.73086100  1
  C  1131  1  0.41301700  0.34913400  0.76624600  1
  C  1133  1  0.40841400  0.36283400  0.67642200  1
  C  1135  1  0.16030800  0.02527600  0.87010300  1
  C  1136  1  0.17026900  0.01096300  0.88566500  1
  C  1137  1  0.16918400  0.98818600  0.88255100  1
  C  1138  1  0.15823900  0.97946900  0.86376300  1
  C  1139  1  0.14843200  0.99379900  0.84830000  1
  C  1140  1  0.14935300  0.01629400  0.85146500  1
  C  1142  1  0.19024500  0.98291800  0.91595300  1
  C  1143  1  0.19113200  0.00539600  0.91936300  1
  C  1149  1  0.18763600  0.01310500  0.95748600  1
  C  1154  1  0.16211900  0.04756400  0.87241900  1
  C  1156  1  0.15779400  0.95750100  0.85969300  1
  C  1158  1  0.66025000  0.47732600  0.07056800  1
  C  1159  1  0.67022700  0.49164100  0.05500900  1
  C  1160  1  0.66914200  0.51441900  0.05812600  1
  C  1161  1  0.65818800  0.52313400  0.07691600  1
  C  1162  1  0.64836800  0.50880200  0.09237800  1
  C  1163  1  0.64928500  0.48630800  0.08920800  1
  C  1165  1  0.69023500  0.51968700  0.02472700  1
  C  1166  1  0.69111900  0.49721000  0.02131100  1
  C  1172  1  0.68765400  0.48951200  0.98318700  1
  C  1177  1  0.66206000  0.45504000  0.06824500  1
  C  1179  1  0.65774400  0.54510400  0.08098800  1
  C  1181  1  0.59098300  0.35160900  0.19941100  1
  C  1182  1  0.58131500  0.33617000  0.21402200  1
  C  1183  1  0.58274000  0.33958400  0.23670900  1
  C  1184  1  0.59376000  0.35854300  0.24505300  1
  C  1185  1  0.60327200  0.37387300  0.23040500  1
  C  1186  1  0.60199600  0.37042400  0.20800300  1
  C  1188  1  0.56186100  0.30613600  0.24264100  1
  C  1189  1  0.56066600  0.30243900  0.22026700  1
  C  1195  1  0.56498800  0.26455700  0.21167600  1
  C  1200  1  0.58884100  0.34899700  0.17721800  1
  C  1202  1  0.59471000  0.36290300  0.26694500  1
  C  1204  1  0.09095800  0.15095500  0.74128900  1
  C  1205  1  0.08127900  0.16638700  0.72668400  1
  C  1206  1  0.08268800  0.16296400  0.70399800  1
  C  1207  1  0.09371400  0.14400700  0.69564600  1
  C  1208  1  0.10324800  0.12868900  0.71029000  1
  C  1209  1  0.10197200  0.13213900  0.73269200  1
  C  1211  1  0.06179400  0.19640600  0.69807500  1
  C  1212  1  0.06061600  0.20011200  0.72045000  1
  C  1218  1  0.06495100  0.23799100  0.72904000  1
  C  1223  1  0.08884000  0.15358400  0.76348400  1
  C  1225  1  0.09465000  0.13964700  0.67375200  1
  C  1227  1  0.34160200  0.47999900  0.87030100  1
  C  1228  1  0.33179200  0.49443000  0.88583700  1
  C  1229  1  0.33313600  0.51719400  0.88267500  1
  C  1230  1  0.34422700  0.52577300  0.86388600  1
  C  1231  1  0.35388600  0.51132100  0.84845400  1
  C  1232  1  0.35269300  0.48884200  0.85165700  1
  C  1234  1  0.31203900  0.52272100  0.91602900  1
  C  1235  1  0.31090300  0.50026400  0.91947500  1
  C  1241  1  0.31500000  0.49123200  0.95721200  1
  C  1246  1  0.33953500  0.45773600  0.87267700  1
  C  1248  1  0.34490300  0.54772600  0.85974800  1
  C  1250  1  0.84158300  0.02261000  0.07046800  1
  C  1251  1  0.83177100  0.00818600  0.05493200  1
  C  1252  1  0.83309900  0.98542300  0.05808900  1
  C  1253  1  0.84416900  0.97683300  0.07687700  1
  C  1254  1  0.85383700  0.99127600  0.09230700  1
  C  1255  1  0.85265600  0.01375700  0.08911000  1
  C  1257  1  0.81201800  0.97991200  0.02473700  1
  C  1258  1  0.81089100  0.00236800  0.02129800  1
  C  1264  1  0.81504900  0.01141800  0.98357000  1
  C  1269  1  0.83951500  0.04487300  0.06810600  1
  C  1271  1  0.84483600  0.95487900  0.08100500  1
  C  1273  1  0.09140000  0.85246900  0.74445500  1
  C  1274  1  0.08140200  0.83676900  0.73031900  1
  C  1275  1  0.08259100  0.83964400  0.70755000  1
  C  1276  1  0.09367400  0.85832900  0.69867400  1
  C  1277  1  0.10353400  0.87391700  0.71285300  1
  C  1278  1  0.10251900  0.87098600  0.73534300  1
  C  1280  1  0.06138500  0.80620500  0.70260200  1
  C  1281  1  0.06041200  0.80302400  0.72507600  1
  C  1287  1  0.06364600  0.76483900  0.73292500  1
  C  1292  1  0.08950500  0.85042500  0.76670500  1
  C  1294  1  0.09417800  0.86221000  0.67669900  1
  C  1296  1  0.59138000  0.65014300  0.19625300  1
  C  1297  1  0.58139200  0.66584600  0.21039800  1
  C  1298  1  0.58258500  0.66297100  0.23316500  1
  C  1299  1  0.59366300  0.64428300  0.24203100  1
  C  1300  1  0.60351400  0.62869100  0.22784600  1
  C  1301  1  0.60249400  0.63162300  0.20535700  1
  C  1303  1  0.56139100  0.69641500  0.23812900  1
  C  1304  1  0.56041800  0.69959900  0.21565600  1
  C  1310  1  0.56362700  0.73778900  0.20782100  1
  C  1315  1  0.58947700  0.65218200  0.17400500  1
  C  1317  1  0.59416000  0.64039800  0.26400500  1
  C  1319  1  0.41105000  0.65017500  0.74177200  1
  C  1320  1  0.42080200  0.66590700  0.72753300  1
  C  1321  1  0.41928900  0.66305200  0.70477700  1
  C  1322  1  0.40812000  0.64435600  0.69602200  1
  C  1323  1  0.39849400  0.62874000  0.71030600  1
  C  1324  1  0.39982200  0.63165500  0.73278300  1
  C  1326  1  0.44036200  0.69652700  0.69961100  1
  C  1327  1  0.44166100  0.69967000  0.72207300  1
  C  1333  1  0.43798400  0.73757400  0.73089200  1
  C  1338  1  0.41327600  0.65220500  0.76399600  1
  C  1340  1  0.40737800  0.64043800  0.67406100  1
  C  1342  1  0.91103600  0.85245400  0.19896900  1
  C  1343  1  0.92078600  0.83672500  0.21320800  1
  C  1344  1  0.91927400  0.83958900  0.23596500  1
  C  1345  1  0.90811200  0.85829100  0.24471900  1
  C  1346  1  0.89848900  0.87390200  0.23043500  1
  C  1347  1  0.89981500  0.87097900  0.20795800  1
  C  1349  1  0.94034700  0.80611400  0.24112800  1
  C  1350  1  0.94164200  0.80296100  0.21866700  1
  C  1356  1  0.93795700  0.76505700  0.20985700  1
  C  1361  1  0.91326100  0.85041300  0.17674400  1
  C  1363  1  0.90736100  0.86221400  0.26668100  1
  C  1365  1  0.66112700  0.52563900  0.36829400  1
  C  1366  1  0.67108700  0.51145500  0.38396100  1
  C  1367  1  0.67007100  0.48865400  0.38097700  1
  C  1368  1  0.65921300  0.47978500  0.36220800  1
  C  1369  1  0.64940000  0.49403100  0.34665400  1
  C  1370  1  0.65024600  0.51654700  0.34969000  1
  C  1372  1  0.69099800  0.48365400  0.41449100  1
  C  1373  1  0.69177800  0.50615400  0.41778000  1
  C  1379  1  0.68814700  0.51379500  0.45592100  1
  C  1384  1  0.66282200  0.54792800  0.37045400  1
  C  1386  1  0.65865200  0.45776500  0.35827800  1
  C  1388  1  0.16117500  0.97693900  0.57240400  1
  C  1389  1  0.17112800  0.99111800  0.55672300  1
  C  1390  1  0.17011200  0.01391900  0.55970100  1
  C  1391  1  0.15924800  0.02279300  0.57847300  1
  C  1392  1  0.14943500  0.00855200  0.59403500  1
  C  1393  1  0.15029400  0.98603400  0.59101300  1
  C  1395  1  0.19103000  0.01890900  0.52617100  1
  C  1396  1  0.19181000  0.99640900  0.52288600  1
  C  1402  1  0.18816600  0.98875000  0.48475400  1
  C  1407  1  0.16286100  0.95465000  0.57024500  1
  C  1409  1  0.15868900  0.04481500  0.58239500  1
  C  1411  1  0.84063100  0.97976500  0.36842900  1
  C  1412  1  0.83097300  0.99409600  0.38411800  1
  C  1413  1  0.83238400  0.01687800  0.38111500  1
  C  1414  1  0.84336200  0.02557800  0.36231500  1
  C  1415  1  0.85287500  0.01118400  0.34674500  1
  C  1416  1  0.85163800  0.98868400  0.34979600  1
  C  1418  1  0.81162400  0.02218500  0.41467600  1
  C  1419  1  0.81044400  0.99970200  0.41796200  1
  C  1425  1  0.81461200  0.99101600  0.45579100  1
  C  1430  1  0.83857500  0.95751000  0.37064000  1
  C  1432  1  0.84424100  0.04757600  0.35831300  1
  C  1434  1  0.34066500  0.52282900  0.57227800  1
  C  1435  1  0.33099500  0.50849300  0.55660700  1
  C  1436  1  0.33239300  0.48571000  0.55962000  1
  C  1437  1  0.34336300  0.47701600  0.57841800  1
  C  1438  1  0.35289000  0.49141300  0.59397200  1
  C  1439  1  0.35166500  0.51391300  0.59091200  1
  C  1441  1  0.31162700  0.48039600  0.52607500  1
  C  1442  1  0.31045600  0.50287700  0.52278100  1
  C  1448  1  0.31465100  0.51154100  0.48494500  1
  C  1453  1  0.33860700  0.54508300  0.57006400  1
  C  1455  1  0.34422300  0.45501600  0.58243000  1
  N  41  1  0.85581200  0.06027600  0.37113500  1
  N  42  1  0.89718300  0.15262700  0.27722200  1
  N  43  1  0.95371900  0.17270500  0.42805400  1
  N  44  1  0.80338200  0.21359300  0.38705700  1
  N  86  1  0.35577600  0.44231100  0.56959100  1
  N  87  1  0.39717300  0.34997300  0.66353600  1
  N  88  1  0.45368700  0.32983400  0.51269200  1
  N  89  1  0.30332500  0.28900900  0.55375800  1
  N  131  1  0.10811700  0.85358200  0.77893800  1
  N  132  1  0.14539800  0.94477800  0.87187400  1
  N  133  1  0.20300500  0.79338800  0.89148700  1
  N  134  1  0.05333000  0.83403300  0.93265300  1
  N  176  1  0.60809300  0.64904400  0.16176200  1
  N  177  1  0.64541300  0.55783400  0.06876800  1
  N  178  1  0.70300100  0.70920000  0.04919500  1
  N  179  1  0.55329200  0.66852900  0.00807700  1
  N  221  1  0.64740400  0.44500000  0.37126200  1
  N  222  1  0.60622400  0.35018500  0.27978800  1
  N  223  1  0.55342200  0.33519400  0.43273700  1
  N  224  1  0.70384300  0.29386100  0.39231800  1
  N  266  1  0.14745100  0.05757500  0.56940500  1
  N  267  1  0.10612800  0.15239000  0.66090000  1
  N  268  1  0.05345300  0.16738900  0.50794900  1
  N  269  1  0.20381400  0.20872200  0.54836800  1
  N  311  1  0.39480800  0.64917000  0.77643800  1
  N  312  1  0.35754600  0.56038100  0.87180000  1
  N  313  1  0.30369000  0.71391400  0.88611500  1
  N  314  1  0.45347900  0.67393600  0.92779400  1
  N  356  1  0.89479600  0.85345800  0.16431100  1
  N  357  1  0.85748900  0.94222900  0.06894900  1
  N  358  1  0.80364400  0.78871100  0.05468800  1
  N  359  1  0.95344800  0.82866900  0.01292700  1
  N  401  1  0.14414400  0.94251200  0.57339600  1
  N  402  1  0.10622500  0.84968400  0.66404300  1
  N  403  1  0.04866600  0.83019500  0.51269000  1
  N  404  1  0.19829800  0.78870900  0.55337700  1
  N  446  1  0.64411600  0.56007200  0.36729500  1
  N  447  1  0.60625500  0.65289200  0.27665000  1
  N  448  1  0.54867300  0.67246700  0.42799900  1
  N  449  1  0.69837600  0.71384400  0.38727000  1
  N  491  1  0.89481800  0.14919300  0.16206200  1
  N  492  1  0.85751200  0.05747900  0.07246600  1
  N  493  1  0.79980800  0.20940100  0.04895400  1
  N  494  1  0.94852200  0.16771800  0.00791100  1
  N  536  1  0.39484600  0.35336700  0.77869000  1
  N  537  1  0.35753200  0.44512800  0.86831700  1
  N  538  1  0.29982500  0.29319800  0.89180000  1
  N  539  1  0.44854500  0.33491300  0.93281700  1
  N  581  1  0.35711700  0.55747400  0.57316600  1
  N  582  1  0.39486400  0.65271400  0.66151600  1
  N  583  1  0.44848800  0.66699800  0.50794600  1
  N  584  1  0.29876400  0.70888100  0.54806500  1
  N  626  1  0.85709600  0.94512500  0.36755300  1
  N  627  1  0.89486900  0.84992700  0.27923700  1
  N  628  1  0.94850600  0.83565100  0.43278700  1
  N  629  1  0.79880100  0.79369300  0.39272500  1
  N  671  1  0.60681100  0.35321600  0.16454600  1
  N  672  1  0.64389500  0.44262400  0.07261000  1
  N  673  1  0.69817100  0.28853300  0.05454400  1
  N  674  1  0.54934700  0.32925900  0.01263400  1
  N  716  1  0.10681200  0.14935700  0.77614100  1
  N  717  1  0.14396000  0.05998000  0.86804600  1
  N  718  1  0.19821200  0.21405400  0.88613700  1
  N  719  1  0.04935200  0.17335700  0.92804800  1
  N  727  1  0.71799100  0.26134400  0.42382200  1
  N  730  1  0.75274900  0.23169000  0.43220700  1
  N  734  1  0.73939500  0.22813800  0.46925900  1
  N  750  1  0.21803000  0.24124400  0.51688800  1
  N  753  1  0.25279500  0.27091100  0.50854800  1
  N  757  1  0.23950900  0.27448100  0.47148700  1
  N  773  1  0.96788700  0.79742500  0.98069400  1
  N  776  1  0.00243700  0.78881400  0.95095600  1
  N  780  1  0.98853300  0.75187800  0.94723000  1
  N  796  1  0.46791200  0.70517200  0.96003400  1
  N  799  1  0.50243600  0.71375900  0.98978000  1
  N  803  1  0.48854800  0.75069800  0.99351900  1
  N  819  1  0.28414200  0.74110000  0.51685200  1
  N  822  1  0.24933000  0.77062400  0.50822800  1
  N  826  1  0.26322800  0.77444400  0.47135900  1
  N  842  1  0.78410700  0.76147600  0.42392200  1
  N  845  1  0.74928000  0.73194400  0.43249900  1
  N  849  1  0.76307600  0.72813700  0.46939200  1
  N  865  1  0.03424600  0.20423300  0.95969200  1
  N  868  1  0.99962400  0.21327000  0.98921400  1
  N  872  1  0.01436600  0.24992400  0.99323800  1
  N  888  1  0.53425600  0.29837900  0.98099300  1
  N  891  1  0.49961600  0.28934400  0.95150600  1
  N  895  1  0.51433200  0.25267700  0.94749600  1
  N  911  1  0.21773100  0.76132500  0.92271000  1
  N  914  1  0.25273300  0.73200200  0.93138600  1
  N  918  1  0.23894100  0.72825000  0.96829200  1
  N  934  1  0.71775700  0.74129800  0.01800000  1
  N  937  1  0.75276300  0.77063400  0.00936400  1
  N  941  1  0.73900000  0.77443500  0.97246100  1
  N  957  1  0.46797800  0.29826400  0.48027400  1
  N  960  1  0.50285000  0.28988800  0.45075600  1
  N  964  1  0.48957900  0.25275500  0.44719300  1
  N  980  1  0.96799700  0.20428000  0.46045800  1
  N  983  1  0.00286500  0.21266600  0.48995200  1
  N  987  1  0.98959600  0.24980100  0.49350900  1
  N  1003  1  0.78438400  0.24094200  0.01807900  1
  N  1006  1  0.74940400  0.27016500  0.00905400  1
  N  1010  1  0.76400400  0.27425300  0.97242300  1
  N  1026  1  0.28437600  0.26163800  0.92265000  1
  N  1029  1  0.24939200  0.23240600  0.93165500  1
  N  1033  1  0.26396300  0.22829800  0.96828600  1
  N  1049  1  0.53408800  0.70372800  0.46011500  1
  N  1052  1  0.49930900  0.71238000  0.48961500  1
  N  1056  1  0.51314100  0.74933400  0.49336000  1
  N  1072  1  0.03409500  0.79892300  0.48059000  1
  N  1075  1  0.99930600  0.79026400  0.45111900  1
  N  1079  1  0.01310900  0.75329800  0.44740200  1
  N  1095  1  0.93011400  0.17819400  0.24695600  1
  N  1098  1  0.93198800  0.18473500  0.20397800  1
  N  1102  1  0.95338100  0.21864300  0.20858700  1
  N  1118  1  0.43009300  0.32435900  0.69376500  1
  N  1121  1  0.43197100  0.31780400  0.73673900  1
  N  1125  1  0.45333200  0.28388200  0.73210500  1
  N  1141  1  0.17938400  0.97524500  0.89786600  1
  N  1144  1  0.18124800  0.01836800  0.90394600  1
  N  1148  1  0.20282600  0.01411000  0.93774400  1
  N  1164  1  0.67936100  0.52736000  0.04281400  1
  N  1167  1  0.68121900  0.48423800  0.03672600  1
  N  1171  1  0.70282500  0.48849600  0.00292900  1
  N  1187  1  0.57278500  0.32437600  0.24993600  1
  N  1190  1  0.57031600  0.31772000  0.20698800  1
  N  1194  1  0.54898900  0.28383500  0.21201000  1
  N  1210  1  0.07271900  0.17816500  0.69077500  1
  N  1213  1  0.07028100  0.18483900  0.73372300  1
  N  1217  1  0.04894400  0.21871900  0.72871100  1
  N  1233  1  0.32304800  0.53025900  0.89794700  1
  N  1236  1  0.32070300  0.48715600  0.90412800  1
  N  1240  1  0.29912400  0.49176000  0.93789700  1
  N  1256  1  0.82301100  0.97236300  0.04281500  1
  N  1259  1  0.82069500  0.01546900  0.03664400  1
  N  1263  1  0.79914300  0.01088100  0.00287300  1
  N  1279  1  0.07235600  0.82420300  0.69477300  1
  N  1282  1  0.07031700  0.81857400  0.73788800  1
  N  1286  1  0.04864200  0.78472100  0.73394600  1
  N  1302  1  0.57235800  0.67841400  0.24595000  1
  N  1305  1  0.57031000  0.68404300  0.20283600  1
  N  1309  1  0.54863800  0.71789900  0.20679800  1
  N  1325  1  0.42930400  0.67852200  0.69189200  1
  N  1328  1  0.43196000  0.68410700  0.73499500  1
  N  1332  1  0.45351300  0.71798900  0.73078600  1
  N  1348  1  0.92929000  0.82412200  0.24884700  1
  N  1351  1  0.93194300  0.81852000  0.20574600  1
  N  1355  1  0.95349200  0.78463800  0.20995200  1
  N  1371  1  0.68025100  0.47584200  0.39641000  1
  N  1374  1  0.68194000  0.51901000  0.40224000  1
  N  1378  1  0.70331500  0.51501400  0.43617600  1
  N  1394  1  0.18028600  0.02672600  0.54425800  1
  N  1397  1  0.18197800  0.98355800  0.53843800  1
  N  1401  1  0.20334300  0.98754500  0.50448500  1
  N  1417  1  0.82247500  0.02983900  0.39656700  1
  N  1420  1  0.82003300  0.98669500  0.40242500  1
  N  1424  1  0.79882500  0.99105500  0.43640700  1
  N  1440  1  0.32247400  0.47274600  0.54418100  1
  N  1443  1  0.32005800  0.51588800  0.53830100  1
  N  1447  1  0.29885300  0.51152100  0.50433200  1
