# generated using pymatgen
data_H23C29N3
_symmetry_space_group_name_H-M   'P 1'
_cell_length_a   29.90970000
_cell_length_b   38.79850453
_cell_length_c   38.79822425
_cell_angle_alpha   81.45552046
_cell_angle_beta   67.32926183
_cell_angle_gamma   67.32731342
_symmetry_Int_Tables_number   1
_chemical_formula_structural   H23C29N3
_chemical_formula_sum   'H368 C464 N48'
_cell_volume   38334.23180860
_cell_formula_units_Z   16
loop_
 _symmetry_equiv_pos_site_id
 _symmetry_equiv_pos_as_xyz
  1  'x, y, z'
loop_
 _atom_site_type_symbol
 _atom_site_label
 _atom_site_symmetry_multiplicity
 _atom_site_fract_x
 _atom_site_fract_y
 _atom_site_fract_z
 _atom_site_occupancy
  C  2  1  0.26256000  0.32215150  0.17400950  1
  C  3  1  0.27809200  0.37683800  0.13846000  1
  C  4  1  0.20132600  0.36391250  0.14567550  1
  C  5  1  0.15340000  0.37929000  0.17500300  1
  C  6  1  0.10644700  0.39003350  0.16886350  1
  C  7  1  0.10660700  0.38549700  0.13331300  1
  C  8  1  0.15478300  0.36941750  0.10426150  1
  C  9  1  0.20167050  0.35865650  0.11039050  1
  C  10  1  0.25714400  0.32684500  0.21094300  1
  C  11  1  0.26713250  0.29570300  0.23427500  1
  C  12  1  0.28233050  0.25926150  0.22124950  1
  C  13  1  0.28844300  0.25467450  0.18402250  1
  C  14  1  0.27885750  0.28581950  0.16057350  1
  C  15  1  0.31951250  0.36943300  0.10377900  1
  C  16  1  0.34889000  0.39268200  0.09043200  1
  C  17  1  0.33858750  0.42316950  0.11192350  1
  C  18  1  0.29671150  0.43054750  0.14661950  1
  C  19  1  0.26639700  0.40787000  0.15957000  1
  C  32  1  0.28762850  0.22678100  0.24704900  1
  C  35  1  0.05798100  0.40021050  0.12515450  1
  C  38  1  0.37067450  0.44711550  0.09766950  1
  C  42  1  0.80327600  0.60050800  0.81421300  1
  C  43  1  0.83794550  0.54581950  0.84976150  1
  C  44  1  0.75546500  0.55875050  0.84254650  1
  C  45  1  0.75223250  0.54338000  0.81322100  1
  C  46  1  0.70988150  0.53263850  0.81936250  1
  C  47  1  0.66996200  0.53717400  0.85491700  1
  C  48  1  0.67301700  0.55324750  0.88396750  1
  C  49  1  0.71527500  0.56400650  0.87783550  1
  C  50  1  0.83949050  0.59581500  0.77728000  1
  C  51  1  0.84166900  0.62696050  0.75395050  1
  C  52  1  0.80740350  0.66339800  0.76697700  1
  C  53  1  0.77169650  0.66798400  0.80420300  1
  C  54  1  0.76980850  0.63683650  0.82764850  1
  C  55  1  0.83727800  0.55322900  0.88444200  1
  C  56  1  0.87655750  0.52997850  0.89779050  1
  C  57  1  0.91823250  0.49948550  0.87630150  1
  C  58  1  0.91843250  0.49210550  0.84160550  1
  C  59  1  0.87839000  0.51478550  0.82865550  1
  C  72  1  0.80602150  0.69588350  0.74118150  1
  C  75  1  0.62788500  0.52246500  0.86308000  1
  C  78  1  0.96001050  0.47554050  0.89055850  1
  C  82  1  0.62337400  0.14124800  0.63327400  1
  C  83  1  0.69359250  0.10569800  0.57858800  1
  C  84  1  0.60389950  0.11291050  0.59151650  1
  C  85  1  0.57133800  0.14223350  0.57614550  1
  C  86  1  0.53513000  0.13608700  0.56540700  1
  C  87  1  0.53077150  0.10053050  0.56994150  1
  C  88  1  0.56288100  0.07148250  0.58601450  1
  C  89  1  0.59900450  0.07761950  0.59677250  1
  C  90  1  0.62265550  0.17818150  0.62858350  1
  C  91  1  0.60150150  0.20151200  0.65972800  1
  C  92  1  0.58025850  0.18848300  0.69616500  1
  C  93  1  0.58177950  0.15125750  0.70074950  1
  C  94  1  0.60333700  0.12781250  0.66960250  1
  C  95  1  0.72760350  0.07101650  0.58600050  1
  C  96  1  0.78023150  0.05766400  0.56275400  1
  C  97  1  0.80042200  0.07915200  0.53226200  1
  C  98  1  0.76592750  0.11385000  0.52487800  1
  C  99  1  0.71293450  0.12680350  0.54755550  1
  C  112  1  0.55308200  0.21428100  0.72864900  1
  C  115  1  0.49685900  0.09236450  0.55523250  1
  C  118  1  0.85645500  0.06489300  0.50832100  1
  C  122  1  0.44245300  0.78143100  0.35493300  1
  C  123  1  0.42243850  0.81697600  0.40962200  1
  C  124  1  0.35288550  0.80976450  0.39669350  1
  C  125  1  0.33428550  0.78043750  0.41206150  1
  C  126  1  0.28119250  0.78658000  0.42280200  1
  C  127  1  0.24580700  0.82213300  0.41826900  1
  C  128  1  0.26493400  0.85118550  0.40219550  1
  C  129  1  0.31794950  0.84505400  0.39143800  1
  C  130  1  0.47397900  0.74449800  0.35962400  1
  C  131  1  0.50729850  0.72116850  0.32847750  1
  C  132  1  0.50946550  0.73419800  0.29204000  1
  C  133  1  0.47834200  0.77142450  0.28745750  1
  C  134  1  0.44530900  0.79487000  0.31860400  1
  C  135  1  0.42918100  0.85165750  0.40221150  1
  C  136  1  0.44521350  0.86500500  0.42545900  1
  C  137  1  0.45639950  0.84351500  0.45595100  1
  C  138  1  0.44921400  0.80882000  0.46333400  1
  C  139  1  0.43185000  0.79586900  0.44065500  1
  C  152  1  0.54056650  0.70840100  0.25955700  1
  C  155  1  0.18902000  0.83029600  0.43297800  1
  C  158  1  0.47423100  0.85777100  0.47989700  1
  C  162  1  0.78361100  0.78142900  0.63328900  1
  C  163  1  0.76808000  0.81697700  0.57860000  1
  C  164  1  0.84484500  0.80976250  0.59153050  1
  C  165  1  0.89277400  0.78043700  0.57615900  1
  C  166  1  0.93972500  0.78657800  0.56541800  1
  C  167  1  0.93955350  0.82213300  0.56995500  1
  C  168  1  0.89137450  0.85118400  0.58602800  1
  C  169  1  0.84449050  0.84505150  0.59678750  1
  C  170  1  0.78902350  0.74449600  0.62859800  1
  C  171  1  0.77903100  0.72116500  0.65974300  1
  C  172  1  0.76383050  0.73419500  0.69618100  1
  C  173  1  0.75772250  0.77142000  0.70076600  1
  C  174  1  0.76731200  0.79486650  0.66961850  1
  C  175  1  0.72665700  0.85165800  0.58600800  1
  C  176  1  0.69728050  0.86500450  0.56275750  1
  C  177  1  0.70758200  0.84351450  0.53226850  1
  C  178  1  0.74946100  0.80881700  0.52488900  1
  C  179  1  0.77977350  0.79586800  0.54757000  1
  C  192  1  0.75852400  0.70839650  0.72866450  1
  C  195  1  0.98817800  0.83029500  0.55524500  1
  C  198  1  0.67549550  0.85776950  0.50832350  1
  C  202  1  0.24286650  0.14123700  0.35493700  1
  C  203  1  0.20819800  0.10569000  0.40962600  1
  C  204  1  0.29068050  0.11290150  0.39669450  1
  C  205  1  0.29391800  0.14222550  0.41206250  1
  C  206  1  0.33627100  0.13608200  0.42280200  1
  C  207  1  0.37618900  0.10052750  0.41826650  1
  C  208  1  0.37313100  0.07147750  0.40219450  1
  C  209  1  0.33086800  0.07761100  0.39143900  1
  C  210  1  0.20665500  0.17817050  0.35962850  1
  C  211  1  0.20447750  0.20150150  0.32848250  1
  C  212  1  0.23874600  0.18847100  0.29204500  1
  C  213  1  0.27444900  0.15124400  0.28746000  1
  C  214  1  0.27633600  0.12780000  0.31860800  1
  C  215  1  0.20886900  0.07100650  0.40221750  1
  C  216  1  0.16959200  0.05765850  0.42546750  1
  C  217  1  0.12791450  0.07914800  0.45596000  1
  C  218  1  0.12771400  0.11384500  0.46333900  1
  C  219  1  0.16775300  0.12679800  0.44065800  1
  C  232  1  0.24013050  0.21426850  0.25956150  1
  C  235  1  0.41827150  0.09236150  0.43297250  1
  C  238  1  0.08614050  0.06489150  0.47990550  1
  C  242  1  0.42277800  0.32217150  0.81419550  1
  C  243  1  0.35255950  0.37685650  0.84974850  1
  C  244  1  0.44225500  0.36392500  0.84253500  1
  C  245  1  0.47481400  0.37929700  0.81320900  1
  C  246  1  0.51102400  0.39003600  0.81935600  1
  C  247  1  0.51538850  0.38549850  0.85491050  1
  C  248  1  0.48328100  0.36942400  0.88395900  1
  C  249  1  0.44715550  0.35866800  0.87782400  1
  C  250  1  0.42349350  0.32686150  0.77726550  1
  C  251  1  0.44464700  0.29571700  0.75393400  1
  C  252  1  0.46588950  0.25927900  0.76696200  1
  C  253  1  0.46437350  0.25469350  0.80418650  1
  C  254  1  0.44281450  0.28584050  0.82763250  1
  C  255  1  0.31855450  0.36944550  0.88443150  1
  C  256  1  0.26592500  0.39269450  0.89778450  1
  C  257  1  0.24573250  0.42318400  0.87629500  1
  C  258  1  0.28022350  0.43056600  0.84159700  1
  C  259  1  0.33321550  0.40788800  0.82864200  1
  C  272  1  0.49306900  0.22679500  0.74116300  1
  C  275  1  0.54930150  0.40020450  0.86307650  1
  C  278  1  0.18969750  0.44712950  0.89055550  1
  C  282  1  0.60369850  0.60050900  0.17401600  1
  C  283  1  0.62371650  0.54582000  0.13847000  1
  C  284  1  0.69326750  0.55875150  0.14568350  1
  C  285  1  0.71187450  0.54338400  0.17500800  1
  C  286  1  0.76496600  0.53264650  0.16886450  1
  C  287  1  0.80034800  0.53718050  0.13331150  1
  C  288  1  0.78121900  0.55325000  0.10426000  1
  C  289  1  0.72820050  0.56400600  0.11039300  1
  C  290  1  0.57217450  0.59581900  0.21094700  1
  C  291  1  0.53885100  0.62696600  0.23427600  1
  C  292  1  0.53668350  0.66340350  0.22124550  1
  C  293  1  0.56780400  0.66798750  0.18401950  1
  C  294  1  0.60083900  0.63683850  0.16057850  1
  C  295  1  0.61697400  0.55322950  0.10378950  1
  C  296  1  0.60094500  0.52998050  0.09044050  1
  C  297  1  0.58976150  0.49948950  0.11192950  1
  C  298  1  0.59694450  0.49210800  0.14662500  1
  C  299  1  0.61430600  0.51478600  0.15957600  1
  C  312  1  0.50558200  0.69588800  0.24704200  1
  C  315  1  0.85713450  0.52247500  0.12514900  1
  C  318  1  0.57193100  0.47554450  0.09767350  1
  C  641  1  0.00912950  0.46134100  0.02201400  1
  C  642  1  0.95467300  0.47728550  0.04201950  1
  C  643  1  0.93495150  0.47634200  0.08161400  1
  C  644  1  0.96966600  0.46134350  0.10093950  1
  C  645  1  0.02370500  0.44634400  0.08161500  1
  C  646  1  0.04357850  0.44539750  0.04202150  1
  C  647  1  0.92135750  0.49390200  0.02166100  1
  C  648  1  0.09725250  0.42877400  0.02166400  1
  C  650  1  0.02908850  0.46133800  0.98209700  1
  C  651  1  0.99487100  0.47899200  0.96212000  1
  C  652  1  0.01488000  0.47938700  0.92248000  1
  C  653  1  0.06852000  0.46133300  0.90322900  1
  C  654  1  0.10291100  0.44328100  0.92248000  1
  C  655  1  0.08328000  0.44368450  0.96212250  1
  C  656  1  0.94116300  0.49541950  0.98259350  1
  C  658  1  0.11651400  0.42726250  0.98259650  1
  C  671  1  0.53702450  0.46133600  0.96621300  1
  C  672  1  0.51851750  0.44539300  0.94620800  1
  C  673  1  0.53744750  0.44633600  0.90661400  1
  C  674  1  0.57648850  0.46133450  0.88728850  1
  C  675  1  0.59620550  0.47633250  0.90661250  1
  C  676  1  0.57553800  0.47727600  0.94621000  1
  C  677  1  0.48146000  0.42877500  0.96656500  1
  C  678  1  0.59223900  0.49389250  0.96656850  1
  C  680  1  0.51706750  0.46133400  0.00613200  1
  C  681  1  0.48053550  0.44367450  0.02610650  1
  C  682  1  0.46130800  0.44327100  0.06574700  1
  C  683  1  0.47763900  0.46132850  0.08500050  1
  C  684  1  0.51321950  0.47938650  0.06574850  1
  C  685  1  0.53362600  0.47899100  0.02610700  1
  C  686  1  0.46373250  0.42724550  0.00563150  1
  C  688  1  0.57089500  0.49542750  0.00563350  1
  C  701  1  0.50913650  0.98922750  0.49410450  1
  C  702  1  0.47062200  0.00923200  0.47816200  1
  C  703  1  0.44995450  0.04882800  0.47910600  1
  C  704  1  0.46967200  0.06815300  0.49410300  1
  C  705  1  0.50871200  0.04882800  0.50910200  1
  C  706  1  0.52764400  0.00923200  0.51004600  1
  C  707  1  0.45392050  0.98887350  0.46154550  1
  C  708  1  0.56470450  0.98887450  0.52666350  1
  C  710  1  0.52909550  0.94930900  0.49410500  1
  C  711  1  0.51253600  0.92933300  0.47644900  1
  C  712  1  0.53294800  0.88969000  0.47605000  1
  C  713  1  0.56852900  0.87044050  0.49410850  1
  C  714  1  0.58485850  0.88969250  0.51216650  1
  C  715  1  0.56562800  0.92933500  0.51176500  1
  C  716  1  0.47526050  0.94980700  0.46001700  1
  C  718  1  0.58243000  0.94980850  0.52819450  1
  C  731  1  0.03702750  0.93343200  0.49411000  1
  C  732  1  0.00257950  0.91342650  0.51005450  1
  C  733  1  0.02245300  0.87383200  0.50911000  1
  C  734  1  0.07649200  0.85450700  0.49411100  1
  C  735  1  0.11120500  0.87383300  0.47911100  1
  C  736  1  0.09148100  0.91342750  0.47816750  1
  C  737  1  0.94890250  0.93378500  0.52667900  1
  C  738  1  0.12479900  0.93378400  0.46154800  1
  C  740  1  0.01706700  0.97335000  0.49411200  1
  C  741  1  0.96287600  0.99332600  0.51176600  1
  C  742  1  0.94324350  0.03296700  0.51216900  1
  C  743  1  0.97763300  0.05221900  0.49411700  1
  C  744  1  0.03127350  0.03296800  0.47606200  1
  C  745  1  0.05128400  0.99332550  0.47645750  1
  C  746  1  0.92964200  0.97285250  0.52818850  1
  C  748  1  0.10499000  0.97285200  0.46002800  1
  C  882  1  0.19260100  0.86786950  0.23326550  1
  C  883  1  0.20813300  0.92255600  0.19771600  1
  C  884  1  0.13136700  0.90963050  0.20493150  1
  C  885  1  0.08344100  0.92500800  0.23425900  1
  C  886  1  0.03648800  0.93575150  0.22811950  1
  C  887  1  0.03664800  0.93121500  0.19256900  1
  C  888  1  0.08482400  0.91513550  0.16351750  1
  C  889  1  0.13171150  0.90437450  0.16964650  1
  C  890  1  0.18718500  0.87256300  0.27019900  1
  C  891  1  0.19717350  0.84142100  0.29353100  1
  C  892  1  0.21237150  0.80497950  0.28050550  1
  C  893  1  0.21848400  0.80039250  0.24327850  1
  C  894  1  0.20889850  0.83153750  0.21982950  1
  C  895  1  0.24955350  0.91515100  0.16303500  1
  C  896  1  0.27893100  0.93840000  0.14968800  1
  C  897  1  0.26862850  0.96888750  0.17117950  1
  C  898  1  0.22675250  0.97626550  0.20587550  1
  C  899  1  0.19643800  0.95358800  0.21882600  1
  C  912  1  0.21766950  0.77249900  0.30630500  1
  C  915  1  0.98802200  0.94592850  0.18441050  1
  C  918  1  0.30071550  0.99283360  0.15692540  1
  C  922  1  0.73331700  0.14622600  0.87346900  1
  C  923  1  0.76798650  0.09153750  0.90901750  1
  C  924  1  0.68550600  0.10446850  0.90180250  1
  C  925  1  0.68227365  0.08909785  0.87247685  1
  C  926  1  0.63992265  0.07835635  0.87861835  1
  C  927  1  0.60000315  0.08289184  0.91417284  1
  C  928  1  0.60305800  0.09896550  0.94322350  1
  C  929  1  0.64531600  0.10972450  0.93709150  1
  C  930  1  0.76953165  0.14153285  0.83653585  1
  C  931  1  0.77171016  0.17267834  0.81320635  1
  C  932  1  0.73744450  0.20911600  0.82623300  1
  C  933  1  0.70173750  0.21370200  0.86345900  1
  C  934  1  0.69984950  0.18255450  0.88690450  1
  C  935  1  0.76731900  0.09894700  0.94369800  1
  C  936  1  0.80659850  0.07569650  0.95704650  1
  C  937  1  0.84827366  0.04520335  0.93555734  1
  C  938  1  0.84847365  0.03782335  0.90086135  1
  C  939  1  0.80843115  0.06050335  0.88791135  1
  C  952  1  0.73606250  0.24160150  0.80043750  1
  C  955  1  0.55792616  0.06818284  0.92233585  1
  C  958  1  0.89005165  0.02125835  0.94981435  1
  C  962  1  0.55341500  0.68696609  0.69252991  1
  C  963  1  0.62363350  0.65141600  0.63784400  1
  C  964  1  0.53394050  0.65862850  0.65077250  1
  C  965  1  0.50137900  0.68795150  0.63540150  1
  C  966  1  0.46517100  0.68180500  0.62466300  1
  C  967  1  0.46081250  0.64624850  0.62919750  1
  C  968  1  0.49292200  0.61720060  0.64527040  1
  C  969  1  0.52904550  0.62333760  0.65602840  1
  C  970  1  0.55269650  0.72389950  0.68783950  1
  C  971  1  0.53154250  0.74723000  0.71898400  1
  C  972  1  0.51029950  0.73420110  0.75542090  1
  C  973  1  0.51182050  0.69697560  0.76000540  1
  C  974  1  0.53337800  0.67353060  0.72885840  1
  C  975  1  0.65764450  0.61673460  0.64525640  1
  C  976  1  0.71027250  0.60338209  0.62200991  1
  C  977  1  0.73046300  0.62487000  0.59151800  1
  C  978  1  0.69596850  0.65956800  0.58413400  1
  C  979  1  0.64297550  0.67252150  0.60681150  1
  C  992  1  0.48312300  0.75999910  0.78790490  1
  C  995  1  0.42690000  0.63808250  0.61448850  1
  C  998  1  0.78649600  0.61061100  0.56757700  1
  C  1002  1  0.37249400  0.32714910  0.41418890  1
  C  1003  1  0.35247965  0.36269395  0.46887775  1
  C  1004  1  0.28292665  0.35548245  0.45594925  1
  C  1005  1  0.26432650  0.32615560  0.47131740  1
  C  1006  1  0.21123365  0.33229795  0.48205775  1
  C  1007  1  0.17584815  0.36785095  0.47752475  1
  C  1008  1  0.19497515  0.39690345  0.46145125  1
  C  1009  1  0.24799065  0.39077195  0.45069375  1
  C  1010  1  0.40402000  0.29021610  0.41887990  1
  C  1011  1  0.43733950  0.26688660  0.38773340  1
  C  1012  1  0.43950650  0.27991610  0.35129590  1
  C  1013  1  0.40838300  0.31714260  0.34671340  1
  C  1014  1  0.37535000  0.34058810  0.37785990  1
  C  1015  1  0.35922215  0.39737545  0.46146725  1
  C  1016  1  0.37525465  0.41072295  0.48471475  1
  C  1017  1  0.38644065  0.38923295  0.51520675  1
  C  1018  1  0.37925515  0.35453795  0.52258975  1
  C  1019  1  0.36189115  0.34158695  0.49991075  1
  C  1032  1  0.47060750  0.25411910  0.31881290  1
  C  1035  1  0.11906115  0.37601395  0.49223375  1
  C  1038  1  0.40427215  0.40348895  0.53915275  1
  C  1042  1  0.71365200  0.32714700  0.69254500  1
  C  1043  1  0.69812100  0.36269500  0.63785600  1
  C  1044  1  0.77488600  0.35548050  0.65078650  1
  C  1045  1  0.82281515  0.32615485  0.63541485  1
  C  1046  1  0.86976615  0.33229585  0.62467385  1
  C  1047  1  0.86959465  0.36785084  0.62921084  1
  C  1048  1  0.82141550  0.39690200  0.64528400  1
  C  1049  1  0.77453150  0.39076950  0.65604350  1
  C  1050  1  0.71906465  0.29021385  0.68785385  1
  C  1051  1  0.70907215  0.26688285  0.71899884  1
  C  1052  1  0.69387150  0.27991300  0.75543700  1
  C  1053  1  0.68776350  0.31713800  0.76002200  1
  C  1054  1  0.69735300  0.34058450  0.72887450  1
  C  1055  1  0.65669800  0.39737600  0.64526400  1
  C  1056  1  0.62732150  0.41072250  0.62201350  1
  C  1057  1  0.63762315  0.38923235  0.59152434  1
  C  1058  1  0.67950215  0.35453485  0.58414485  1
  C  1059  1  0.70981465  0.34158585  0.60682585  1
  C  1072  1  0.68856500  0.25411450  0.78792050  1
  C  1075  1  0.91821926  0.37601284  0.61450084  1
  C  1078  1  0.60553665  0.40348745  0.56757925  1
  C  1082  1  0.17290750  0.68695500  0.41419300  1
  C  1083  1  0.13823900  0.65140800  0.46888200  1
  C  1084  1  0.22072150  0.65861950  0.45595050  1
  C  1085  1  0.22395900  0.68794350  0.47131850  1
  C  1086  1  0.26631200  0.68180000  0.48205800  1
  C  1087  1  0.30623000  0.64624550  0.47752250  1
  C  1088  1  0.30317200  0.61719550  0.46145050  1
  C  1089  1  0.26090900  0.62332900  0.45069500  1
  C  1090  1  0.13669600  0.72388850  0.41888450  1
  C  1091  1  0.13451850  0.74721950  0.38773850  1
  C  1092  1  0.16878700  0.73418900  0.35130100  1
  C  1093  1  0.20449000  0.69696200  0.34671600  1
  C  1094  1  0.20637700  0.67351800  0.37786400  1
  C  1095  1  0.13891000  0.61672450  0.46147350  1
  C  1096  1  0.09963300  0.60337650  0.48472350  1
  C  1097  1  0.05795550  0.62486600  0.51521600  1
  C  1098  1  0.05775500  0.65956300  0.52259500  1
  C  1099  1  0.09779400  0.67251600  0.49991400  1
  C  1112  1  0.17017150  0.75998650  0.31881750  1
  C  1115  1  0.34831260  0.63807950  0.49222850  1
  C  1118  1  0.01618150  0.61060950  0.53916150  1
  C  1122  1  0.35281900  0.86788959  0.87345141  1
  C  1123  1  0.28260065  0.92257435  0.90900435  1
  C  1124  1  0.37229615  0.90964285  0.90179085  1
  C  1125  1  0.40485500  0.92501500  0.87246500  1
  C  1126  1  0.44106515  0.93575385  0.87861185  1
  C  1127  1  0.44542965  0.93121635  0.91416635  1
  C  1128  1  0.41332215  0.91514195  0.94321475  1
  C  1129  1  0.37719665  0.90438595  0.93707975  1
  C  1130  1  0.35353450  0.87257950  0.83652150  1
  C  1131  1  0.37468800  0.84143500  0.81319000  1
  C  1132  1  0.39593050  0.80499710  0.82621790  1
  C  1133  1  0.39441450  0.80041160  0.86344240  1
  C  1134  1  0.37285550  0.83155860  0.88688840  1
  C  1135  1  0.24859565  0.91516345  0.94368725  1
  C  1136  1  0.19596615  0.93841244  0.95704026  1
  C  1137  1  0.17577365  0.96890185  0.93555085  1
  C  1138  1  0.21026465  0.97628385  0.90085285  1
  C  1139  1  0.26325665  0.95360585  0.88789785  1
  C  1152  1  0.42311000  0.77251310  0.80041890  1
  C  1155  1  0.47934275  0.94592235  0.92233235  1
  C  1158  1  0.11973865  0.99284735  0.94981135  1
  C  1162  1  0.53373950  0.14622710  0.23327190  1
  C  1163  1  0.55375750  0.09153810  0.19772590  1
  C  1164  1  0.62330850  0.10446960  0.20493940  1
  C  1165  1  0.64191550  0.08910210  0.23426390  1
  C  1166  1  0.69500700  0.07836460  0.22812040  1
  C  1167  1  0.73038900  0.08289860  0.19256740  1
  C  1168  1  0.71126000  0.09896810  0.16351590  1
  C  1169  1  0.65824150  0.10972410  0.16964890  1
  C  1170  1  0.50221550  0.14153710  0.27020290  1
  C  1171  1  0.46889200  0.17268410  0.29353190  1
  C  1172  1  0.46672450  0.20912160  0.28050140  1
  C  1173  1  0.49784500  0.21370560  0.24327540  1
  C  1174  1  0.53088000  0.18255660  0.21983440  1
  C  1175  1  0.54701500  0.09894760  0.16304540  1
  C  1176  1  0.53098600  0.07569860  0.14969640  1
  C  1177  1  0.51980250  0.04520760  0.17118540  1
  C  1178  1  0.52698550  0.03782610  0.20588090  1
  C  1179  1  0.54434700  0.06050410  0.21883190  1
  C  1192  1  0.43562300  0.24160610  0.30629790  1
  C  1195  1  0.78717560  0.06819310  0.18440490  1
  C  1198  1  0.50197200  0.02126260  0.15692940  1
  C  1521  1  0.93917060  0.00705910  0.08126990  1
  C  1522  1  0.88471410  0.02300360  0.10127540  1
  C  1523  1  0.86499260  0.02206010  0.14086990  1
  C  1524  1  0.89970710  0.00706160  0.16019540  1
  C  1525  1  0.95374600  0.99206210  0.14087090  1
  C  1526  1  0.97361950  0.99111560  0.10127740  1
  C  1527  1  0.85139860  0.03962010  0.08091690  1
  C  1528  1  0.02729350  0.97449210  0.08091990  1
  C  1530  1  0.95912960  0.00705610  0.04135290  1
  C  1531  1  0.92491210  0.02471000  0.02137600  1
  C  1532  1  0.94492110  0.02510500  0.98173600  1
  C  1533  1  0.99856125  0.00705085  0.96248485  1
  C  1534  1  0.03295215  0.98899885  0.98173585  1
  C  1535  1  0.01332100  0.98940260  0.02137840  1
  C  1536  1  0.87120410  0.04113759  0.04184941  1
  C  1538  1  0.04655500  0.97298060  0.04185240  1
  C  1551  1  0.46706560  0.00705409  0.02546891  1
  C  1552  1  0.44855875  0.99111094  0.00546375  1
  C  1553  1  0.46748875  0.99205385  0.96586985  1
  C  1554  1  0.50652975  0.00705235  0.94654435  1
  C  1555  1  0.52624666  0.02205034  0.96586834  1
  C  1556  1  0.50557900  0.02299400  0.00546600  1
  C  1557  1  0.41150110  0.97449310  0.02582090  1
  C  1558  1  0.52228000  0.03961050  0.02582450  1
  C  1560  1  0.44710860  0.00705210  0.06538790  1
  C  1561  1  0.41057660  0.98939260  0.08536240  1
  C  1562  1  0.39134910  0.98898910  0.12500290  1
  C  1563  1  0.40768010  0.00704660  0.14425640  1
  C  1564  1  0.44326050  0.02510460  0.12500440  1
  C  1565  1  0.46366700  0.02470910  0.08536290  1
  C  1566  1  0.39377360  0.97296360  0.06488740  1
  C  1568  1  0.50093600  0.04114560  0.06488940  1
  C  1581  1  0.43917760  0.53494559  0.55336041  1
  C  1582  1  0.40066310  0.55495000  0.53741800  1
  C  1583  1  0.37999560  0.59454600  0.53836200  1
  C  1584  1  0.39971310  0.61387100  0.55335900  1
  C  1585  1  0.43875300  0.59454600  0.56835800  1
  C  1586  1  0.45768500  0.55495009  0.56930191  1
  C  1587  1  0.38396160  0.53459150  0.52080150  1
  C  1588  1  0.49474550  0.53459260  0.58591940  1
  C  1590  1  0.45913660  0.49502710  0.55336090  1
  C  1591  1  0.44257710  0.47505110  0.53570490  1
  C  1592  1  0.46298925  0.43540795  0.53530575  1
  C  1593  1  0.49857025  0.41615845  0.55336425  1
  C  1594  1  0.51489950  0.43541060  0.57142240  1
  C  1595  1  0.49566900  0.47505310  0.57102090  1
  C  1596  1  0.40530160  0.49552510  0.51927290  1
  C  1598  1  0.51247100  0.49552660  0.58745040  1
  C  1611  1  0.96706860  0.47915010  0.55336590  1
  C  1612  1  0.93262060  0.45914460  0.56931040  1
  C  1613  1  0.95249425  0.41954994  0.56836574  1
  C  1614  1  0.00653325  0.40022495  0.55336675  1
  C  1615  1  0.04124615  0.41955095  0.53836675  1
  C  1616  1  0.02152215  0.45914544  0.53742325  1
  C  1617  1  0.87894360  0.47950310  0.58593490  1
  C  1618  1  0.05484000  0.47950210  0.52080390  1
  C  1620  1  0.94710810  0.51906810  0.55336790  1
  C  1621  1  0.89291710  0.53904410  0.57102190  1
  C  1622  1  0.87328460  0.57868500  0.57142500  1
  C  1623  1  0.90767410  0.59793700  0.55337300  1
  C  1624  1  0.96131450  0.57868600  0.53531800  1
  C  1625  1  0.98132500  0.53904350  0.53571350  1
  C  1626  1  0.85968310  0.51857060  0.58744440  1
  C  1628  1  0.03503100  0.51857009  0.51928391  1
  H  20  1  0.26111550  0.30000950  0.26134750  1
  H  21  1  0.24423950  0.35299700  0.22144000  1
  H  22  1  0.28230650  0.28201350  0.13400950  1
  H  23  1  0.29873200  0.22868250  0.17403250  1
  H  24  1  0.15258000  0.38341050  0.20069850  1
  H  25  1  0.07225050  0.40223550  0.19021350  1
  H  26  1  0.32824200  0.34719850  0.08801250  1
  H  27  1  0.37860650  0.38665800  0.06513400  1
  H  28  1  0.28766400  0.45269900  0.16260900  1
  H  29  1  0.23605500  0.41387700  0.18458800  1
  H  30  1  0.23608300  0.34731600  0.08891600  1
  H  31  1  0.15608200  0.36595800  0.07822400  1
  H  33  1  0.29134400  0.23402450  0.27178350  1
  H  34  1  0.32335000  0.20363200  0.23329600  1
  H  36  1  0.02359650  0.40717050  0.15080050  1
  H  37  1  0.05687800  0.37867750  0.11052750  1
  H  39  1  0.36060850  0.46756650  0.11859050  1
  H  40  1  0.36205900  0.46255450  0.07362050  1
  H  60  1  0.86703600  0.62265400  0.72687900  1
  H  61  1  0.86323950  0.56966300  0.76678000  1
  H  62  1  0.74288400  0.64064200  0.85421300  1
  H  63  1  0.74600350  0.69397600  0.81419500  1
  H  64  1  0.78122250  0.53926150  0.78752150  1
  H  65  1  0.70922550  0.52044400  0.79801500  1
  H  66  1  0.80801100  0.57546250  0.90020450  1
  H  67  1  0.87495300  0.53600500  0.92308800  1
  H  68  1  0.94752300  0.46995150  0.82561950  1
  H  69  1  0.87907550  0.50877450  0.80363650  1
  H  70  1  0.71688350  0.57534150  0.89930750  1
  H  71  1  0.64482600  0.55670500  0.91000800  1
  H  73  1  0.84171750  0.68863900  0.71644600  1
  H  74  1  0.80483700  0.71902950  0.75493750  1
  H  76  1  0.62609900  0.51550750  0.83743350  1
  H  77  1  0.59062700  0.54399800  0.87770700  1
  H  79  1  0.99131550  0.45508750  0.86963950  1
  H  80  1  0.94278300  0.46010600  0.91461100  1
  H  100  1  0.59980000  0.22858200  0.65542200  1
  H  101  1  0.63590500  0.18868100  0.60243100  1
  H  102  1  0.60297750  0.10124700  0.67340900  1
  H  103  1  0.56607600  0.14126750  0.72674150  1
  H  104  1  0.57462600  0.16793350  0.57202750  1
  H  105  1  0.51312450  0.15743500  0.55321100  1
  H  106  1  0.71409700  0.05525450  0.60823650  1
  H  107  1  0.80392150  0.03236650  0.56878250  1
  H  108  1  0.77903550  0.12983350  0.50272550  1
  H  109  1  0.68860300  0.15182200  0.54154400  1
  H  110  1  0.62208750  0.05614750  0.60810850  1
  H  111  1  0.56073400  0.04544050  0.58947050  1
  H  113  1  0.56403900  0.23901550  0.72140550  1
  H  114  1  0.56565600  0.20052350  0.75179550  1
  H  116  1  0.46942450  0.11800900  0.54827700  1
  H  117  1  0.47423150  0.07773550  0.57676750  1
  H  119  1  0.86684450  0.08581000  0.48786800  1
  H  120  1  0.86327800  0.04084200  0.49288400  1
  H  140  1  0.52836250  0.69409700  0.33278300  1
  H  141  1  0.47157650  0.73399800  0.38577400  1
  H  142  1  0.42219200  0.82143300  0.31479900  1
  H  143  1  0.47863950  0.78141700  0.26146500  1
  H  144  1  0.35915950  0.75473850  0.41617950  1
  H  145  1  0.26834350  0.76523100  0.43499900  1
  H  146  1  0.42214950  0.86742000  0.37997600  1
  H  147  1  0.44963750  0.89030100  0.41943300  1
  H  148  1  0.45615200  0.79283200  0.48548800  1
  H  149  1  0.42652350  0.77085300  0.44666500  1
  H  150  1  0.33089150  0.86652700  0.38010300  1
  H  151  1  0.24019600  0.87722650  0.39874050  1
  H  153  1  0.56901900  0.68366650  0.26679850  1
  H  154  1  0.56252800  0.72215900  0.23640900  1
  H  156  1  0.18027900  0.80465000  0.43993400  1
  H  157  1  0.17329250  0.84492550  0.41144650  1
  H  159  1  0.48508450  0.83685050  0.50034850  1
  H  160  1  0.44156900  0.88182200  0.49533200  1
  H  180  1  0.78504250  0.69409400  0.65543600  1
  H  181  1  0.80192900  0.73399650  0.60244450  1
  H  182  1  0.76386300  0.82143050  0.67342450  1
  H  183  1  0.74743100  0.78141300  0.72675700  1
  H  184  1  0.89359850  0.75473850  0.57204050  1
  H  185  1  0.97392100  0.76523100  0.55322100  1
  H  186  1  0.71792800  0.86742250  0.60824050  1
  H  187  1  0.66756000  0.89030250  0.56878350  1
  H  188  1  0.75851000  0.79282950  0.50273750  1
  H  189  1  0.81012000  0.77084800  0.54156000  1
  H  190  1  0.81007400  0.86652500  0.60812500  1
  H  191  1  0.89006950  0.87722400  0.58948600  1
  H  193  1  0.75480850  0.68366300  0.72142000  1
  H  194  1  0.72280350  0.72215400  0.75181100  1
  H  196  1  0.02256650  0.80464800  0.54828600  1
  H  197  1  0.98927750  0.84492300  0.57677700  1
  H  199  1  0.68556000  0.83684950  0.48787250  1
  H  200  1  0.68410650  0.88181950  0.49288550  1
  H  220  1  0.17911250  0.22857200  0.33278800  1
  H  221  1  0.18290700  0.18867150  0.38578050  1
  H  222  1  0.30325800  0.10123400  0.31480400  1
  H  223  1  0.30014250  0.14125150  0.26146850  1
  H  224  1  0.26492550  0.16792500  0.41618300  1
  H  225  1  0.33692900  0.15742950  0.43499650  1
  H  226  1  0.23813550  0.05524450  0.37998550  1
  H  227  1  0.17119800  0.03236000  0.41944400  1
  H  228  1  0.09862350  0.12983300  0.48549100  1
  H  229  1  0.16706850  0.15181700  0.44666700  1
  H  230  1  0.32926100  0.05613900  0.38010300  1
  H  231  1  0.40132350  0.04543500  0.39873700  1
  H  233  1  0.20443750  0.23900500  0.26680300  1
  H  234  1  0.24131500  0.20051250  0.23641350  1
  H  236  1  0.42005850  0.11800700  0.43992900  1
  H  237  1  0.45552850  0.07773200  0.41144000  1
  H  239  1  0.05483500  0.08581000  0.50035600  1
  H  240  1  0.10336800  0.04084200  0.49534200  1
  H  260  1  0.44635050  0.30002250  0.72686250  1
  H  261  1  0.41024300  0.35301400  0.76676600  1
  H  262  1  0.44317700  0.28203400  0.85419600  1
  H  263  1  0.48007750  0.22870000  0.81417700  1
  H  264  1  0.47152400  0.38341600  0.78751200  1
  H  265  1  0.53302750  0.40223050  0.79800850  1
  H  266  1  0.33206200  0.34721350  0.90019350  1
  H  267  1  0.24223700  0.38666800  0.92308300  1
  H  268  1  0.26711450  0.45271950  0.82561050  1
  H  269  1  0.35754650  0.41389800  0.80362200  1
  H  270  1  0.42407300  0.34733200  0.89929600  1
  H  271  1  0.48542850  0.36596750  0.91000150  1
  H  273  1  0.48210750  0.23404100  0.71642900  1
  H  274  1  0.48049600  0.20364800  0.75492000  1
  H  276  1  0.57673450  0.40716150  0.83743150  1
  H  277  1  0.57192950  0.37867200  0.87770600  1
  H  279  1  0.17930650  0.46757950  0.86963750  1
  H  280  1  0.18287600  0.46256550  0.91460550  1
  H  300  1  0.51779100  0.62265950  0.26134750  1
  H  301  1  0.57457850  0.56966700  0.22144900  1
  H  302  1  0.62395750  0.64064250  0.13401250  1
  H  303  1  0.56750600  0.69397850  0.17402850  1
  H  304  1  0.68700050  0.53926750  0.20070750  1
  H  305  1  0.77781500  0.52045250  0.19021450  1
  H  306  1  0.62400450  0.57546600  0.08802600  1
  H  307  1  0.59652150  0.53600750  0.06514350  1
  H  308  1  0.59000800  0.46995400  0.16261100  1
  H  309  1  0.61963300  0.50877650  0.18459450  1
  H  310  1  0.71525750  0.57534000  0.08892000  1
  H  311  1  0.80595100  0.55670850  0.07821850  1
  H  313  1  0.47713050  0.68864550  0.27177750  1
  H  314  1  0.48361800  0.71903500  0.23328500  1
  H  316  1  0.86587750  0.51551950  0.15079550  1
  H  317  1  0.87285800  0.54400850  0.11051850  1
  H  319  1  0.56108000  0.45509100  0.11859100  1
  H  320  1  0.60459500  0.46010650  0.07362250  1
  H  649  1  0.95538000  0.46134350  0.12951350  1
  H  657  1  0.08281350  0.46133200  0.87463900  1
  H  659  1  0.91529250  0.50816800  0.96937700  1
  H  660  1  0.88208350  0.50579550  0.03498150  1
  H  661  1  0.15560050  0.41450450  0.96937950  1
  H  662  1  0.12320450  0.41688350  0.03498550  1
  H  664  1  0.05208150  0.45579850  0.11703850  1
  H  666  1  0.16148100  0.40967650  0.87996250  1
  H  668  1  0.99882900  0.51298850  0.87995650  1
  H  670  1  0.87115600  0.46688450  0.11703850  1
  H  679  1  0.59077550  0.46133450  0.85871450  1
  H  687  1  0.46334600  0.46132700  0.11358900  1
  H  689  1  0.43739550  0.41449650  0.01884850  1
  H  690  1  0.46741350  0.41687350  0.95324350  1
  H  691  1  0.58403000  0.50816200  0.01885300  1
  H  692  1  0.61961300  0.50578850  0.95324650  1
  H  694  1  0.66945850  0.46687600  0.87119400  1
  H  696  1  0.49566300  0.51299000  0.10827100  1
  H  698  1  0.43634300  0.40966650  0.10826650  1
  H  700  1  0.49961700  0.45579350  0.87118750  1
  H  709  1  0.45538350  0.09672700  0.49410300  1
  H  717  1  0.58282350  0.84185050  0.49411050  1
  H  719  1  0.46213550  0.93659000  0.44727200  1
  H  720  1  0.42654900  0.00219600  0.44964600  1
  H  721  1  0.60877000  0.93659250  0.54094250  1
  H  722  1  0.57875100  0.00219550  0.53856550  1
  H  724  1  0.54654200  0.08425150  0.49964550  1
  H  726  1  0.60982900  0.84717100  0.54577000  1
  H  728  1  0.55049850  0.84716800  0.44245000  1
  H  730  1  0.37670050  0.08424800  0.48856200  1
  H  739  1  0.09077950  0.82593150  0.49410950  1
  H  747  1  0.96333750  0.08080900  0.49411900  1
  H  749  1  0.89055600  0.98607000  0.54094800  1
  H  750  1  0.92295400  0.92046250  0.53856950  1
  H  751  1  0.13086000  0.98607000  0.44728600  1
  H  752  1  0.16407200  0.92046300  0.44965700  1
  H  754  1  0.17500400  0.83840700  0.48856700  1
  H  756  1  0.04732000  0.07548950  0.44245850  1
  H  758  1  0.88467200  0.07549000  0.54577000  1
  H  760  1  0.99407700  0.83840800  0.49965600  1
  H  900  1  0.19115650  0.84572750  0.32060350  1
  H  901  1  0.17428050  0.89871500  0.28069600  1
  H  902  1  0.21234750  0.82773150  0.19326550  1
  H  903  1  0.22877300  0.77440050  0.23328850  1
  H  904  1  0.08262100  0.92912850  0.25995450  1
  H  905  1  0.00229150  0.94795350  0.24946950  1
  H  906  1  0.25828300  0.89291650  0.14726850  1
  H  907  1  0.30864750  0.93237610  0.12438990  1
  H  908  1  0.21770500  0.99841700  0.22186500  1
  H  909  1  0.16609600  0.95959500  0.24384400  1
  H  910  1  0.16612400  0.89303400  0.14817200  1
  H  911  1  0.08612300  0.91167600  0.13748000  1
  H  913  1  0.22138500  0.77974250  0.33103950  1
  H  914  1  0.25339100  0.74935000  0.29255200  1
  H  916  1  0.95363750  0.95288850  0.21005650  1
  H  917  1  0.98691900  0.92439550  0.16978350  1
  H  919  1  0.29064950  0.01328460  0.17784640  1
  H  920  1  0.29210000  0.00827260  0.13287640  1
  H  940  1  0.79707715  0.16837185  0.78613485  1
  H  941  1  0.79328065  0.11538085  0.82603585  1
  H  942  1  0.67292500  0.18636000  0.91346900  1
  H  943  1  0.67604450  0.23969400  0.87345100  1
  H  944  1  0.71126365  0.08497935  0.84677735  1
  H  945  1  0.63926665  0.06616185  0.85727085  1
  H  946  1  0.73805200  0.12118050  0.95946050  1
  H  947  1  0.80499400  0.08172300  0.98234400  1
  H  948  1  0.87756415  0.01566935  0.88487535  1
  H  949  1  0.80911665  0.05449235  0.86289235  1
  H  950  1  0.64692450  0.12105950  0.95856350  1
  H  951  1  0.57486700  0.10242300  0.96926400  1
  H  953  1  0.77175850  0.23435700  0.77570200  1
  H  954  1  0.73487800  0.26474750  0.81419350  1
  H  956  1  0.55614015  0.06122535  0.89668935  1
  H  957  1  0.52066800  0.08971600  0.93696300  1
  H  959  1  0.92135665  0.00080535  0.92889535  1
  H  960  1  0.87282415  0.00582385  0.97386685  1
  H  980  1  0.52984100  0.77430000  0.71467800  1
  H  981  1  0.56594600  0.73439900  0.66168700  1
  H  982  1  0.53301850  0.64696510  0.73266490  1
  H  983  1  0.49611700  0.68698560  0.78599740  1
  H  984  1  0.50466700  0.71365150  0.63128350  1
  H  985  1  0.44316550  0.70315300  0.61246700  1
  H  986  1  0.64413800  0.60097260  0.66749240  1
  H  987  1  0.73396250  0.57808460  0.62803840  1
  H  988  1  0.70907650  0.67555150  0.56198150  1
  H  989  1  0.61864400  0.69754000  0.60080000  1
  H  990  1  0.55212850  0.60186560  0.66736440  1
  H  991  1  0.49077500  0.59115860  0.64872640  1
  H  993  1  0.49408000  0.78473350  0.78066150  1
  H  994  1  0.49569700  0.74624160  0.81105140  1
  H  996  1  0.39946550  0.66372700  0.60753300  1
  H  997  1  0.40427250  0.62345359  0.63602341  1
  H  999  1  0.79688550  0.63152800  0.54712400  1
  H  1000  1  0.79331900  0.58656000  0.55214000  1
  H  1020  1  0.45840350  0.23981510  0.39203890  1
  H  1021  1  0.40161750  0.27971610  0.44502990  1
  H  1022  1  0.35223300  0.36715109  0.37405491  1
  H  1023  1  0.40868050  0.32713500  0.32072100  1
  H  1024  1  0.28920050  0.30045660  0.47543540  1
  H  1025  1  0.19838465  0.31094895  0.49425475  1
  H  1026  1  0.35219065  0.41313795  0.43923175  1
  H  1027  1  0.37967865  0.43601895  0.47868875  1
  H  1028  1  0.38619315  0.33854985  0.54474385  1
  H  1029  1  0.35656465  0.31657095  0.50592075  1
  H  1030  1  0.26093265  0.41224495  0.43935875  1
  H  1031  1  0.17023715  0.42294445  0.45799625  1
  H  1033  1  0.49906000  0.22938460  0.32605440  1
  H  1034  1  0.49256900  0.26787710  0.29566490  1
  H  1036  1  0.11032015  0.35036795  0.49918975  1
  H  1037  1  0.10333365  0.39064345  0.47070225  1
  H  1039  1  0.41512565  0.38256845  0.55960425  1
  H  1040  1  0.37161015  0.42753994  0.55458775  1
  H  1060  1  0.71508365  0.23981185  0.71469185  1
  H  1061  1  0.73197015  0.27971435  0.66170035  1
  H  1062  1  0.69390400  0.36714850  0.73268050  1
  H  1063  1  0.67747200  0.32713100  0.78601300  1
  H  1064  1  0.82363965  0.30045635  0.63129635  1
  H  1065  1  0.90396215  0.31094885  0.61247685  1
  H  1066  1  0.64796900  0.41314050  0.66749650  1
  H  1067  1  0.59760100  0.43602060  0.62803940  1
  H  1068  1  0.68855115  0.33854735  0.56199335  1
  H  1069  1  0.74016115  0.31656585  0.60081585  1
  H  1070  1  0.74011500  0.41224300  0.66738100  1
  H  1071  1  0.82011050  0.42294200  0.64874200  1
  H  1073  1  0.68484950  0.22938100  0.78067600  1
  H  1074  1  0.65284450  0.26787200  0.81106700  1
  H  1076  1  0.95260775  0.35036585  0.60754185  1
  H  1077  1  0.91931860  0.39064100  0.63603300  1
  H  1079  1  0.61560115  0.38256745  0.54712825  1
  H  1080  1  0.61414765  0.42753745  0.55214125  1
  H  1100  1  0.10915350  0.77429000  0.39204400  1
  H  1101  1  0.11294800  0.73438950  0.44503650  1
  H  1102  1  0.23329900  0.64695200  0.37406000  1
  H  1103  1  0.23018350  0.68696950  0.32072450  1
  H  1104  1  0.19496650  0.71364300  0.47543900  1
  H  1105  1  0.26697000  0.70314750  0.49425250  1
  H  1106  1  0.16817650  0.60096250  0.43924150  1
  H  1107  1  0.10123900  0.57807800  0.47870000  1
  H  1108  1  0.02866450  0.67555100  0.54474700  1
  H  1109  1  0.09710950  0.69753500  0.50592300  1
  H  1110  1  0.25930200  0.60185700  0.43935900  1
  H  1111  1  0.33136450  0.59115300  0.45799300  1
  H  1113  1  0.13447850  0.78472300  0.32605900  1
  H  1114  1  0.17135600  0.74623050  0.29566950  1
  H  1116  1  0.35009960  0.66372500  0.49918500  1
  H  1117  1  0.38556960  0.62345000  0.47069600  1
  H  1119  1  0.98487600  0.63152800  0.55961200  1
  H  1120  1  0.03340900  0.58656000  0.55459800  1
  H  1140  1  0.37639150  0.84574050  0.78611850  1
  H  1141  1  0.34028400  0.89873200  0.82602200  1
  H  1142  1  0.37321800  0.82775210  0.91345190  1
  H  1143  1  0.41011850  0.77441810  0.87343290  1
  H  1144  1  0.40156500  0.92913400  0.84676800  1
  H  1145  1  0.46306865  0.94794835  0.85726435  1
  H  1146  1  0.26210315  0.89293145  0.95944925  1
  H  1147  1  0.17227815  0.93238595  0.98233875  1
  H  1148  1  0.19715565  0.99843735  0.88486635  1
  H  1149  1  0.28758765  0.95961585  0.86287785  1
  H  1150  1  0.35411415  0.89304995  0.95855175  1
  H  1151  1  0.41546965  0.91168545  0.96925725  1
  H  1153  1  0.41214850  0.77975900  0.77568500  1
  H  1154  1  0.41053700  0.74936610  0.81417590  1
  H  1156  1  0.50677575  0.95287935  0.89668735  1
  H  1157  1  0.50197075  0.92438994  0.93696176  1
  H  1159  1  0.10934765  0.01329735  0.92889335  1
  H  1160  1  0.11291716  0.00828334  0.97386134  1
  H  1180  1  0.44783200  0.16837760  0.32060340  1
  H  1181  1  0.50461950  0.11538510  0.28070490  1
  H  1182  1  0.55399850  0.18636059  0.19326841  1
  H  1183  1  0.49754700  0.23969650  0.23328450  1
  H  1184  1  0.61704150  0.08498560  0.25996340  1
  H  1185  1  0.70785600  0.06617060  0.24947040  1
  H  1186  1  0.55404550  0.12118410  0.14728190  1
  H  1187  1  0.52656250  0.08172560  0.12439940  1
  H  1188  1  0.52004900  0.01567200  0.22186700  1
  H  1189  1  0.54967400  0.05449460  0.24385040  1
  H  1190  1  0.64529850  0.12105810  0.14817590  1
  H  1191  1  0.73599200  0.10242660  0.13747440  1
  H  1193  1  0.40717150  0.23436360  0.33103340  1
  H  1194  1  0.41365900  0.26475310  0.29254090  1
  H  1196  1  0.79591860  0.06123760  0.21005140  1
  H  1197  1  0.80289910  0.08972660  0.16977440  1
  H  1199  1  0.49112100  0.00080910  0.17784690  1
  H  1200  1  0.53463600  0.00582460  0.13287840  1
  H  1529  1  0.88542110  0.00706160  0.18876940  1
  H  1537  1  0.01285475  0.00704985  0.93389485  1
  H  1539  1  0.84533350  0.05388600  0.02863300  1
  H  1540  1  0.81212450  0.05151360  0.09423740  1
  H  1541  1  0.08564165  0.96022244  0.02863524  1
  H  1542  1  0.05324550  0.96260160  0.09424140  1
  H  1544  1  0.98212250  0.00151660  0.17629440  1
  H  1546  1  0.09152215  0.95539435  0.93921835  1
  H  1548  1  0.92887026  0.05870635  0.93921234  1
  H  1550  1  0.80119700  0.01260260  0.17629440  1
  H  1559  1  0.52081675  0.00705235  0.91797035  1
  H  1567  1  0.39338710  0.00704510  0.17284490  1
  H  1569  1  0.36743650  0.96021460  0.07810440  1
  H  1570  1  0.39745465  0.96259145  0.01249925  1
  H  1571  1  0.51407100  0.05388010  0.07810890  1
  H  1572  1  0.54965400  0.05150650  0.01250250  1
  H  1574  1  0.59949965  0.01259385  0.93044985  1
  H  1576  1  0.42570400  0.05870810  0.16752690  1
  H  1578  1  0.36638410  0.95538450  0.16752250  1
  H  1580  1  0.42965815  0.00151135  0.93044335  1
  H  1589  1  0.38542460  0.64244500  0.55335900  1
  H  1597  1  0.51286475  0.38756845  0.55336625  1
  H  1599  1  0.39217665  0.48230795  0.50652774  1
  H  1600  1  0.35659000  0.54791400  0.50890200  1
  H  1601  1  0.53881100  0.48231060  0.60019840  1
  H  1602  1  0.50879200  0.54791360  0.59782140  1
  H  1604  1  0.47658300  0.62996950  0.55890150  1
  H  1606  1  0.53987016  0.39288884  0.60502585  1
  H  1608  1  0.48053975  0.39288595  0.50170575  1
  H  1610  1  0.30674150  0.62996600  0.54781800  1
  H  1619  1  0.02082075  0.37164945  0.55336525  1
  H  1627  1  0.89337860  0.62652700  0.55337500  1
  H  1629  1  0.82059700  0.53178810  0.60020390  1
  H  1630  1  0.85299500  0.46618060  0.59782540  1
  H  1631  1  0.06090100  0.53178800  0.50654200  1
  H  1632  1  0.09411315  0.46618095  0.50891275  1
  H  1634  1  0.10504515  0.38412495  0.54782275  1
  H  1636  1  0.97736100  0.62120750  0.50171450  1
  H  1638  1  0.81471310  0.62120800  0.60502600  1
  H  1640  1  0.92411815  0.38412595  0.55891175  1
  N  1  1  0.24881550  0.35332150  0.15122350  1
  N  41  1  0.79791650  0.56933600  0.83699300  1
  N  81  1  0.64079650  0.11846900  0.60210100  1
  N  121  1  0.40592450  0.80421250  0.38610450  1
  N  161  1  0.79735800  0.80421100  0.60211900  1
  N  201  1  0.24822600  0.11845650  0.38610950  1
  N  241  1  0.40535800  0.35334150  0.83697750  1
  N  281  1  0.64022950  0.56933550  0.15123750  1
  N  663  1  0.05789150  0.43403550  0.10162550  1
  N  665  1  0.15637200  0.42421550  0.90212550  1
  N  667  1  0.98177350  0.49845450  0.90212250  1
  N  669  1  0.88075700  0.48864850  0.10162250  1
  N  693  1  0.63809350  0.48864000  0.88660600  1
  N  695  1  0.52725500  0.49845550  0.08610350  1
  N  697  1  0.42691650  0.42420300  0.08610100  1
  N  699  1  0.51556700  0.43403150  0.88660350  1
  N  723  1  0.53059200  0.06883650  0.52140850  1
  N  725  1  0.61925300  0.86933650  0.53123450  1
  N  727  1  0.51890900  0.86933400  0.45698400  1
  N  729  1  0.40806450  0.06883500  0.46679900  1
  N  753  1  0.16540100  0.85382150  0.46680450  1
  N  755  1  0.06437700  0.05332400  0.45699400  1
  N  757  1  0.88978350  0.05332300  0.53123500  1
  N  759  1  0.98826800  0.85382250  0.52141750  1
  N  881  1  0.17885650  0.89903950  0.21047950  1
  N  921  1  0.72795750  0.11505400  0.89624900  1
  N  961  1  0.57083750  0.66418700  0.66135700  1
  N  1001  1  0.33596550  0.34993060  0.44536040  1
  N  1041  1  0.72739900  0.34992900  0.66137500  1
  N  1081  1  0.17826700  0.66417450  0.44536550  1
  N  1121  1  0.33539900  0.89905950  0.89623350  1
  N  1161  1  0.57027050  0.11505360  0.21049340  1
  N  1543  1  0.98793250  0.97975360  0.16088140  1
  N  1545  1  0.08641315  0.96993335  0.96138135  1
  N  1547  1  0.91181460  0.04417250  0.96137850  1
  N  1549  1  0.81079810  0.03436660  0.16087840  1
  N  1573  1  0.56813465  0.03435785  0.94586184  1
  N  1575  1  0.45729600  0.04417360  0.14535940  1
  N  1577  1  0.35695760  0.96992110  0.14535690  1
  N  1579  1  0.44560825  0.97974935  0.94585935  1
  N  1603  1  0.46063300  0.61455450  0.58066450  1
  N  1605  1  0.54929400  0.41505460  0.59049040  1
  N  1607  1  0.44895025  0.41505195  0.51623975  1
  N  1609  1  0.33810560  0.61455300  0.52605500  1
  N  1633  1  0.09544215  0.39953945  0.52606025  1
  N  1635  1  0.99441800  0.59904200  0.51625000  1
  N  1637  1  0.81982460  0.59904100  0.59049100  1
  N  1639  1  0.91830926  0.39954045  0.58067324  1
