# generated using pymatgen
data_H20C41(NO)8
_symmetry_space_group_name_H-M   'P 1'
_cell_length_a   33.02250000
_cell_length_b   39.55750000
_cell_length_c   55.19860000
_cell_angle_alpha   90.00000000
_cell_angle_beta   90.00000000
_cell_angle_gamma   89.99850000
_symmetry_Int_Tables_number   1
_chemical_formula_structural   H20C41(NO)8
_chemical_formula_sum   'H320 C656 N128 O128'
_cell_volume   72105.24358773
_cell_formula_units_Z   16
loop_
 _symmetry_equiv_pos_site_id
 _symmetry_equiv_pos_as_xyz
  1  'x, y, z'
loop_
 _atom_site_type_symbol
 _atom_site_label
 _atom_site_symmetry_multiplicity
 _atom_site_fract_x
 _atom_site_fract_y
 _atom_site_fract_z
 _atom_site_occupancy
  H  18  1  0.98470300  0.69923100  0.65225900  1
  H  19  1  0.98362500  0.67158700  0.61394100  1
  H  20  1  0.98231400  0.63624100  0.57875800  1
  H  21  1  0.98216500  0.59382200  0.54801200  1
  H  22  1  0.90387900  0.56259800  0.63379500  1
  H  23  1  0.95663100  0.47591600  0.68782000  1
  H  24  1  0.88663600  0.47641500  0.67793000  1
  H  44  1  0.98554200  0.27733600  0.33333333  1
  H  45  1  0.98528000  0.30553300  0.37147300  1
  H  46  1  0.98981800  0.34139500  0.40648500  1
  H  47  1  0.90460000  0.41569300  0.35178600  1
  H  48  1  0.95640900  0.49736600  0.29358900  1
  H  49  1  0.88636100  0.49771600  0.30394300  1
  H  69  1  0.98860500  0.19904500  0.15300200  1
  H  70  1  0.98753600  0.17180100  0.11442500  1
  H  71  1  0.98441300  0.13660400  0.07900600  1
  H  72  1  0.98349700  0.09437700  0.04811000  1
  H  73  1  0.90398800  0.06259200  0.13370300  1
  H  74  1  0.95644100  0.97516500  0.18719500  1
  H  75  1  0.88644500  0.97594100  0.17730500  1
  H  94  1  0.98897900  0.77751300  0.83274100  1
  H  95  1  0.98861500  0.80539200  0.87112000  1
  H  96  1  0.99135300  0.84128900  0.90635700  1
  H  97  1  0.90464400  0.91583700  0.85191200  1
  H  98  1  0.95627400  0.99791800  0.79398600  1
  H  99  1  0.88625300  0.99812200  0.80433000  1
  H  106  1  0.93754800  0.51222800  0.51493500  1
  H  107  1  0.92506500  0.48048500  0.47917500  1
  H  109  1  0.95638900  0.43240500  0.45427300  1
  H  113  1  0.93755600  0.01222700  0.01494100  1
  H  114  1  0.92508900  0.98024000  0.97928900  1
  H  116  1  0.95675100  0.93196400  0.95451300  1
  H  119  1  0.94888600  0.74671400  0.77550500  1
  H  120  1  0.94992800  0.69500500  0.75365500  1
  H  121  1  0.99457200  0.65617800  0.72623600  1
  H  124  1  0.94837200  0.22895200  0.21008900  1
  H  125  1  0.94909500  0.28072900  0.23187700  1
  H  126  1  0.99385400  0.31998900  0.25907600  1
  H  132  1  0.82253800  0.46189600  0.30431600  1
  H  138  1  0.82405700  0.50821400  0.68013300  1
  H  144  1  0.82243000  0.96169900  0.80454400  1
  H  150  1  0.82402600  0.00837200  0.17989400  1
  H  158  1  0.99261800  0.51750700  0.60137900  1
  H  159  1  0.99404800  0.60466300  0.68772900  1
  H  160  1  0.07902300  0.56299800  0.63297800  1
  H  161  1  0.09785000  0.47698100  0.67705300  1
  H  162  1  0.02811500  0.47610100  0.68744900  1
  H  173  1  0.99318500  0.38428300  0.43683700  1
  H  174  1  0.99435000  0.45991200  0.38261900  1
  H  175  1  0.99333300  0.37143300  0.29711500  1
  H  176  1  0.07881700  0.41501400  0.35220700  1
  H  177  1  0.09847900  0.49700300  0.30453900  1
  H  178  1  0.02862100  0.49714600  0.29386100  1
  H  206  1  0.49814000  0.69649800  0.33326000  1
  H  207  1  0.49924800  0.66798300  0.37130100  1
  H  208  1  0.50089200  0.63159300  0.40608300  1
  H  209  1  0.50117400  0.58834700  0.43623800  1
  H  210  1  0.49123800  0.51343300  0.38181800  1
  H  211  1  0.48990600  0.60268300  0.29672300  1
  H  212  1  0.40472200  0.55897700  0.35119200  1
  H  213  1  0.38436000  0.48055000  0.30045200  1
  H  214  1  0.45482100  0.47968600  0.29065200  1
  H  215  1  0.57981100  0.55847700  0.35031200  1
  H  216  1  0.52750800  0.47936300  0.29033500  1
  H  217  1  0.59824700  0.47981400  0.29953000  1
  H  247  1  0.49902700  0.27346100  0.65175000  1
  H  248  1  0.49933300  0.30078800  0.61328700  1
  H  249  1  0.49466900  0.33580300  0.57780800  1
  H  250  1  0.49120200  0.37803100  0.54696300  1
  H  251  1  0.48915200  0.45477200  0.60033800  1
  H  252  1  0.49011200  0.36831800  0.68686700  1
  H  253  1  0.40386800  0.40635300  0.63419700  1
  H  254  1  0.38373600  0.49341700  0.67711000  1
  H  255  1  0.45469400  0.49764500  0.68513000  1
  H  256  1  0.58008100  0.40716100  0.63472300  1
  H  257  1  0.52734100  0.49804200  0.68532700  1
  H  258  1  0.59850500  0.49442600  0.67766400  1
  H  271  1  0.99198200  0.01758700  0.10124600  1
  H  272  1  0.99286400  0.10380800  0.18789400  1
  H  273  1  0.07911100  0.06272400  0.13306200  1
  H  274  1  0.09766500  0.97634000  0.17683100  1
  H  275  1  0.02785500  0.97544000  0.18711500  1
  H  287  1  0.99394500  0.88412400  0.93680300  1
  H  288  1  0.99369900  0.95994200  0.88272700  1
  H  289  1  0.99235800  0.87217000  0.79705100  1
  H  290  1  0.07885300  0.91528900  0.85220400  1
  H  291  1  0.09837000  0.99731800  0.80452400  1
  H  292  1  0.02846400  0.99748300  0.79393300  1
  H  319  1  0.49502700  0.19625200  0.83262800  1
  H  320  1  0.49610800  0.16812300  0.87091600  1
  H  321  1  0.49927800  0.13188500  0.90593200  1
  H  322  1  0.50020800  0.08882100  0.93624000  1
  H  323  1  0.49172600  0.01346500  0.88205000  1
  H  324  1  0.49087800  0.10182300  0.79665600  1
  H  325  1  0.40454600  0.05886400  0.85106200  1
  H  326  1  0.38443900  0.98011800  0.80053800  1
  H  327  1  0.45499000  0.97905300  0.79096800  1
  H  328  1  0.57975100  0.05854700  0.85040100  1
  H  329  1  0.52772600  0.97871000  0.79082800  1
  H  330  1  0.59846800  0.97948300  0.79996200  1
  H  360  1  0.49507800  0.77364400  0.15254800  1
  H  361  1  0.49552000  0.80051700  0.11380700  1
  H  362  1  0.49282800  0.83545800  0.07804400  1
  H  363  1  0.49009400  0.87753500  0.04703400  1
  H  364  1  0.48973900  0.95465000  0.10014000  1
  H  365  1  0.49122300  0.86921800  0.18698700  1
  H  366  1  0.40379800  0.90650600  0.13433900  1
  H  367  1  0.38387800  0.99370900  0.17714100  1
  H  368  1  0.45489000  0.99802500  0.18498000  1
  H  369  1  0.58006900  0.90713600  0.13467900  1
  H  370  1  0.52755000  0.99835700  0.18507600  1
  H  371  1  0.59871700  0.99451300  0.17748800  1
  H  387  1  0.02548100  0.55015700  0.53023600  1
  H  393  1  0.54590700  0.50661900  0.46844300  1
  H  394  1  0.55846800  0.47466100  0.50409600  1
  H  403  1  0.52721700  0.42605900  0.52883200  1
  H  405  1  0.45766700  0.54406300  0.45322500  1
  H  416  1  0.02569300  0.05027500  0.03015500  1
  H  422  1  0.54592200  0.00625400  0.96843200  1
  H  423  1  0.55836800  0.97385100  0.00390800  1
  H  432  1  0.52653900  0.92516200  0.02854100  1
  H  434  1  0.45761600  0.04423400  0.95340700  1
  H  440  1  0.28960600  0.47404200  0.68153500  1
  H  441  1  0.22334000  0.49171400  0.69017700  1
  H  450  1  0.16008600  0.51015900  0.67913900  1
  H  452  1  0.34226700  0.49411800  0.63360300  1
  H  458  1  0.28612700  0.50880700  0.30313800  1
  H  459  1  0.22386900  0.48322500  0.29428100  1
  H  468  1  0.16201800  0.46065200  0.30516700  1
  H  470  1  0.32402200  0.53711900  0.35962000  1
  H  475  1  0.69783800  0.50896500  0.30201900  1
  H  476  1  0.76047800  0.48394600  0.29328500  1
  H  482  1  0.65919900  0.53677600  0.35837300  1
  H  487  1  0.69343100  0.47493100  0.68255700  1
  H  488  1  0.76004200  0.49169200  0.69123900  1
  H  494  1  0.64116300  0.49517300  0.63447300  1
  H  500  1  0.28964900  0.97421200  0.18164800  1
  H  501  1  0.22330300  0.99168700  0.19026200  1
  H  510  1  0.15983400  0.00956400  0.17916400  1
  H  512  1  0.34228300  0.99413500  0.13356900  1
  H  518  1  0.28577000  0.00940700  0.80302600  1
  H  519  1  0.22345500  0.98387800  0.79418000  1
  H  528  1  0.16191800  0.96061300  0.80512200  1
  H  530  1  0.32408900  0.03709300  0.85950400  1
  H  535  1  0.69811400  0.00958500  0.80223200  1
  H  536  1  0.76072500  0.98449300  0.79348900  1
  H  542  1  0.65928100  0.03703700  0.85855100  1
  H  547  1  0.69349700  0.97489500  0.18235800  1
  H  548  1  0.76008100  0.99173800  0.19102000  1
  H  554  1  0.64114800  0.99500500  0.13418800  1
  H  567  1  0.99475300  0.82439100  0.75973700  1
  H  580  1  0.99513800  0.15170800  0.22577400  1
  H  586  1  0.53543200  0.74449900  0.20983200  1
  H  587  1  0.53453900  0.69286000  0.23177400  1
  H  596  1  0.48963600  0.65382700  0.25900700  1
  H  598  1  0.48851000  0.82185100  0.22505700  1
  H  604  1  0.53484200  0.22708000  0.77518500  1
  H  605  1  0.53390600  0.27865800  0.75316600  1
  H  614  1  0.48916700  0.31734900  0.72552900  1
  H  616  1  0.48906100  0.14938900  0.75959500  1
  H  634  1  0.98470300  0.29475700  0.65225900  1
  H  635  1  0.98362500  0.26711300  0.61394100  1
  H  636  1  0.98231400  0.23176700  0.57875800  1
  H  637  1  0.98216500  0.18934800  0.54801200  1
  H  638  1  0.90387900  0.15812400  0.63379500  1
  H  639  1  0.95663100  0.07144200  0.68782000  1
  H  640  1  0.88663600  0.07194100  0.67793000  1
  H  660  1  0.98554200  0.87286200  0.33333333  1
  H  661  1  0.98528000  0.90105850  0.37147300  1
  H  662  1  0.98981800  0.93692050  0.40648500  1
  H  663  1  0.90460000  0.01121900  0.35178600  1
  H  664  1  0.95640900  0.09289200  0.29358900  1
  H  665  1  0.88636100  0.09324200  0.30394300  1
  H  685  1  0.98860500  0.79457100  0.15300200  1
  H  686  1  0.98753600  0.76732700  0.11442500  1
  H  687  1  0.98441300  0.73213000  0.07900600  1
  H  688  1  0.98349700  0.68990300  0.04811000  1
  H  689  1  0.90398800  0.65811800  0.13370300  1
  H  690  1  0.95644100  0.57069100  0.18719500  1
  H  691  1  0.88644500  0.57146700  0.17730500  1
  H  710  1  0.98897900  0.37303900  0.83274100  1
  H  711  1  0.98861500  0.40091800  0.87112000  1
  H  712  1  0.99135300  0.43681500  0.90635700  1
  H  713  1  0.90464400  0.51136300  0.85191200  1
  H  714  1  0.95627400  0.59344400  0.79398600  1
  H  715  1  0.88625300  0.59364800  0.80433000  1
  H  722  1  0.93754800  0.10775400  0.51493500  1
  H  723  1  0.92506500  0.07601100  0.47917500  1
  H  725  1  0.95638900  0.02793100  0.45427300  1
  H  729  1  0.93755600  0.60775300  0.01494100  1
  H  730  1  0.92508900  0.57576600  0.97928900  1
  H  732  1  0.95675100  0.52749000  0.95451300  1
  H  735  1  0.94888600  0.34224000  0.77550500  1
  H  736  1  0.94992800  0.29053100  0.75365500  1
  H  737  1  0.99457200  0.25170400  0.72623600  1
  H  740  1  0.94837200  0.82447800  0.21008900  1
  H  741  1  0.94909500  0.87625500  0.23187700  1
  H  742  1  0.99385400  0.91551450  0.25907600  1
  H  748  1  0.82253800  0.05742200  0.30431600  1
  H  754  1  0.82405700  0.10374000  0.68013300  1
  H  760  1  0.82243000  0.55722500  0.80454400  1
  H  766  1  0.82402600  0.60389800  0.17989400  1
  H  774  1  0.99261800  0.11303300  0.60137900  1
  H  775  1  0.99404800  0.20018900  0.68772900  1
  H  776  1  0.07902300  0.15852400  0.63297800  1
  H  777  1  0.09785000  0.07250700  0.67705300  1
  H  778  1  0.02811500  0.07162700  0.68744900  1
  H  789  1  0.99318500  0.97980850  0.43683700  1
  H  790  1  0.99435000  0.05543800  0.38261900  1
  H  791  1  0.99333300  0.96695850  0.29711500  1
  H  792  1  0.07881700  0.01054000  0.35220700  1
  H  793  1  0.09847900  0.09252900  0.30453900  1
  H  794  1  0.02862100  0.09267200  0.29386100  1
  H  822  1  0.49814000  0.29202400  0.33326000  1
  H  823  1  0.49924800  0.26350900  0.37130100  1
  H  824  1  0.50089200  0.22711900  0.40608300  1
  H  825  1  0.50117400  0.18387300  0.43623800  1
  H  826  1  0.49123800  0.10895900  0.38181800  1
  H  827  1  0.48990600  0.19820900  0.29672300  1
  H  828  1  0.40472200  0.15450300  0.35119200  1
  H  829  1  0.38436000  0.07607600  0.30045200  1
  H  830  1  0.45482100  0.07521200  0.29065200  1
  H  831  1  0.57981100  0.15400300  0.35031200  1
  H  832  1  0.52750800  0.07488900  0.29033500  1
  H  833  1  0.59824700  0.07534000  0.29953000  1
  H  863  1  0.49902700  0.86898700  0.65175000  1
  H  864  1  0.49933300  0.89631400  0.61328700  1
  H  865  1  0.49466900  0.93132850  0.57780800  1
  H  866  1  0.49120200  0.97355650  0.54696300  1
  H  867  1  0.48915200  0.05029800  0.60033800  1
  H  868  1  0.49011200  0.96384350  0.68686700  1
  H  869  1  0.40386800  0.00187900  0.63419700  1
  H  870  1  0.38373600  0.08894300  0.67711000  1
  H  871  1  0.45469400  0.09317100  0.68513000  1
  H  872  1  0.58008100  0.00268700  0.63472300  1
  H  873  1  0.52734100  0.09356800  0.68532700  1
  H  874  1  0.59850500  0.08995200  0.67766400  1
  H  887  1  0.99198200  0.61311300  0.10124600  1
  H  888  1  0.99286400  0.69933400  0.18789400  1
  H  889  1  0.07911100  0.65825000  0.13306200  1
  H  890  1  0.09766500  0.57186600  0.17683100  1
  H  891  1  0.02785500  0.57096600  0.18711500  1
  H  903  1  0.99394500  0.47965000  0.93680300  1
  H  904  1  0.99369900  0.55546800  0.88272700  1
  H  905  1  0.99235800  0.46769600  0.79705100  1
  H  906  1  0.07885300  0.51081500  0.85220400  1
  H  907  1  0.09837000  0.59284400  0.80452400  1
  H  908  1  0.02846400  0.59300900  0.79393300  1
  H  935  1  0.49502700  0.79177800  0.83262800  1
  H  936  1  0.49610800  0.76364900  0.87091600  1
  H  937  1  0.49927800  0.72741100  0.90593200  1
  H  938  1  0.50020800  0.68434700  0.93624000  1
  H  939  1  0.49172600  0.60899100  0.88205000  1
  H  940  1  0.49087800  0.69734900  0.79665600  1
  H  941  1  0.40454600  0.65439000  0.85106200  1
  H  942  1  0.38443900  0.57564400  0.80053800  1
  H  943  1  0.45499000  0.57457900  0.79096800  1
  H  944  1  0.57975100  0.65407300  0.85040100  1
  H  945  1  0.52772600  0.57423600  0.79082800  1
  H  946  1  0.59846800  0.57500900  0.79996200  1
  H  976  1  0.49507800  0.36917000  0.15254800  1
  H  977  1  0.49552000  0.39604300  0.11380700  1
  H  978  1  0.49282800  0.43098400  0.07804400  1
  H  979  1  0.49009400  0.47306100  0.04703400  1
  H  980  1  0.48973900  0.55017600  0.10014000  1
  H  981  1  0.49122300  0.46474400  0.18698700  1
  H  982  1  0.40379800  0.50203200  0.13433900  1
  H  983  1  0.38387800  0.58923500  0.17714100  1
  H  984  1  0.45489000  0.59355100  0.18498000  1
  H  985  1  0.58006900  0.50266200  0.13467900  1
  H  986  1  0.52755000  0.59388300  0.18507600  1
  H  987  1  0.59871700  0.59003900  0.17748800  1
  H  1003  1  0.02548100  0.14568300  0.53023600  1
  H  1009  1  0.54590700  0.10214500  0.46844300  1
  H  1010  1  0.55846800  0.07018700  0.50409600  1
  H  1019  1  0.52721700  0.02158500  0.52883200  1
  H  1021  1  0.45766700  0.13958900  0.45322500  1
  H  1032  1  0.02569300  0.64580100  0.03015500  1
  H  1038  1  0.54592200  0.60178000  0.96843200  1
  H  1039  1  0.55836800  0.56937700  0.00390800  1
  H  1048  1  0.52653900  0.52068800  0.02854100  1
  H  1050  1  0.45761600  0.63976000  0.95340700  1
  H  1056  1  0.28960600  0.06956800  0.68153500  1
  H  1057  1  0.22334000  0.08724000  0.69017700  1
  H  1066  1  0.16008600  0.10568500  0.67913900  1
  H  1068  1  0.34226700  0.08964400  0.63360300  1
  H  1074  1  0.28612700  0.10433300  0.30313800  1
  H  1075  1  0.22386900  0.07875100  0.29428100  1
  H  1084  1  0.16201800  0.05617800  0.30516700  1
  H  1086  1  0.32402200  0.13264500  0.35962000  1
  H  1091  1  0.69783800  0.10449100  0.30201900  1
  H  1092  1  0.76047800  0.07947200  0.29328500  1
  H  1098  1  0.65919900  0.13230200  0.35837300  1
  H  1103  1  0.69343100  0.07045700  0.68255700  1
  H  1104  1  0.76004200  0.08721800  0.69123900  1
  H  1110  1  0.64116300  0.09069900  0.63447300  1
  H  1116  1  0.28964900  0.56973800  0.18164800  1
  H  1117  1  0.22330300  0.58721300  0.19026200  1
  H  1126  1  0.15983400  0.60509000  0.17916400  1
  H  1128  1  0.34228300  0.58966100  0.13356900  1
  H  1134  1  0.28577000  0.60493300  0.80302600  1
  H  1135  1  0.22345500  0.57940400  0.79418000  1
  H  1144  1  0.16191800  0.55613900  0.80512200  1
  H  1146  1  0.32408900  0.63261900  0.85950400  1
  H  1151  1  0.69811400  0.60511100  0.80223200  1
  H  1152  1  0.76072500  0.58001900  0.79348900  1
  H  1158  1  0.65928100  0.63256300  0.85855100  1
  H  1163  1  0.69349700  0.57042100  0.18235800  1
  H  1164  1  0.76008100  0.58726400  0.19102000  1
  H  1170  1  0.64114800  0.59053100  0.13418800  1
  H  1183  1  0.99475300  0.41991700  0.75973700  1
  H  1196  1  0.99513800  0.74723400  0.22577400  1
  H  1202  1  0.53543200  0.34002500  0.20983200  1
  H  1203  1  0.53453900  0.28838600  0.23177400  1
  H  1212  1  0.48963600  0.24935300  0.25900700  1
  H  1214  1  0.48851000  0.41737700  0.22505700  1
  H  1220  1  0.53484200  0.82260600  0.77518500  1
  H  1221  1  0.53390600  0.87418400  0.75316600  1
  H  1230  1  0.48916700  0.91287450  0.72552900  1
  H  1232  1  0.48906100  0.74491500  0.75959500  1
  C  1  1  0.95657800  0.54506800  0.65185200  1
  C  2  1  0.97108100  0.51971500  0.66727100  1
  C  3  1  0.94548500  0.49525500  0.67753000  1
  C  4  1  0.90430800  0.49573400  0.67158600  1
  C  5  1  0.88789000  0.52075300  0.65600900  1
  C  6  1  0.91456400  0.54544100  0.64607400  1
  C  7  1  0.99066200  0.60194200  0.64928600  1
  C  8  1  0.98798700  0.62195800  0.62839300  1
  C  9  1  0.98794600  0.60162100  0.60798500  1
  C  10  1  0.99058900  0.56766000  0.61489400  1
  C  11  1  0.98503300  0.61141900  0.58359600  1
  C  12  1  0.98522400  0.58637000  0.56566700  1
  C  13  1  0.98932700  0.55166100  0.57165200  1
  C  14  1  0.99093200  0.54241800  0.59656200  1
  C  15  1  0.98977000  0.65473100  0.67368900  1
  C  16  1  0.98644300  0.67338500  0.65195300  1
  C  17  1  0.98571100  0.65737300  0.62934600  1
  C  25  1  0.99147400  0.56515500  0.64199600  1
  C  28  1  0.95683000  0.43131000  0.33238000  1
  C  29  1  0.97121000  0.45537800  0.31588500  1
  C  30  1  0.94539600  0.47899500  0.30480500  1
  C  31  1  0.90426000  0.47901600  0.31099500  1
  C  32  1  0.88822700  0.45558500  0.32790900  1
  C  33  1  0.91501800  0.43167200  0.33864100  1
  C  34  1  0.99083400  0.37465200  0.33556100  1
  C  35  1  0.98901000  0.35496000  0.35663400  1
  C  36  1  0.98966400  0.37566100  0.37686300  1
  C  37  1  0.99134800  0.40953300  0.36961800  1
  C  38  1  0.99000300  0.36621900  0.40138200  1
  C  39  1  0.99167400  0.39156500  0.41907400  1
  C  40  1  0.99141400  0.35764400  0.31271800  1
  C  41  1  0.98977300  0.32155500  0.31153900  1
  C  42  1  0.98707000  0.30319500  0.33343800  1
  C  43  1  0.98688100  0.31952300  0.35594600  1
  C  50  1  0.99170900  0.41154300  0.34250500  1
  C  52  1  0.95655900  0.04493100  0.15182100  1
  C  53  1  0.97095800  0.01936800  0.16711100  1
  C  54  1  0.94534000  0.99467000  0.17704800  1
  C  55  1  0.90415900  0.99535300  0.17115100  1
  C  56  1  0.88783200  0.02062100  0.15574900  1
  C  57  1  0.91459500  0.04532600  0.14592800  1
  C  58  1  0.99115900  0.10164500  0.14941500  1
  C  59  1  0.98954300  0.12192400  0.12861600  1
  C  60  1  0.98915300  0.10172800  0.10812400  1
  C  61  1  0.99086400  0.06767200  0.11491300  1
  C  62  1  0.98655800  0.11171100  0.08376100  1
  C  63  1  0.98628600  0.08677000  0.06574600  1
  C  64  1  0.98963900  0.05196300  0.07162000  1
  C  65  1  0.99083000  0.04254600  0.09650300  1
  C  66  1  0.99080500  0.15412300  0.17412800  1
  C  67  1  0.98925000  0.17314300  0.15249000  1
  C  68  1  0.98860700  0.15738700  0.12976800  1
  C  76  1  0.99155300  0.06492600  0.14199700  1
  C  79  1  0.95675900  0.93140500  0.83237800  1
  C  80  1  0.97108800  0.95558400  0.81593200  1
  C  81  1  0.94525000  0.97932000  0.80500100  1
  C  82  1  0.90413800  0.97930600  0.81123600  1
  C  83  1  0.88817100  0.95576500  0.82809000  1
  C  84  1  0.91500500  0.93184500  0.83876800  1
  C  85  1  0.99126000  0.87492600  0.83551500  1
  C  86  1  0.99029300  0.85503200  0.85651100  1
  C  87  1  0.99054300  0.87564800  0.87680300  1
  C  88  1  0.99143700  0.90958600  0.86964300  1
  C  89  1  0.99102100  0.86613400  0.90130900  1
  C  90  1  0.99223700  0.89144400  0.91905400  1
  C  91  1  0.99071200  0.82208000  0.81123100  1
  C  92  1  0.98954500  0.80341900  0.83304400  1
  C  93  1  0.98936400  0.81954900  0.85564700  1
  C  100  1  0.99171900  0.91177000  0.84254600  1
  C  103  1  0.98670000  0.47167100  0.47006500  1
  C  104  1  0.95452700  0.48442300  0.48427300  1
  C  105  1  0.96185900  0.50268400  0.50565200  1
  C  108  1  0.97706500  0.45013800  0.45088300  1
  C  110  1  0.98671900  0.97155300  0.97012100  1
  C  111  1  0.95455000  0.98429000  0.98434300  1
  C  112  1  0.96187400  0.00269600  0.00566000  1
  C  115  1  0.97713500  0.94988600  0.95100900  1
  C  117  1  0.96912800  0.71388600  0.74823500  1
  C  118  1  0.96856700  0.74454500  0.76125500  1
  C  122  1  0.96863800  0.26203700  0.23719600  1
  C  123  1  0.96826300  0.23134300  0.22421600  1
  C  127  1  0.78000900  0.47631400  0.32968200  1
  C  131  1  0.81823100  0.46427800  0.32212800  1
  C  133  1  0.77892600  0.50115400  0.65490100  1
  C  137  1  0.81835100  0.51004400  0.66243500  1
  C  139  1  0.78002300  0.97646900  0.82988900  1
  C  143  1  0.81817900  0.96429400  0.82234600  1
  C  145  1  0.77891700  0.00119100  0.15466900  1
  C  149  1  0.81832100  0.01013600  0.16218900  1
  C  151  1  0.01297400  0.52001900  0.66721400  1
  C  152  1  0.02688900  0.54539200  0.65157600  1
  C  153  1  0.06875700  0.54586900  0.64540200  1
  C  154  1  0.09586900  0.52137500  0.65520900  1
  C  155  1  0.07993400  0.49626700  0.67089400  1
  C  156  1  0.03892600  0.49559300  0.67717700  1
  C  157  1  0.99168600  0.61865700  0.67223800  1
  C  165  1  0.01318900  0.45497700  0.31581100  1
  C  166  1  0.02706100  0.43080700  0.33242000  1
  C  167  1  0.06879100  0.43092700  0.33891500  1
  C  168  1  0.09593900  0.45476000  0.32838000  1
  C  169  1  0.08037400  0.47828900  0.31138300  1
  C  170  1  0.03935000  0.47853500  0.30497200  1
  C  171  1  0.99202200  0.42630500  0.41269700  1
  C  172  1  0.99274300  0.43509800  0.38769300  1
  C  182  1  0.52704400  0.54278700  0.33136700  1
  C  183  1  0.51260000  0.51944700  0.31435100  1
  C  184  1  0.47064300  0.51968600  0.31452400  1
  C  185  1  0.45685600  0.54313800  0.33169300  1
  C  186  1  0.41501500  0.54319400  0.33790000  1
  C  187  1  0.38804800  0.51988700  0.32662600  1
  C  188  1  0.40306500  0.49778500  0.30864600  1
  C  189  1  0.44428000  0.49726800  0.30265300  1
  C  190  1  0.53848500  0.49684900  0.30226900  1
  C  191  1  0.57986900  0.49713600  0.30788800  1
  C  192  1  0.59552800  0.51921500  0.32568800  1
  C  193  1  0.56904000  0.54267500  0.33717000  1
  C  194  1  0.49298600  0.59917400  0.33513900  1
  C  195  1  0.49542000  0.61866800  0.35627700  1
  C  196  1  0.49552900  0.59774400  0.37638700  1
  C  197  1  0.49312800  0.56394700  0.36900600  1
  C  198  1  0.49833100  0.60689200  0.40090300  1
  C  199  1  0.49821500  0.58136000  0.41848000  1
  C  200  1  0.49426400  0.54680300  0.41201800  1
  C  201  1  0.49281000  0.53821300  0.38698100  1
  C  202  1  0.49203200  0.61634900  0.31237200  1
  C  203  1  0.49370900  0.65243100  0.31133800  1
  C  204  1  0.49666200  0.67063500  0.33333333  1
  C  205  1  0.49738900  0.65411700  0.35572700  1
  C  218  1  0.49223800  0.56222800  0.34188600  1
  C  223  1  0.52683200  0.42777500  0.65044000  1
  C  224  1  0.51236900  0.45430400  0.66484100  1
  C  225  1  0.47048300  0.45398100  0.66479000  1
  C  226  1  0.45658000  0.42721000  0.65038300  1
  C  227  1  0.41441200  0.42502500  0.64532400  1
  C  228  1  0.38735200  0.45001400  0.65443000  1
  C  229  1  0.40269300  0.47557900  0.66987800  1
  C  230  1  0.44413700  0.47801000  0.67489900  1
  C  231  1  0.53828200  0.47855200  0.67509900  1
  C  232  1  0.57984500  0.47648000  0.67030000  1
  C  233  1  0.59573100  0.45098000  0.65499300  1
  C  234  1  0.56910900  0.42582300  0.64571200  1
  C  235  1  0.49295500  0.37067400  0.64840400  1
  C  236  1  0.49506900  0.35051100  0.62755400  1
  C  237  1  0.49439400  0.37068900  0.60705400  1
  C  238  1  0.49243500  0.40469300  0.61390200  1
  C  239  1  0.49427600  0.36073200  0.58263300  1
  C  240  1  0.49254400  0.38569300  0.56464800  1
  C  241  1  0.49189600  0.42056400  0.57063600  1
  C  242  1  0.49096000  0.42985900  0.59554100  1
  C  243  1  0.49227400  0.35419200  0.67143200  1
  C  244  1  0.49418800  0.31814100  0.67300600  1
  C  245  1  0.49726200  0.29930500  0.65133700  1
  C  246  1  0.49748900  0.31511700  0.62864600  1
  C  259  1  0.49198300  0.40736000  0.64097600  1
  C  264  1  0.01284700  0.01941600  0.16690800  1
  C  265  1  0.02688900  0.04504200  0.15153100  1
  C  266  1  0.06875400  0.04546600  0.14536600  1
  C  267  1  0.09576300  0.02085300  0.15510400  1
  C  268  1  0.07978300  0.99566500  0.17070000  1
  C  269  1  0.03872000  0.99491200  0.17684700  1
  C  270  1  0.99174300  0.11804400  0.17247400  1
  C  278  1  0.01306500  0.95544100  0.81603500  1
  C  279  1  0.02701000  0.93117000  0.83253100  1
  C  280  1  0.06874200  0.93131700  0.83900400  1
  C  281  1  0.09586300  0.95510800  0.82840800  1
  C  282  1  0.08025200  0.97866800  0.81144600  1
  C  283  1  0.03919300  0.97894400  0.80510600  1
  C  284  1  0.99200400  0.92621200  0.91274500  1
  C  285  1  0.99249700  0.93509400  0.88775900  1
  C  286  1  0.99151800  0.85817200  0.81259100  1
  C  295  1  0.52704100  0.04252800  0.83155000  1
  C  296  1  0.51267200  0.01896300  0.81466200  1
  C  297  1  0.47072800  0.01904700  0.81486900  1
  C  298  1  0.45684100  0.04270900  0.83184900  1
  C  299  1  0.41494500  0.04289700  0.83791300  1
  C  300  1  0.38801200  0.01959500  0.82661200  1
  C  301  1  0.40312300  0.99735100  0.80874900  1
  C  302  1  0.44440400  0.99667600  0.80292600  1
  C  303  1  0.53864500  0.99636300  0.80265300  1
  C  304  1  0.58003800  0.99685700  0.80822700  1
  C  305  1  0.59560700  0.01911800  0.82593700  1
  C  306  1  0.56904600  0.04261900  0.83731600  1
  C  307  1  0.49255300  0.09884000  0.83510200  1
  C  308  1  0.49415200  0.11858000  0.85615000  1
  C  309  1  0.49455100  0.09779600  0.87634700  1
  C  310  1  0.49284900  0.06391300  0.86908800  1
  C  311  1  0.49713700  0.10712100  0.90083900  1
  C  312  1  0.49743100  0.08169200  0.91850000  1
  C  313  1  0.49409700  0.04704700  0.91214700  1
  C  314  1  0.49288300  0.03829000  0.88713800  1
  C  315  1  0.49198000  0.11572400  0.81223600  1
  C  316  1  0.49289200  0.15181300  0.81099500  1
  C  317  1  0.49440600  0.17034600  0.83285600  1
  C  318  1  0.49506000  0.15406800  0.85540200  1
  C  331  1  0.49214400  0.06195400  0.84198400  1
  C  336  1  0.52686600  0.92795900  0.15030800  1
  C  337  1  0.51247200  0.95462600  0.16461100  1
  C  338  1  0.47060100  0.95440800  0.16456100  1
  C  339  1  0.45663200  0.92758600  0.15023800  1
  C  340  1  0.41442400  0.92527800  0.14535200  1
  C  341  1  0.38740900  0.95025700  0.15450200  1
  C  342  1  0.40280800  0.97586900  0.16988900  1
  C  343  1  0.44428900  0.97835900  0.17479600  1
  C  344  1  0.53844300  0.97880000  0.17489600  1
  C  345  1  0.58000500  0.97659100  0.17013900  1
  C  346  1  0.59581200  0.95100100  0.15488300  1
  C  347  1  0.56914000  0.92587000  0.14562000  1
  C  348  1  0.49250700  0.87095800  0.14849900  1
  C  349  1  0.49362200  0.85051400  0.12776100  1
  C  350  1  0.49335200  0.87053700  0.10716100  1
  C  351  1  0.49223200  0.90463000  0.11386500  1
  C  352  1  0.49295500  0.86042500  0.08277000  1
  C  353  1  0.49166500  0.88528800  0.06469000  1
  C  354  1  0.49162000  0.92020400  0.07056000  1
  C  355  1  0.49106600  0.92968400  0.09542500  1
  C  356  1  0.49219500  0.85482100  0.17163700  1
  C  357  1  0.49310400  0.81877100  0.17345200  1
  C  358  1  0.49445100  0.79953800  0.15189900  1
  C  359  1  0.49467500  0.81507000  0.12909000  1
  C  372  1  0.49194400  0.90756600  0.14091500  1
  C  377  1  0.00171500  0.50841600  0.51395900  1
  C  378  1  0.03465300  0.49570200  0.49989300  1
  C  379  1  0.02709500  0.47689700  0.47826000  1
  C  386  1  0.00770500  0.53032800  0.53336000  1
  C  388  1  0.49687400  0.46526000  0.51298100  1
  C  389  1  0.52900700  0.47836000  0.49890400  1
  C  390  1  0.52163600  0.49674100  0.47758100  1
  C  391  1  0.48178100  0.50225300  0.46919100  1
  C  392  1  0.44888600  0.48910300  0.48308700  1
  C  395  1  0.45649500  0.47017600  0.50466000  1
  C  402  1  0.50656400  0.44381300  0.53219700  1
  C  404  1  0.47567000  0.52442800  0.44995000  1
  C  406  1  0.00173600  0.00858700  0.01390100  1
  C  407  1  0.03467700  0.99586300  0.99984100  1
  C  408  1  0.02711600  0.97692300  0.97826800  1
  C  415  1  0.00769300  0.03058500  0.03326000  1
  C  417  1  0.49673200  0.96479400  0.01285700  1
  C  418  1  0.52891900  0.97782200  0.99879600  1
  C  419  1  0.52160900  0.99648400  0.97759000  1
  C  420  1  0.48175400  0.00236500  0.96932300  1
  C  421  1  0.44880400  0.98929100  0.98321000  1
  C  424  1  0.45634700  0.97011500  0.00467600  1
  C  431  1  0.50625800  0.94317500  0.03200500  1
  C  433  1  0.47573100  0.02467000  0.95014400  1
  C  435  1  0.20473400  0.50158600  0.65384300  1
  C  436  1  0.23177300  0.49103600  0.67231400  1
  C  437  1  0.27109500  0.47986900  0.66722500  1
  C  438  1  0.28567000  0.47848600  0.64323700  1
  C  439  1  0.25941200  0.48892200  0.62418800  1
  C  442  1  0.21872500  0.49973000  0.62940000  1
  C  449  1  0.16551500  0.51116800  0.66137000  1
  C  451  1  0.32729600  0.47415000  0.64000000  1
  C  453  1  0.20411600  0.47557800  0.33063400  1
  C  454  1  0.23125800  0.48601100  0.31220200  1
  C  455  1  0.26844500  0.50143300  0.31744500  1
  C  456  1  0.28124800  0.50707800  0.34154300  1
  C  457  1  0.25460000  0.49657700  0.36053300  1
  C  460  1  0.21631100  0.48120500  0.35509400  1
  C  467  1  0.16606000  0.46324500  0.32298700  1
  C  469  1  0.31931600  0.52204000  0.34555600  1
  C  471  1  0.75291400  0.48660600  0.31119100  1
  C  472  1  0.71550400  0.50168900  0.31635800  1
  C  473  1  0.70244800  0.50709600  0.34043500  1
  C  474  1  0.72905600  0.49676400  0.35948600  1
  C  477  1  0.76756000  0.48172400  0.35412500  1
  C  481  1  0.66416000  0.52165800  0.34436000  1
  C  483  1  0.75162400  0.49110100  0.67337200  1
  C  484  1  0.71209200  0.48049900  0.66826700  1
  C  485  1  0.69761000  0.47927100  0.64425900  1
  C  486  1  0.72407000  0.48927400  0.62520100  1
  C  489  1  0.76494400  0.49952100  0.63044200  1
  C  493  1  0.65598300  0.47518400  0.64095800  1
  C  495  1  0.20465800  0.00136300  0.15390600  1
  C  496  1  0.23174300  0.99098500  0.17240000  1
  C  497  1  0.27111300  0.97993800  0.16732900  1
  C  498  1  0.28567600  0.97852200  0.14334100  1
  C  499  1  0.25938800  0.98881700  0.12426800  1
  C  502  1  0.21865200  0.99949400  0.12946400  1
  C  509  1  0.16537600  0.01074200  0.16141600  1
  C  511  1  0.32729000  0.97426900  0.14011400  1
  C  513  1  0.20401300  0.97578000  0.83054200  1
  C  514  1  0.23097700  0.98647200  0.81209700  1
  C  515  1  0.26818500  0.00186700  0.81733100  1
  C  516  1  0.28116100  0.00721300  0.84143000  1
  C  517  1  0.25467300  0.99648800  0.86043100  1
  C  520  1  0.21636600  0.98114700  0.85500500  1
  C  527  1  0.16598500  0.96340000  0.82292400  1
  C  529  1  0.31927700  0.02206700  0.84542400  1
  C  531  1  0.75308000  0.98701700  0.81139400  1
  C  532  1  0.71569900  0.00214500  0.81656400  1
  C  533  1  0.70254100  0.00734000  0.84064300  1
  C  534  1  0.72901300  0.99678100  0.85969600  1
  C  537  1  0.76748900  0.98170200  0.85433400  1
  C  541  1  0.66425100  0.02186900  0.84456500  1
  C  543  1  0.75165400  0.99112100  0.17315300  1
  C  544  1  0.71214300  0.98047000  0.16805900  1
  C  545  1  0.69765600  0.97921200  0.14405500  1
  C  546  1  0.72407500  0.98923300  0.12498300  1
  C  549  1  0.76493400  0.99952000  0.13021200  1
  C  553  1  0.65604400  0.97511900  0.14077600  1
  C  555  1  0.99495900  0.70891900  0.72809300  1
  C  556  1  0.99406600  0.77193800  0.75498700  1
  C  557  1  0.02064800  0.76738200  0.73493200  1
  C  558  1  0.02127500  0.73624300  0.72164700  1
  C  565  1  0.99432900  0.67720600  0.71641000  1
  C  566  1  0.99271500  0.80237600  0.76828900  1
  C  568  1  0.99469300  0.26725800  0.25720200  1
  C  569  1  0.99419300  0.20418600  0.23038600  1
  C  570  1  0.02107500  0.20904100  0.25025700  1
  C  571  1  0.02151100  0.24021100  0.26350100  1
  C  578  1  0.99381100  0.29895200  0.26889500  1
  C  579  1  0.99296700  0.17367600  0.21717100  1
  C  581  1  0.48884000  0.70654200  0.25697600  1
  C  582  1  0.51501000  0.71161000  0.23701000  1
  C  583  1  0.51549500  0.74222400  0.22394600  1
  C  584  1  0.48955500  0.76943000  0.22998800  1
  C  585  1  0.46259400  0.76474200  0.24984000  1
  C  588  1  0.46206700  0.73366000  0.26318400  1
  C  595  1  0.48961200  0.67492800  0.26875500  1
  C  597  1  0.49076900  0.79977900  0.21659800  1
  C  599  1  0.48880700  0.26463400  0.72767400  1
  C  600  1  0.51464400  0.25977700  0.74782300  1
  C  601  1  0.51514300  0.22920100  0.76093800  1
  C  602  1  0.48958800  0.20181100  0.75474600  1
  C  603  1  0.46297900  0.20627100  0.73469800  1
  C  606  1  0.46239100  0.23733200  0.72133000  1
  C  613  1  0.48957300  0.29620800  0.71583200  1
  C  615  1  0.49092000  0.17144800  0.76810800  1
  C  617  1  0.95657800  0.14059400  0.65185200  1
  C  618  1  0.97108100  0.11524100  0.66727100  1
  C  619  1  0.94548500  0.09078100  0.67753000  1
  C  620  1  0.90430800  0.09126000  0.67158600  1
  C  621  1  0.88789000  0.11627900  0.65600900  1
  C  622  1  0.91456400  0.14096700  0.64607400  1
  C  623  1  0.99066200  0.19746800  0.64928600  1
  C  624  1  0.98798700  0.21748400  0.62839300  1
  C  625  1  0.98794600  0.19714700  0.60798500  1
  C  626  1  0.99058900  0.16318600  0.61489400  1
  C  627  1  0.98503300  0.20694500  0.58359600  1
  C  628  1  0.98522400  0.18189600  0.56566700  1
  C  629  1  0.98932700  0.14718700  0.57165200  1
  C  630  1  0.99093200  0.13794400  0.59656200  1
  C  631  1  0.98977000  0.25025700  0.67368900  1
  C  632  1  0.98644300  0.26891100  0.65195300  1
  C  633  1  0.98571100  0.25289900  0.62934600  1
  C  641  1  0.99147400  0.16068100  0.64199600  1
  C  644  1  0.95683000  0.02683600  0.33238000  1
  C  645  1  0.97121000  0.05090400  0.31588500  1
  C  646  1  0.94539600  0.07452100  0.30480500  1
  C  647  1  0.90426000  0.07454200  0.31099500  1
  C  648  1  0.88822700  0.05111100  0.32790900  1
  C  649  1  0.91501800  0.02719800  0.33864100  1
  C  650  1  0.99083400  0.97017750  0.33556100  1
  C  651  1  0.98901000  0.95048550  0.35663400  1
  C  652  1  0.98966400  0.97118650  0.37686300  1
  C  653  1  0.99134800  0.00505900  0.36961800  1
  C  654  1  0.99000300  0.96174450  0.40138200  1
  C  655  1  0.99167400  0.98709050  0.41907400  1
  C  656  1  0.99141400  0.95316950  0.31271800  1
  C  657  1  0.98977300  0.91708050  0.31153900  1
  C  658  1  0.98707000  0.89872100  0.33343800  1
  C  659  1  0.98688100  0.91504850  0.35594600  1
  C  666  1  0.99170900  0.00706900  0.34250500  1
  C  668  1  0.95655900  0.64045700  0.15182100  1
  C  669  1  0.97095800  0.61489400  0.16711100  1
  C  670  1  0.94534000  0.59019600  0.17704800  1
  C  671  1  0.90415900  0.59087900  0.17115100  1
  C  672  1  0.88783200  0.61614700  0.15574900  1
  C  673  1  0.91459500  0.64085200  0.14592800  1
  C  674  1  0.99115900  0.69717100  0.14941500  1
  C  675  1  0.98954300  0.71745000  0.12861600  1
  C  676  1  0.98915300  0.69725400  0.10812400  1
  C  677  1  0.99086400  0.66319800  0.11491300  1
  C  678  1  0.98655800  0.70723700  0.08376100  1
  C  679  1  0.98628600  0.68229600  0.06574600  1
  C  680  1  0.98963900  0.64748900  0.07162000  1
  C  681  1  0.99083000  0.63807200  0.09650300  1
  C  682  1  0.99080500  0.74964900  0.17412800  1
  C  683  1  0.98925000  0.76866900  0.15249000  1
  C  684  1  0.98860700  0.75291300  0.12976800  1
  C  692  1  0.99155300  0.66045200  0.14199700  1
  C  695  1  0.95675900  0.52693100  0.83237800  1
  C  696  1  0.97108800  0.55111000  0.81593200  1
  C  697  1  0.94525000  0.57484600  0.80500100  1
  C  698  1  0.90413800  0.57483200  0.81123600  1
  C  699  1  0.88817100  0.55129100  0.82809000  1
  C  700  1  0.91500500  0.52737100  0.83876800  1
  C  701  1  0.99126000  0.47045200  0.83551500  1
  C  702  1  0.99029300  0.45055800  0.85651100  1
  C  703  1  0.99054300  0.47117400  0.87680300  1
  C  704  1  0.99143700  0.50511200  0.86964300  1
  C  705  1  0.99102100  0.46166000  0.90130900  1
  C  706  1  0.99223700  0.48697000  0.91905400  1
  C  707  1  0.99071200  0.41760600  0.81123100  1
  C  708  1  0.98954500  0.39894500  0.83304400  1
  C  709  1  0.98936400  0.41507500  0.85564700  1
  C  716  1  0.99171900  0.50729600  0.84254600  1
  C  719  1  0.98670000  0.06719700  0.47006500  1
  C  720  1  0.95452700  0.07994900  0.48427300  1
  C  721  1  0.96185900  0.09821000  0.50565200  1
  C  724  1  0.97706500  0.04566400  0.45088300  1
  C  726  1  0.98671900  0.56707900  0.97012100  1
  C  727  1  0.95455000  0.57981600  0.98434300  1
  C  728  1  0.96187400  0.59822200  0.00566000  1
  C  731  1  0.97713500  0.54541200  0.95100900  1
  C  733  1  0.96912800  0.30941200  0.74823500  1
  C  734  1  0.96856700  0.34007100  0.76125500  1
  C  738  1  0.96863800  0.85756300  0.23719600  1
  C  739  1  0.96826300  0.82686900  0.22421600  1
  C  743  1  0.78000900  0.07184000  0.32968200  1
  C  747  1  0.81823100  0.05980400  0.32212800  1
  C  749  1  0.77892600  0.09668000  0.65490100  1
  C  753  1  0.81835100  0.10557000  0.66243500  1
  C  755  1  0.78002300  0.57199500  0.82988900  1
  C  759  1  0.81817900  0.55982000  0.82234600  1
  C  761  1  0.77891700  0.59671700  0.15466900  1
  C  765  1  0.81832100  0.60566200  0.16218900  1
  C  767  1  0.01297400  0.11554500  0.66721400  1
  C  768  1  0.02688900  0.14091800  0.65157600  1
  C  769  1  0.06875700  0.14139500  0.64540200  1
  C  770  1  0.09586900  0.11690100  0.65520900  1
  C  771  1  0.07993400  0.09179300  0.67089400  1
  C  772  1  0.03892600  0.09111900  0.67717700  1
  C  773  1  0.99168600  0.21418300  0.67223800  1
  C  781  1  0.01318900  0.05050300  0.31581100  1
  C  782  1  0.02706100  0.02633300  0.33242000  1
  C  783  1  0.06879100  0.02645300  0.33891500  1
  C  784  1  0.09593900  0.05028600  0.32838000  1
  C  785  1  0.08037400  0.07381500  0.31138300  1
  C  786  1  0.03935000  0.07406100  0.30497200  1
  C  787  1  0.99202200  0.02183100  0.41269700  1
  C  788  1  0.99274300  0.03062400  0.38769300  1
  C  798  1  0.52704400  0.13831300  0.33136700  1
  C  799  1  0.51260000  0.11497300  0.31435100  1
  C  800  1  0.47064300  0.11521200  0.31452400  1
  C  801  1  0.45685600  0.13866400  0.33169300  1
  C  802  1  0.41501500  0.13872000  0.33790000  1
  C  803  1  0.38804800  0.11541300  0.32662600  1
  C  804  1  0.40306500  0.09331100  0.30864600  1
  C  805  1  0.44428000  0.09279400  0.30265300  1
  C  806  1  0.53848500  0.09237500  0.30226900  1
  C  807  1  0.57986900  0.09266200  0.30788800  1
  C  808  1  0.59552800  0.11474100  0.32568800  1
  C  809  1  0.56904000  0.13820100  0.33717000  1
  C  810  1  0.49298600  0.19470000  0.33513900  1
  C  811  1  0.49542000  0.21419400  0.35627700  1
  C  812  1  0.49552900  0.19327000  0.37638700  1
  C  813  1  0.49312800  0.15947300  0.36900600  1
  C  814  1  0.49833100  0.20241800  0.40090300  1
  C  815  1  0.49821500  0.17688600  0.41848000  1
  C  816  1  0.49426400  0.14232900  0.41201800  1
  C  817  1  0.49281000  0.13373900  0.38698100  1
  C  818  1  0.49203200  0.21187500  0.31237200  1
  C  819  1  0.49370900  0.24795700  0.31133800  1
  C  820  1  0.49666200  0.26616100  0.33333333  1
  C  821  1  0.49738900  0.24964300  0.35572700  1
  C  834  1  0.49223800  0.15775400  0.34188600  1
  C  839  1  0.52683200  0.02330100  0.65044000  1
  C  840  1  0.51236900  0.04983000  0.66484100  1
  C  841  1  0.47048300  0.04950700  0.66479000  1
  C  842  1  0.45658000  0.02273600  0.65038300  1
  C  843  1  0.41441200  0.02055100  0.64532400  1
  C  844  1  0.38735200  0.04554000  0.65443000  1
  C  845  1  0.40269300  0.07110500  0.66987800  1
  C  846  1  0.44413700  0.07353600  0.67489900  1
  C  847  1  0.53828200  0.07407800  0.67509900  1
  C  848  1  0.57984500  0.07200600  0.67030000  1
  C  849  1  0.59573100  0.04650600  0.65499300  1
  C  850  1  0.56910900  0.02134900  0.64571200  1
  C  851  1  0.49295500  0.96619950  0.64840400  1
  C  852  1  0.49506900  0.94603650  0.62755400  1
  C  853  1  0.49439400  0.96621450  0.60705400  1
  C  854  1  0.49243500  0.00021900  0.61390200  1
  C  855  1  0.49427600  0.95625750  0.58263300  1
  C  856  1  0.49254400  0.98121850  0.56464800  1
  C  857  1  0.49189600  0.01609000  0.57063600  1
  C  858  1  0.49096000  0.02538500  0.59554100  1
  C  859  1  0.49227400  0.94971750  0.67143200  1
  C  860  1  0.49418800  0.91366650  0.67300600  1
  C  861  1  0.49726200  0.89483100  0.65133700  1
  C  862  1  0.49748900  0.91064250  0.62864600  1
  C  875  1  0.49198300  0.00288600  0.64097600  1
  C  880  1  0.01284700  0.61494200  0.16690800  1
  C  881  1  0.02688900  0.64056800  0.15153100  1
  C  882  1  0.06875400  0.64099200  0.14536600  1
  C  883  1  0.09576300  0.61637900  0.15510400  1
  C  884  1  0.07978300  0.59119100  0.17070000  1
  C  885  1  0.03872000  0.59043800  0.17684700  1
  C  886  1  0.99174300  0.71357000  0.17247400  1
  C  894  1  0.01306500  0.55096700  0.81603500  1
  C  895  1  0.02701000  0.52669600  0.83253100  1
  C  896  1  0.06874200  0.52684300  0.83900400  1
  C  897  1  0.09586300  0.55063400  0.82840800  1
  C  898  1  0.08025200  0.57419400  0.81144600  1
  C  899  1  0.03919300  0.57447000  0.80510600  1
  C  900  1  0.99200400  0.52173800  0.91274500  1
  C  901  1  0.99249700  0.53062000  0.88775900  1
  C  902  1  0.99151800  0.45369800  0.81259100  1
  C  911  1  0.52704100  0.63805400  0.83155000  1
  C  912  1  0.51267200  0.61448900  0.81466200  1
  C  913  1  0.47072800  0.61457300  0.81486900  1
  C  914  1  0.45684100  0.63823500  0.83184900  1
  C  915  1  0.41494500  0.63842300  0.83791300  1
  C  916  1  0.38801200  0.61512100  0.82661200  1
  C  917  1  0.40312300  0.59287700  0.80874900  1
  C  918  1  0.44440400  0.59220200  0.80292600  1
  C  919  1  0.53864500  0.59188900  0.80265300  1
  C  920  1  0.58003800  0.59238300  0.80822700  1
  C  921  1  0.59560700  0.61464400  0.82593700  1
  C  922  1  0.56904600  0.63814500  0.83731600  1
  C  923  1  0.49255300  0.69436600  0.83510200  1
  C  924  1  0.49415200  0.71410600  0.85615000  1
  C  925  1  0.49455100  0.69332200  0.87634700  1
  C  926  1  0.49284900  0.65943900  0.86908800  1
  C  927  1  0.49713700  0.70264700  0.90083900  1
  C  928  1  0.49743100  0.67721800  0.91850000  1
  C  929  1  0.49409700  0.64257300  0.91214700  1
  C  930  1  0.49288300  0.63381600  0.88713800  1
  C  931  1  0.49198000  0.71125000  0.81223600  1
  C  932  1  0.49289200  0.74733900  0.81099500  1
  C  933  1  0.49440600  0.76587200  0.83285600  1
  C  934  1  0.49506000  0.74959400  0.85540200  1
  C  947  1  0.49214400  0.65748000  0.84198400  1
  C  952  1  0.52686600  0.52348500  0.15030800  1
  C  953  1  0.51247200  0.55015200  0.16461100  1
  C  954  1  0.47060100  0.54993400  0.16456100  1
  C  955  1  0.45663200  0.52311200  0.15023800  1
  C  956  1  0.41442400  0.52080400  0.14535200  1
  C  957  1  0.38740900  0.54578300  0.15450200  1
  C  958  1  0.40280800  0.57139500  0.16988900  1
  C  959  1  0.44428900  0.57388500  0.17479600  1
  C  960  1  0.53844300  0.57432600  0.17489600  1
  C  961  1  0.58000500  0.57211700  0.17013900  1
  C  962  1  0.59581200  0.54652700  0.15488300  1
  C  963  1  0.56914000  0.52139600  0.14562000  1
  C  964  1  0.49250700  0.46648400  0.14849900  1
  C  965  1  0.49362200  0.44604000  0.12776100  1
  C  966  1  0.49335200  0.46606300  0.10716100  1
  C  967  1  0.49223200  0.50015600  0.11386500  1
  C  968  1  0.49295500  0.45595100  0.08277000  1
  C  969  1  0.49166500  0.48081400  0.06469000  1
  C  970  1  0.49162000  0.51573000  0.07056000  1
  C  971  1  0.49106600  0.52521000  0.09542500  1
  C  972  1  0.49219500  0.45034700  0.17163700  1
  C  973  1  0.49310400  0.41429700  0.17345200  1
  C  974  1  0.49445100  0.39506400  0.15189900  1
  C  975  1  0.49467500  0.41059600  0.12909000  1
  C  988  1  0.49194400  0.50309200  0.14091500  1
  C  993  1  0.00171500  0.10394200  0.51395900  1
  C  994  1  0.03465300  0.09122800  0.49989300  1
  C  995  1  0.02709500  0.07242300  0.47826000  1
  C  1002  1  0.00770500  0.12585400  0.53336000  1
  C  1004  1  0.49687400  0.06078600  0.51298100  1
  C  1005  1  0.52900700  0.07388600  0.49890400  1
  C  1006  1  0.52163600  0.09226700  0.47758100  1
  C  1007  1  0.48178100  0.09777900  0.46919100  1
  C  1008  1  0.44888600  0.08462900  0.48308700  1
  C  1011  1  0.45649500  0.06570200  0.50466000  1
  C  1018  1  0.50656400  0.03933900  0.53219700  1
  C  1020  1  0.47567000  0.11995400  0.44995000  1
  C  1022  1  0.00173600  0.60411300  0.01390100  1
  C  1023  1  0.03467700  0.59138900  0.99984100  1
  C  1024  1  0.02711600  0.57244900  0.97826800  1
  C  1031  1  0.00769300  0.62611100  0.03326000  1
  C  1033  1  0.49673200  0.56032000  0.01285700  1
  C  1034  1  0.52891900  0.57334800  0.99879600  1
  C  1035  1  0.52160900  0.59201000  0.97759000  1
  C  1036  1  0.48175400  0.59789100  0.96932300  1
  C  1037  1  0.44880400  0.58481700  0.98321000  1
  C  1040  1  0.45634700  0.56564100  0.00467600  1
  C  1047  1  0.50625800  0.53870100  0.03200500  1
  C  1049  1  0.47573100  0.62019600  0.95014400  1
  C  1051  1  0.20473400  0.09711200  0.65384300  1
  C  1052  1  0.23177300  0.08656200  0.67231400  1
  C  1053  1  0.27109500  0.07539500  0.66722500  1
  C  1054  1  0.28567000  0.07401200  0.64323700  1
  C  1055  1  0.25941200  0.08444800  0.62418800  1
  C  1058  1  0.21872500  0.09525600  0.62940000  1
  C  1065  1  0.16551500  0.10669400  0.66137000  1
  C  1067  1  0.32729600  0.06967600  0.64000000  1
  C  1069  1  0.20411600  0.07110400  0.33063400  1
  C  1070  1  0.23125800  0.08153700  0.31220200  1
  C  1071  1  0.26844500  0.09695900  0.31744500  1
  C  1072  1  0.28124800  0.10260400  0.34154300  1
  C  1073  1  0.25460000  0.09210300  0.36053300  1
  C  1076  1  0.21631100  0.07673100  0.35509400  1
  C  1083  1  0.16606000  0.05877100  0.32298700  1
  C  1085  1  0.31931600  0.11756600  0.34555600  1
  C  1087  1  0.75291400  0.08213200  0.31119100  1
  C  1088  1  0.71550400  0.09721500  0.31635800  1
  C  1089  1  0.70244800  0.10262200  0.34043500  1
  C  1090  1  0.72905600  0.09229000  0.35948600  1
  C  1093  1  0.76756000  0.07725000  0.35412500  1
  C  1097  1  0.66416000  0.11718400  0.34436000  1
  C  1099  1  0.75162400  0.08662700  0.67337200  1
  C  1100  1  0.71209200  0.07602500  0.66826700  1
  C  1101  1  0.69761000  0.07479700  0.64425900  1
  C  1102  1  0.72407000  0.08480000  0.62520100  1
  C  1105  1  0.76494400  0.09504700  0.63044200  1
  C  1109  1  0.65598300  0.07071000  0.64095800  1
  C  1111  1  0.20465800  0.59688900  0.15390600  1
  C  1112  1  0.23174300  0.58651100  0.17240000  1
  C  1113  1  0.27111300  0.57546400  0.16732900  1
  C  1114  1  0.28567600  0.57404800  0.14334100  1
  C  1115  1  0.25938800  0.58434300  0.12426800  1
  C  1118  1  0.21865200  0.59502000  0.12946400  1
  C  1125  1  0.16537600  0.60626800  0.16141600  1
  C  1127  1  0.32729000  0.56979500  0.14011400  1
  C  1129  1  0.20401300  0.57130600  0.83054200  1
  C  1130  1  0.23097700  0.58199800  0.81209700  1
  C  1131  1  0.26818500  0.59739300  0.81733100  1
  C  1132  1  0.28116100  0.60273900  0.84143000  1
  C  1133  1  0.25467300  0.59201400  0.86043100  1
  C  1136  1  0.21636600  0.57667300  0.85500500  1
  C  1143  1  0.16598500  0.55892600  0.82292400  1
  C  1145  1  0.31927700  0.61759300  0.84542400  1
  C  1147  1  0.75308000  0.58254300  0.81139400  1
  C  1148  1  0.71569900  0.59767100  0.81656400  1
  C  1149  1  0.70254100  0.60286600  0.84064300  1
  C  1150  1  0.72901300  0.59230700  0.85969600  1
  C  1153  1  0.76748900  0.57722800  0.85433400  1
  C  1157  1  0.66425100  0.61739500  0.84456500  1
  C  1159  1  0.75165400  0.58664700  0.17315300  1
  C  1160  1  0.71214300  0.57599600  0.16805900  1
  C  1161  1  0.69765600  0.57473800  0.14405500  1
  C  1162  1  0.72407500  0.58475900  0.12498300  1
  C  1165  1  0.76493400  0.59504600  0.13021200  1
  C  1169  1  0.65604400  0.57064500  0.14077600  1
  C  1171  1  0.99495900  0.30444500  0.72809300  1
  C  1172  1  0.99406600  0.36746400  0.75498700  1
  C  1173  1  0.02064800  0.36290800  0.73493200  1
  C  1174  1  0.02127500  0.33176900  0.72164700  1
  C  1181  1  0.99432900  0.27273200  0.71641000  1
  C  1182  1  0.99271500  0.39790200  0.76828900  1
  C  1184  1  0.99469300  0.86278400  0.25720200  1
  C  1185  1  0.99419300  0.79971200  0.23038600  1
  C  1186  1  0.02107500  0.80456700  0.25025700  1
  C  1187  1  0.02151100  0.83573700  0.26350100  1
  C  1194  1  0.99381100  0.89447800  0.26889500  1
  C  1195  1  0.99296700  0.76920200  0.21717100  1
  C  1197  1  0.48884000  0.30206800  0.25697600  1
  C  1198  1  0.51501000  0.30713600  0.23701000  1
  C  1199  1  0.51549500  0.33775000  0.22394600  1
  C  1200  1  0.48955500  0.36495600  0.22998800  1
  C  1201  1  0.46259400  0.36026800  0.24984000  1
  C  1204  1  0.46206700  0.32918600  0.26318400  1
  C  1211  1  0.48961200  0.27045400  0.26875500  1
  C  1213  1  0.49076900  0.39530500  0.21659800  1
  C  1215  1  0.48880700  0.86016000  0.72767400  1
  C  1216  1  0.51464400  0.85530300  0.74782300  1
  C  1217  1  0.51514300  0.82472700  0.76093800  1
  C  1218  1  0.48958800  0.79733700  0.75474600  1
  C  1219  1  0.46297900  0.80179700  0.73469800  1
  C  1222  1  0.46239100  0.83285800  0.72133000  1
  C  1229  1  0.48957300  0.89173400  0.71583200  1
  C  1231  1  0.49092000  0.76697400  0.76810800  1
  N  26  1  0.98859000  0.52862800  0.55377900  1
  N  27  1  0.84912000  0.51731900  0.64887200  1
  N  51  1  0.85003600  0.46061600  0.33555800  1
  N  77  1  0.98863900  0.02899100  0.05370300  1
  N  78  1  0.84908900  0.01725200  0.14858600  1
  N  101  1  0.85001900  0.96085300  0.83577400  1
  N  102  1  0.99127600  0.80231100  0.79156400  1
  N  128  1  0.79470600  0.47190500  0.37275600  1
  N  134  1  0.79297800  0.50860400  0.61213500  1
  N  140  1  0.79450900  0.97164100  0.87296500  1
  N  146  1  0.79294300  0.00861000  0.11189300  1
  N  163  1  0.13449700  0.51774900  0.64781400  1
  N  164  1  0.99177600  0.67462800  0.69325300  1
  N  179  1  0.99584300  0.44945100  0.43032400  1
  N  180  1  0.13402800  0.45978500  0.33626100  1
  N  181  1  0.99159100  0.30146800  0.29206900  1
  N  219  1  0.49507800  0.52334100  0.42960500  1
  N  220  1  0.63456500  0.51430500  0.33022100  1
  N  221  1  0.34910800  0.51503700  0.33147800  1
  N  222  1  0.49185900  0.67261200  0.29193300  1
  N  260  1  0.48795900  0.44339900  0.55281100  1
  N  261  1  0.63580600  0.45135600  0.65151500  1
  N  262  1  0.34730900  0.45032300  0.65068900  1
  N  263  1  0.49219800  0.29845500  0.69266400  1
  N  276  1  0.13444600  0.01737600  0.14780700  1
  N  277  1  0.99141600  0.17364900  0.19390700  1
  N  293  1  0.99568900  0.94935900  0.93038000  1
  N  294  1  0.13396400  0.96015600  0.83623200  1
  N  332  1  0.49506000  0.02363500  0.92977100  1
  N  333  1  0.63466200  0.01435700  0.83046800  1
  N  334  1  0.34901700  0.01486900  0.83135600  1
  N  335  1  0.49228600  0.17165300  0.79137900  1
  N  373  1  0.48792600  0.94302000  0.05270400  1
  N  374  1  0.63587900  0.95133800  0.15139900  1
  N  375  1  0.34736700  0.95051700  0.15084500  1
  N  376  1  0.49245900  0.79948500  0.19334000  1
  N  380  1  0.07576800  0.50014000  0.50670300  1
  N  381  1  0.05903700  0.46256000  0.46443200  1
  N  396  1  0.40777700  0.49324200  0.47617300  1
  N  397  1  0.42463500  0.45544600  0.51833900  1
  N  409  1  0.07579500  0.00038500  0.00660700  1
  N  410  1  0.05906400  0.96259600  0.96444000  1
  N  425  1  0.40769200  0.99372900  0.97639000  1
  N  426  1  0.42441700  0.95550400  0.01836800  1
  N  443  1  0.27618800  0.48790600  0.60053900  1
  N  444  1  0.19089500  0.50923900  0.61109300  1
  N  461  1  0.26451100  0.50040700  0.38538500  1
  N  462  1  0.18911100  0.47124600  0.37365800  1
  N  478  1  0.71891100  0.50043700  0.38431600  1
  N  490  1  0.70732800  0.48838200  0.60153700  1
  N  503  1  0.27617900  0.98778700  0.10062200  1
  N  504  1  0.19078000  0.00883600  0.11113500  1
  N  521  1  0.26476900  0.00004700  0.88527800  1
  N  522  1  0.18932300  0.97093600  0.87358100  1
  N  538  1  0.71873700  0.00024200  0.88452300  1
  N  550  1  0.70731200  0.98832800  0.10132700  1
  N  559  1  0.04659400  0.79481800  0.72900800  1
  N  560  1  0.04977900  0.73420800  0.70249800  1
  N  572  1  0.04750200  0.18187000  0.25603400  1
  N  573  1  0.05032700  0.24256900  0.28246400  1
  N  589  1  0.43617000  0.79196900  0.25549400  1
  N  590  1  0.43323600  0.73145700  0.28215400  1
  N  607  1  0.43700900  0.17881800  0.72885600  1
  N  608  1  0.43384100  0.23930200  0.70220100  1
  N  642  1  0.98859000  0.12415400  0.55377900  1
  N  643  1  0.84912000  0.11284500  0.64887200  1
  N  667  1  0.85003600  0.05614200  0.33555800  1
  N  693  1  0.98863900  0.62451700  0.05370300  1
  N  694  1  0.84908900  0.61277800  0.14858600  1
  N  717  1  0.85001900  0.55637900  0.83577400  1
  N  718  1  0.99127600  0.39783700  0.79156400  1
  N  744  1  0.79470600  0.06743100  0.37275600  1
  N  750  1  0.79297800  0.10413000  0.61213500  1
  N  756  1  0.79450900  0.56716700  0.87296500  1
  N  762  1  0.79294300  0.60413600  0.11189300  1
  N  779  1  0.13449700  0.11327500  0.64781400  1
  N  780  1  0.99177600  0.27015400  0.69325300  1
  N  795  1  0.99584300  0.04497700  0.43032400  1
  N  796  1  0.13402800  0.05531100  0.33626100  1
  N  797  1  0.99159100  0.89699400  0.29206900  1
  N  835  1  0.49507800  0.11886700  0.42960500  1
  N  836  1  0.63456500  0.10983100  0.33022100  1
  N  837  1  0.34910800  0.11056300  0.33147800  1
  N  838  1  0.49185900  0.26813800  0.29193300  1
  N  876  1  0.48795900  0.03892500  0.55281100  1
  N  877  1  0.63580600  0.04688200  0.65151500  1
  N  878  1  0.34730900  0.04584900  0.65068900  1
  N  879  1  0.49219800  0.89398100  0.69266400  1
  N  892  1  0.13444600  0.61290200  0.14780700  1
  N  893  1  0.99141600  0.76917500  0.19390700  1
  N  909  1  0.99568900  0.54488500  0.93038000  1
  N  910  1  0.13396400  0.55568200  0.83623200  1
  N  948  1  0.49506000  0.61916100  0.92977100  1
  N  949  1  0.63466200  0.60988300  0.83046800  1
  N  950  1  0.34901700  0.61039500  0.83135600  1
  N  951  1  0.49228600  0.76717900  0.79137900  1
  N  989  1  0.48792600  0.53854600  0.05270400  1
  N  990  1  0.63587900  0.54686400  0.15139900  1
  N  991  1  0.34736700  0.54604300  0.15084500  1
  N  992  1  0.49245900  0.39501100  0.19334000  1
  N  996  1  0.07576800  0.09566600  0.50670300  1
  N  997  1  0.05903700  0.05808600  0.46443200  1
  N  1012  1  0.40777700  0.08876800  0.47617300  1
  N  1013  1  0.42463500  0.05097200  0.51833900  1
  N  1025  1  0.07579500  0.59591100  0.00660700  1
  N  1026  1  0.05906400  0.55812200  0.96444000  1
  N  1041  1  0.40769200  0.58925500  0.97639000  1
  N  1042  1  0.42441700  0.55103000  0.01836800  1
  N  1059  1  0.27618800  0.08343200  0.60053900  1
  N  1060  1  0.19089500  0.10476500  0.61109300  1
  N  1077  1  0.26451100  0.09593300  0.38538500  1
  N  1078  1  0.18911100  0.06677200  0.37365800  1
  N  1094  1  0.71891100  0.09596300  0.38431600  1
  N  1106  1  0.70732800  0.08390800  0.60153700  1
  N  1119  1  0.27617900  0.58331300  0.10062200  1
  N  1120  1  0.19078000  0.60436200  0.11113500  1
  N  1137  1  0.26476900  0.59557300  0.88527800  1
  N  1138  1  0.18932300  0.56646200  0.87358100  1
  N  1154  1  0.71873700  0.59576800  0.88452300  1
  N  1166  1  0.70731200  0.58385400  0.10132700  1
  N  1175  1  0.04659400  0.39034400  0.72900800  1
  N  1176  1  0.04977900  0.32973400  0.70249800  1
  N  1188  1  0.04750200  0.77739600  0.25603400  1
  N  1189  1  0.05032700  0.83809500  0.28246400  1
  N  1205  1  0.43617000  0.38749500  0.25549400  1
  N  1206  1  0.43323600  0.32698300  0.28215400  1
  N  1223  1  0.43700900  0.77434400  0.72885600  1
  N  1224  1  0.43384100  0.83482800  0.70220100  1
  O  129  1  0.80617000  0.49654200  0.38539200  1
  O  130  1  0.78033500  0.44926000  0.38619800  1
  O  135  1  0.80214800  0.48471400  0.59822500  1
  O  136  1  0.78332000  0.53447200  0.60033600  1
  O  141  1  0.80599700  0.99613900  0.88573200  1
  O  142  1  0.77999200  0.94891600  0.88627800  1
  O  147  1  0.80213500  0.98471300  0.09799400  1
  O  148  1  0.78325700  0.03446100  0.10008400  1
  O  382  1  0.08334700  0.48846900  0.52738700  1
  O  383  1  0.08243300  0.48461600  0.45591700  1
  O  384  1  0.08708100  0.53039700  0.50544800  1
  O  385  1  0.07907400  0.44112800  0.47620200  1
  O  398  1  0.40053400  0.48173500  0.45539900  1
  O  399  1  0.40088200  0.47722500  0.52686900  1
  O  400  1  0.39604300  0.52337600  0.47756500  1
  O  401  1  0.40497300  0.43393600  0.50641700  1
  O  411  1  0.08344700  0.98883400  0.02731600  1
  O  412  1  0.08236300  0.98466500  0.95584700  1
  O  413  1  0.08707200  0.03064400  0.00525400  1
  O  414  1  0.07920800  0.94126400  0.97623800  1
  O  427  1  0.40024000  0.98244900  0.95557900  1
  O  428  1  0.40095500  0.97738700  0.02704800  1
  O  429  1  0.39619700  0.02391000  0.97795200  1
  O  430  1  0.40444600  0.93424200  0.00640300  1
  O  445  1  0.25901500  0.46733900  0.58663100  1
  O  446  1  0.18126500  0.48549400  0.59716700  1
  O  447  1  0.27916800  0.51642100  0.59075600  1
  O  448  1  0.20107000  0.53498300  0.59931800  1
  O  463  1  0.29619300  0.48476600  0.39116800  1
  O  464  1  0.17726800  0.49584800  0.38620900  1
  O  465  1  0.26721000  0.53085100  0.39164200  1
  O  466  1  0.20362600  0.44877700  0.38719500  1
  O  479  1  0.68737700  0.48451900  0.38999200  1
  O  480  1  0.71580400  0.53083900  0.39061300  1
  O  491  1  0.72411700  0.46751800  0.58768900  1
  O  492  1  0.70492100  0.51689200  0.59168900  1
  O  505  1  0.25911200  0.96712300  0.08674200  1
  O  506  1  0.18127400  0.98500900  0.09725100  1
  O  507  1  0.27902600  0.01628600  0.09080000  1
  O  508  1  0.20082200  0.03457800  0.09931400  1
  O  523  1  0.29649600  0.98434800  0.89088500  1
  O  524  1  0.17753100  0.99537700  0.88630500  1
  O  525  1  0.26752500  0.03042300  0.89169300  1
  O  526  1  0.20398000  0.94833100  0.88694600  1
  O  539  1  0.68714100  0.98431400  0.89005700  1
  O  540  1  0.71563600  0.03059000  0.89094900  1
  O  551  1  0.72411300  0.96747600  0.08747300  1
  O  552  1  0.70486600  0.01683500  0.09147900  1
  O  561  1  0.08341400  0.78737500  0.73114400  1
  O  562  1  0.03350600  0.73495400  0.68198300  1
  O  563  1  0.03998000  0.80620800  0.70812900  1
  O  564  1  0.07366300  0.70960300  0.70420300  1
  O  574  1  0.08417400  0.18966600  0.25363700  1
  O  575  1  0.03443500  0.24176600  0.30308800  1
  O  576  1  0.04144300  0.17047400  0.27697100  1
  O  577  1  0.07385400  0.26738300  0.28055100  1
  O  591  1  0.39950400  0.78417200  0.25308500  1
  O  592  1  0.44912200  0.73232800  0.30278000  1
  O  593  1  0.44216000  0.80348900  0.27640400  1
  O  594  1  0.40964900  0.70667500  0.28030300  1
  O  609  1  0.40019500  0.18629200  0.73097300  1
  O  610  1  0.45003600  0.23833400  0.68167100  1
  O  611  1  0.44361300  0.16731600  0.70800500  1
  O  612  1  0.41005700  0.26398600  0.70383500  1
  O  745  1  0.80617000  0.09206800  0.38539200  1
  O  746  1  0.78033500  0.04478600  0.38619800  1
  O  751  1  0.80214800  0.08024000  0.59822500  1
  O  752  1  0.78332000  0.12999800  0.60033600  1
  O  757  1  0.80599700  0.59166500  0.88573200  1
  O  758  1  0.77999200  0.54444200  0.88627800  1
  O  763  1  0.80213500  0.58023900  0.09799400  1
  O  764  1  0.78325700  0.62998700  0.10008400  1
  O  998  1  0.08334700  0.08399500  0.52738700  1
  O  999  1  0.08243300  0.08014200  0.45591700  1
  O  1000  1  0.08708100  0.12592300  0.50544800  1
  O  1001  1  0.07907400  0.03665400  0.47620200  1
  O  1014  1  0.40053400  0.07726100  0.45539900  1
  O  1015  1  0.40088200  0.07275100  0.52686900  1
  O  1016  1  0.39604300  0.11890200  0.47756500  1
  O  1017  1  0.40497300  0.02946200  0.50641700  1
  O  1027  1  0.08344700  0.58436000  0.02731600  1
  O  1028  1  0.08236300  0.58019100  0.95584700  1
  O  1029  1  0.08707200  0.62617000  0.00525400  1
  O  1030  1  0.07920800  0.53679000  0.97623800  1
  O  1043  1  0.40024000  0.57797500  0.95557900  1
  O  1044  1  0.40095500  0.57291300  0.02704800  1
  O  1045  1  0.39619700  0.61943600  0.97795200  1
  O  1046  1  0.40444600  0.52976800  0.00640300  1
  O  1061  1  0.25901500  0.06286500  0.58663100  1
  O  1062  1  0.18126500  0.08102000  0.59716700  1
  O  1063  1  0.27916800  0.11194700  0.59075600  1
  O  1064  1  0.20107000  0.13050900  0.59931800  1
  O  1079  1  0.29619300  0.08029200  0.39116800  1
  O  1080  1  0.17726800  0.09137400  0.38620900  1
  O  1081  1  0.26721000  0.12637700  0.39164200  1
  O  1082  1  0.20362600  0.04430300  0.38719500  1
  O  1095  1  0.68737700  0.08004500  0.38999200  1
  O  1096  1  0.71580400  0.12636500  0.39061300  1
  O  1107  1  0.72411700  0.06304400  0.58768900  1
  O  1108  1  0.70492100  0.11241800  0.59168900  1
  O  1121  1  0.25911200  0.56264900  0.08674200  1
  O  1122  1  0.18127400  0.58053500  0.09725100  1
  O  1123  1  0.27902600  0.61181200  0.09080000  1
  O  1124  1  0.20082200  0.63010400  0.09931400  1
  O  1139  1  0.29649600  0.57987400  0.89088500  1
  O  1140  1  0.17753100  0.59090300  0.88630500  1
  O  1141  1  0.26752500  0.62594900  0.89169300  1
  O  1142  1  0.20398000  0.54385700  0.88694600  1
  O  1155  1  0.68714100  0.57984000  0.89005700  1
  O  1156  1  0.71563600  0.62611600  0.89094900  1
  O  1167  1  0.72411300  0.56300200  0.08747300  1
  O  1168  1  0.70486600  0.61236100  0.09147900  1
  O  1177  1  0.08341400  0.38290100  0.73114400  1
  O  1178  1  0.03350600  0.33048000  0.68198300  1
  O  1179  1  0.03998000  0.40173400  0.70812900  1
  O  1180  1  0.07366300  0.30512900  0.70420300  1
  O  1190  1  0.08417400  0.78519200  0.25363700  1
  O  1191  1  0.03443500  0.83729200  0.30308800  1
  O  1192  1  0.04144300  0.76600000  0.27697100  1
  O  1193  1  0.07385400  0.86290900  0.28055100  1
  O  1207  1  0.39950400  0.37969800  0.25308500  1
  O  1208  1  0.44912200  0.32785400  0.30278000  1
  O  1209  1  0.44216000  0.39901500  0.27640400  1
  O  1210  1  0.40964900  0.30220100  0.28030300  1
  O  1225  1  0.40019500  0.78181800  0.73097300  1
  O  1226  1  0.45003600  0.83386000  0.68167100  1
  O  1227  1  0.44361300  0.76284200  0.70800500  1
  O  1228  1  0.41005700  0.85951200  0.70383500  1
