# generated using pymatgen
data_H28C43(N4O)2
_symmetry_space_group_name_H-M   'P 1'
_cell_length_a   46.54720000
_cell_length_b   46.54720000
_cell_length_c   61.33660000
_cell_angle_alpha   90.00000000
_cell_angle_beta   90.00000000
_cell_angle_gamma   120.00000000
_symmetry_Int_Tables_number   1
_chemical_formula_structural   H28C43(N4O)2
_chemical_formula_sum   'H336 C516 N96 O24'
_cell_volume   115089.96377885
_cell_formula_units_Z   12
loop_
 _symmetry_equiv_pos_site_id
 _symmetry_equiv_pos_as_xyz
  1  'x, y, z'
loop_
 _atom_site_type_symbol
 _atom_site_label
 _atom_site_symmetry_multiplicity
 _atom_site_fract_x
 _atom_site_fract_y
 _atom_site_fract_z
 _atom_site_occupancy
  H  5  1  0.98195400  0.54761500  0.89931500  1
  H  6  1  0.98334000  0.43546200  0.90097600  1
  H  7  1  0.97642100  0.48778200  0.95112500  1
  H  8  1  0.97433600  0.48767700  0.81936400  1
  H  12  1  0.98302700  0.38221000  0.90974300  1
  H  13  1  0.98007100  0.59946500  0.90439400  1
  H  18  1  0.98211000  0.43535100  0.63420100  1
  H  19  1  0.98344300  0.54886900  0.63256100  1
  H  20  1  0.97657300  0.48834400  0.58212400  1
  H  21  1  0.97939900  0.49006800  0.71377600  1
  H  25  1  0.98301700  0.60173600  0.62395100  1
  H  26  1  0.98007500  0.38154100  0.62931300  1
  H  49  1  0.91566400  0.45794500  0.87616100  1
  H  54  1  0.91691800  0.45924800  0.65839300  1
  H  85  1  0.80896600  0.54894400  0.93336100  1
  H  86  1  0.77683700  0.49132100  0.93870700  1
  H  87  1  0.67326800  0.38781200  0.93867100  1
  H  88  1  0.61639200  0.35477300  0.93118400  1
  H  89  1  0.61674000  0.43525000  0.89932500  1
  H  90  1  0.72889100  0.54878800  0.90098300  1
  H  91  1  0.67656700  0.48954500  0.95113600  1
  H  92  1  0.62417700  0.54153100  0.95119300  1
  H  93  1  0.62328100  0.54042700  0.91237300  1
  H  94  1  0.70641000  0.45863100  0.87616700  1
  H  95  1  0.65234900  0.51189800  0.84110500  1
  H  96  1  0.67667800  0.48757000  0.81937100  1
  H  99  1  0.72675400  0.43803800  0.92150000  1
  H  100  1  0.71661100  0.44801100  0.94728000  1
  H  102  1  0.62267000  0.50348800  0.87923800  1
  H  103  1  0.66065700  0.54163200  0.87937600  1
  H  107  1  0.78214400  0.60173100  0.90977300  1
  H  108  1  0.56489400  0.38151700  0.90438600  1
  H  109  1  0.71941400  0.44509900  0.84039500  1
  H  111  1  0.66882600  0.51203400  0.98501900  1
  H  122  1  0.90342300  0.35539600  0.93336100  1
  H  123  1  0.87791900  0.38751600  0.93869000  1
  H  124  1  0.87798600  0.49108900  0.93866100  1
  H  125  1  0.90182100  0.54796400  0.93117000  1
  H  126  1  0.08080200  0.54018500  0.95118700  1
  H  127  1  0.08059200  0.54108600  0.91236600  1
  H  128  1  0.02299300  0.51200800  0.84109800  1
  H  130  1  0.87472500  0.43760300  0.92149300  1
  H  131  1  0.89484400  0.44774500  0.94727200  1
  H  133  1  0.04426100  0.54168600  0.87923200  1
  H  134  1  0.04442000  0.50369900  0.87936800  1
  H  136  1  0.88912700  0.44493500  0.84038900  1
  H  138  1  0.00662400  0.49553700  0.98499300  1
  H  163  1  0.61540900  0.26092700  0.93336800  1
  H  164  1  0.67303200  0.28642200  0.93871400  1
  H  165  1  0.77654300  0.28636100  0.93867700  1
  H  166  1  0.80958600  0.26252900  0.93118000  1
  H  167  1  0.72910400  0.18240200  0.89932100  1
  H  168  1  0.61556600  0.18101200  0.90098800  1
  H  169  1  0.67480300  0.18793800  0.95113500  1
  H  170  1  0.62281900  0.08355600  0.95118900  1
  H  171  1  0.62393200  0.08376400  0.91237200  1
  H  172  1  0.70572400  0.24868900  0.87617000  1
  H  173  1  0.65245800  0.14135900  0.84110800  1
  H  174  1  0.67678400  0.19001600  0.81937400  1
  H  177  1  0.72632200  0.28962400  0.92150900  1
  H  178  1  0.71633700  0.26950300  0.94728600  1
  H  180  1  0.66086700  0.12009100  0.87924100  1
  H  181  1  0.62272300  0.11993400  0.87937600  1
  H  185  1  0.56262500  0.18132200  0.90977700  1
  H  186  1  0.78283700  0.18428500  0.90438700  1
  H  187  1  0.71924900  0.27522300  0.84039600  1
  H  189  1  0.65232400  0.15769700  0.98502200  1
  H  214  1  0.40958200  0.56124800  0.43336200  1
  H  215  1  0.44171000  0.61887400  0.43870100  1
  H  216  1  0.54527700  0.72237800  0.43866800  1
  H  217  1  0.60215100  0.75541300  0.43118800  1
  H  218  1  0.60180900  0.67494200  0.39932300  1
  H  219  1  0.48965200  0.56140200  0.40098000  1
  H  220  1  0.54196200  0.62063400  0.45113200  1
  H  221  1  0.59436500  0.56865600  0.45118300  1
  H  222  1  0.59527000  0.56977200  0.41236600  1
  H  223  1  0.51213400  0.65155800  0.37616600  1
  H  224  1  0.56619800  0.59829300  0.34110400  1
  H  225  1  0.54186700  0.62261900  0.31936900  1
  H  228  1  0.49179000  0.67215000  0.42149800  1
  H  229  1  0.50193700  0.66218100  0.44727800  1
  H  231  1  0.59587500  0.60670300  0.37923600  1
  H  232  1  0.55788800  0.56855900  0.37937300  1
  H  236  1  0.43640000  0.50846100  0.40976200  1
  H  237  1  0.65366100  0.72867800  0.40439700  1
  H  238  1  0.49912600  0.66508700  0.34039300  1
  H  240  1  0.54973000  0.59815400  0.48502400  1
  H  265  1  0.31512900  0.75480000  0.43335300  1
  H  266  1  0.34063100  0.72267800  0.43868800  1
  H  267  1  0.34055900  0.61910300  0.43866300  1
  H  268  1  0.31672100  0.56222800  0.43118300  1
  H  269  1  0.23659500  0.56257300  0.39931300  1
  H  270  1  0.23520800  0.67472800  0.40097500  1
  H  271  1  0.24212900  0.62241700  0.45112400  1
  H  272  1  0.13774800  0.57001900  0.45117600  1
  H  273  1  0.13796000  0.56910700  0.41235900  1
  H  274  1  0.30288400  0.65224500  0.37615900  1
  H  275  1  0.19555500  0.59818200  0.34109700  1
  H  276  1  0.24421200  0.62251300  0.31936300  1
  H  279  1  0.34382200  0.67258800  0.42149100  1
  H  280  1  0.32370400  0.66244700  0.44727000  1
  H  282  1  0.17428700  0.56850400  0.37922900  1
  H  283  1  0.17413100  0.60649100  0.37936500  1
  H  287  1  0.23552200  0.72798300  0.40975700  1
  H  288  1  0.23847500  0.51071800  0.40439500  1
  H  289  1  0.32942100  0.66525500  0.34038600  1
  H  291  1  0.21189000  0.61464800  0.48501100  1
  H  316  1  0.60313600  0.84927300  0.43338600  1
  H  317  1  0.54551500  0.82377400  0.43872100  1
  H  318  1  0.44200300  0.82382600  0.43867300  1
  H  319  1  0.40895700  0.84765100  0.43117700  1
  H  320  1  0.48944000  0.92778900  0.39932300  1
  H  321  1  0.60298100  0.92917200  0.40098100  1
  H  322  1  0.54374000  0.92225200  0.45113200  1
  H  323  1  0.59573400  0.02663100  0.45119100  1
  H  324  1  0.59462600  0.02642600  0.41237300  1
  H  325  1  0.51282100  0.86150000  0.37616900  1
  H  326  1  0.56608900  0.96883000  0.34110800  1
  H  327  1  0.54176100  0.92017300  0.31937400  1
  H  330  1  0.49222600  0.82056500  0.42150700  1
  H  331  1  0.50220600  0.84068400  0.44728500  1
  H  333  1  0.55768100  0.99009900  0.37924100  1
  H  334  1  0.59582400  0.99025400  0.37937800  1
  H  338  1  0.65592300  0.92886300  0.40975700  1
  H  339  1  0.43570300  0.92590900  0.40441200  1
  H  340  1  0.49929800  0.83496500  0.34039600  1
  H  342  1  0.56620900  0.95247800  0.48501400  1
  H  367  1  0.31521400  0.56127200  0.10038900  1
  H  368  1  0.34068000  0.61889200  0.09504800  1
  H  369  1  0.34059500  0.72237400  0.09507600  1
  H  370  1  0.31677800  0.75542000  0.10257100  1
  H  371  1  0.23643600  0.67484200  0.13419600  1
  H  372  1  0.23510700  0.56132300  0.13256400  1
  H  373  1  0.24197200  0.62183100  0.08212300  1
  H  374  1  0.13745900  0.56956900  0.08204800  1
  H  375  1  0.13751900  0.56907600  0.12073000  1
  H  376  1  0.30162900  0.65094000  0.15839400  1
  H  377  1  0.19230700  0.59664300  0.19117500  1
  H  378  1  0.23914900  0.62012200  0.21377700  1
  H  381  1  0.34376200  0.67210600  0.11220000  1
  H  382  1  0.32373500  0.66218800  0.08639100  1
  H  384  1  0.17312400  0.60597300  0.15341600  1
  H  385  1  0.17304000  0.56779000  0.15340800  1
  H  389  1  0.23553500  0.50845800  0.12394100  1
  H  390  1  0.23847000  0.72865100  0.12931000  1
  H  391  1  0.32477300  0.66279700  0.19556600  1
  H  393  1  0.21156600  0.60754200  0.04752900  1
  H  418  1  0.60309400  0.75486100  0.10040400  1
  H  419  1  0.54547000  0.72270100  0.09506300  1
  H  420  1  0.44199900  0.61913100  0.09507900  1
  H  421  1  0.40894400  0.56226800  0.10258500  1
  H  422  1  0.48953100  0.56250600  0.13420100  1
  H  423  1  0.60305300  0.67469100  0.13255400  1
  H  424  1  0.54257200  0.62102600  0.08213800  1
  H  425  1  0.59481100  0.56877300  0.08196200  1
  H  426  1  0.59531800  0.56932400  0.12069700  1
  H  427  1  0.51343500  0.65159700  0.15838900  1
  H  428  1  0.56772200  0.59657200  0.19117400  1
  H  429  1  0.54424500  0.61993600  0.21377500  1
  H  432  1  0.49226000  0.67256200  0.11220400  1
  H  433  1  0.50218600  0.66245900  0.08639400  1
  H  435  1  0.55840400  0.56805200  0.15341100  1
  H  436  1  0.59658600  0.60614600  0.15340500  1
  H  440  1  0.65591500  0.72799200  0.12393600  1
  H  441  1  0.43571700  0.51073700  0.12932500  1
  H  442  1  0.50156500  0.66288200  0.19556900  1
  H  444  1  0.55675400  0.60516800  0.04770100  1
  H  469  1  0.40951700  0.84916600  0.10037500  1
  H  470  1  0.44167200  0.82370100  0.09502400  1
  H  471  1  0.54523500  0.82377900  0.09506800  1
  H  472  1  0.60210000  0.84759400  0.10257100  1
  H  473  1  0.60185500  0.92793400  0.13419300  1
  H  474  1  0.48966500  0.92925700  0.13256600  1
  H  475  1  0.54332000  0.92239200  0.08212600  1
  H  476  1  0.59557300  0.02690400  0.08203300  1
  H  477  1  0.59501100  0.02685600  0.12072100  1
  H  478  1  0.51276500  0.86274100  0.15839500  1
  H  479  1  0.56779200  0.97206300  0.19117000  1
  H  480  1  0.54443000  0.92522600  0.21377500  1
  H  483  1  0.49180000  0.82060600  0.11218800  1
  H  484  1  0.50191000  0.84064600  0.08638300  1
  H  486  1  0.59630500  0.99124400  0.15341000  1
  H  487  1  0.55820800  0.99133300  0.15340700  1
  H  491  1  0.43637100  0.92883200  0.12393300  1
  H  492  1  0.65362400  0.92589400  0.12932600  1
  H  493  1  0.50147800  0.83959900  0.19557200  1
  H  495  1  0.55959100  0.95274900  0.04754200  1
  H  506  1  0.90334100  0.54891900  0.60037900  1
  H  507  1  0.87786700  0.49129700  0.59504800  1
  H  508  1  0.87795200  0.38781500  0.59507900  1
  H  509  1  0.90176300  0.35476300  0.60258200  1
  H  510  1  0.08108600  0.54061000  0.58204600  1
  H  511  1  0.08102900  0.54111900  0.62072900  1
  H  512  1  0.02623900  0.51354500  0.69117500  1
  H  514  1  0.87478000  0.43807700  0.61219600  1
  H  515  1  0.89482000  0.44800800  0.58639100  1
  H  517  1  0.04542200  0.50421400  0.65341400  1
  H  518  1  0.04550900  0.54239800  0.65340900  1
  H  519  1  0.89377400  0.44739200  0.69556700  1
  H  521  1  0.00697100  0.50244800  0.54753200  1
  H  546  1  0.61544800  0.35534500  0.60038100  1
  H  547  1  0.67306700  0.38749700  0.59504100  1
  H  548  1  0.77655000  0.49105700  0.59508200  1
  H  549  1  0.80960400  0.54791800  0.60258700  1
  H  550  1  0.72901700  0.54767900  0.63420600  1
  H  551  1  0.61549500  0.43549400  0.63256200  1
  H  552  1  0.67601400  0.48913400  0.58212700  1
  H  553  1  0.62376200  0.54138900  0.58201200  1
  H  554  1  0.62325200  0.54084200  0.62070500  1
  H  555  1  0.70511400  0.45859000  0.65839300  1
  H  556  1  0.65082200  0.51361800  0.69117200  1
  H  557  1  0.67429800  0.49025300  0.71377600  1
  H  560  1  0.72629100  0.43762700  0.61220100  1
  H  561  1  0.71635400  0.44772900  0.58639400  1
  H  563  1  0.66014900  0.54213100  0.65340600  1
  H  564  1  0.62196600  0.50403700  0.65340100  1
  H  568  1  0.56263100  0.38219300  0.62395600  1
  H  569  1  0.78282900  0.59944900  0.62933300  1
  H  570  1  0.71697900  0.44730800  0.69557000  1
  H  572  1  0.66180000  0.50523700  0.54754800  1
  H  597  1  0.80903700  0.26103200  0.60038400  1
  H  598  1  0.77687900  0.28649900  0.59503800  1
  H  599  1  0.67331000  0.28641000  0.59506900  1
  H  600  1  0.61644700  0.26259300  0.60256400  1
  H  601  1  0.61669000  0.18225700  0.63419700  1
  H  602  1  0.72887500  0.18092500  0.63255600  1
  H  603  1  0.67522800  0.18779000  0.58212400  1
  H  604  1  0.62298000  0.08327600  0.58204800  1
  H  605  1  0.62354000  0.08334200  0.62073700  1
  H  606  1  0.70578400  0.24745200  0.65839700  1
  H  607  1  0.65075500  0.13812500  0.69117200  1
  H  608  1  0.67411600  0.18496100  0.71377600  1
  H  611  1  0.72674900  0.28958700  0.61219100  1
  H  612  1  0.71663700  0.26954800  0.58638400  1
  H  614  1  0.62224500  0.11895000  0.65341400  1
  H  615  1  0.66034200  0.11886400  0.65340800  1
  H  619  1  0.78217100  0.18135000  0.62392300  1
  H  620  1  0.56491800  0.18429400  0.62932800  1
  H  621  1  0.71706500  0.27059100  0.69557400  1
  H  623  1  0.65907300  0.15742500  0.54756400  1
  H  630  1  0.60450500  0.32884000  0.88360700  1
  H  633  1  0.62449200  0.30997400  0.85354000  1
  H  634  1  0.65134400  0.29358300  0.85571600  1
  H  635  1  0.65392300  0.32269300  0.87515200  1
  H  645  1  0.88777800  0.55984500  0.88360000  1
  H  648  1  0.84892500  0.53986200  0.85353400  1
  H  649  1  0.80568000  0.51301000  0.85571000  1
  H  650  1  0.83221200  0.51042800  0.87514500  1
  H  659  1  0.83551000  0.27657500  0.88359900  1
  H  662  1  0.85442500  0.31545000  0.85351500  1
  H  663  1  0.87078200  0.35869100  0.85570800  1
  H  664  1  0.84163200  0.33212000  0.87511000  1
  H  672  1  0.61403000  0.78134900  0.38360300  1
  H  675  1  0.59407300  0.80026600  0.35352500  1
  H  676  1  0.56719400  0.81662700  0.35571800  1
  H  677  1  0.56461100  0.78747400  0.37511900  1
  H  687  1  0.33078600  0.55037100  0.38361200  1
  H  690  1  0.36965400  0.57030900  0.35351900  1
  H  691  1  0.41289300  0.59719200  0.35571300  1
  H  692  1  0.38632200  0.59977300  0.37511400  1
  H  702  1  0.38305200  0.83359600  0.38361200  1
  H  705  1  0.36410900  0.79472800  0.35351400  1
  H  706  1  0.34776200  0.75148800  0.35570800  1
  H  707  1  0.37691700  0.77806500  0.37510400  1
  H  717  1  0.33079500  0.78131400  0.15008400  1
  H  720  1  0.36969100  0.80043700  0.18019300  1
  H  721  1  0.41290300  0.81660600  0.17796500  1
  H  722  1  0.38620600  0.78738600  0.15864800  1
  H  732  1  0.38305300  0.55038700  0.15008600  1
  H  735  1  0.36394000  0.57017000  0.18019800  1
  H  736  1  0.34776700  0.59721000  0.17797100  1
  H  737  1  0.37698300  0.59973300  0.15865100  1
  H  747  1  0.61402200  0.83360600  0.15011300  1
  H  750  1  0.59403800  0.79475400  0.18018300  1
  H  751  1  0.56719100  0.75150900  0.17800900  1
  H  752  1  0.56460900  0.77803700  0.15857200  1
  H  762  1  0.88778100  0.32885600  0.65010600  1
  H  765  1  0.84892600  0.30998300  0.68017300  1
  H  766  1  0.80568100  0.29358700  0.67799700  1
  H  767  1  0.83221100  0.32269900  0.65856100  1
  H  776  1  0.83551500  0.55984500  0.65011000  1
  H  779  1  0.85443100  0.53988300  0.68019300  1
  H  780  1  0.87079300  0.51300700  0.67799800  1
  H  781  1  0.84164200  0.51042400  0.65859700  1
  H  789  1  0.60452600  0.27659000  0.65011600  1
  H  792  1  0.62448600  0.31546300  0.68019900  1
  H  793  1  0.65136100  0.35870300  0.67800700  1
  H  794  1  0.65394600  0.33213700  0.65860200  1
  H  804  1  0.73383400  0.43054100  0.78661400  1
  H  807  1  0.77307100  0.42965800  0.76274100  1
  H  808  1  0.76144900  0.40298500  0.73993000  1
  H  809  1  0.73472700  0.39128700  0.76272700  1
  H  815  1  0.86015000  0.43051700  0.78660600  1
  H  818  1  0.82003300  0.39127900  0.76272700  1
  H  819  1  0.80498200  0.40290500  0.73991700  1
  H  820  1  0.82000200  0.42961900  0.76271900  1
  H  829  1  0.73380800  0.30419500  0.78661900  1
  H  832  1  0.73468700  0.34431700  0.76274700  1
  H  833  1  0.76136900  0.35937400  0.73994000  1
  H  834  1  0.77306100  0.34434900  0.76273900  1
  H  844  1  0.48471200  0.67964600  0.28661400  1
  H  847  1  0.44547600  0.68053400  0.26274100  1
  H  848  1  0.45710600  0.70721400  0.23993100  1
  H  849  1  0.48382200  0.71890200  0.26273000  1
  H  859  1  0.35839600  0.67967300  0.28660600  1
  H  862  1  0.39851600  0.71891000  0.26272500  1
  H  863  1  0.41356500  0.70727600  0.23991600  1
  H  864  1  0.39854100  0.68056500  0.26272000  1
  H  874  1  0.48473900  0.80599300  0.28661700  1
  H  877  1  0.48385300  0.76586800  0.26274600  1
  H  878  1  0.45716800  0.75081500  0.23994100  1
  H  879  1  0.44548500  0.76584400  0.26273900  1
  H  889  1  0.54986700  0.52019200  0.02802600  1
  H  892  1  0.53199600  0.46081600  0.02689300  1
  H  893  1  0.52495100  0.43769400  0.00271500  1
  H  894  1  0.51941000  0.47252600  0.00264500  1
  H  904  1  0.13366000  0.61443700  0.02807200  1
  H  907  1  0.09226300  0.63236600  0.02687900  1
  H  908  1  0.07615500  0.63939800  0.00271200  1
  H  909  1  0.11653000  0.64493900  0.00261700  1
  H  919  1  0.64423100  0.03068100  0.02807000  1
  H  922  1  0.70355800  0.07209200  0.02688800  1
  H  923  1  0.72669200  0.08818900  0.00271900  1
  H  924  1  0.69185600  0.04781800  0.00263200  1
  H  934  1  0.66864400  0.59005200  0.52808500  1
  H  937  1  0.68657000  0.64939800  0.52688800  1
  H  938  1  0.69360700  0.67251300  0.50271000  1
  H  939  1  0.69913200  0.63767100  0.50263700  1
  H  949  1  0.08488700  0.49573700  0.52807200  1
  H  952  1  0.12629200  0.47782100  0.52687800  1
  H  953  1  0.14238600  0.47078000  0.50270800  1
  H  954  1  0.10201500  0.46524100  0.50262400  1
  H  964  1  0.57434100  0.07952000  0.52805900  1
  H  967  1  0.51500400  0.03810400  0.52689300  1
  H  968  1  0.49185600  0.02200100  0.50272800  1
  H  969  1  0.52669200  0.06237200  0.50263300  1
  C  1  1  0.96733400  0.48379100  0.88225300  1
  C  2  1  0.97164100  0.48622500  0.83593500  1
  C  3  1  0.95997200  0.53549400  0.90763700  1
  C  4  1  0.96114800  0.42559400  0.90904200  1
  C  9  1  0.96488200  0.48272000  0.90700600  1
  C  10  1  0.95586000  0.58613200  0.90721200  1
  C  11  1  0.95855400  0.37154000  0.91106200  1
  C  14  1  0.96835100  0.48499900  0.65113800  1
  C  15  1  0.97544100  0.48820900  0.69729700  1
  C  16  1  0.96007500  0.42546900  0.62594500  1
  C  17  1  0.96121300  0.53651400  0.62454300  1
  C  22  1  0.96518900  0.48325600  0.62641700  1
  C  23  1  0.95586800  0.37067000  0.62648300  1
  C  24  1  0.95854400  0.58793700  0.62262900  1
  C  27  1  0.93987900  0.47025500  0.84561000  1
  C  28  1  0.93843700  0.46937100  0.86877600  1
  C  29  1  0.94723900  0.44623400  0.91331400  1
  C  30  1  0.94696500  0.50140600  0.91300800  1
  C  31  1  0.94314300  0.55298600  0.91300400  1
  C  32  1  0.94530700  0.39186200  0.91574400  1
  C  33  1  0.94325800  0.47221200  0.68828900  1
  C  34  1  0.94012300  0.47082100  0.66518700  1
  C  35  1  0.94736800  0.50198300  0.62023700  1
  C  36  1  0.94708800  0.44657200  0.62057300  1
  C  37  1  0.94317000  0.39110900  0.62066600  1
  C  38  1  0.94529600  0.55437200  0.61792500  1
  C  45  1  0.91600600  0.43141100  0.92396200  1
  C  46  1  0.91594900  0.48511800  0.92390700  1
  C  47  1  0.91380500  0.53622500  0.92539400  1
  C  48  1  0.91513100  0.37893200  0.92720800  1
  C  50  1  0.91605400  0.48553800  0.60967700  1
  C  51  1  0.91600300  0.43179500  0.60974600  1
  C  52  1  0.91379200  0.37850800  0.60831600  1
  C  53  1  0.91509300  0.53711100  0.60649300  1
  C  55  1  0.91612000  0.45856900  0.70217800  1
  C  58  1  0.91423400  0.45757400  0.74452100  1
  C  60  1  0.91117300  0.45602600  0.79034600  1
  C  61  1  0.68056500  0.48445400  0.88226000  1
  C  62  1  0.66470100  0.49994100  0.87179700  1
  C  63  1  0.64952900  0.51437900  0.90840000  1
  C  64  1  0.66503700  0.49911900  0.91959200  1
  C  65  1  0.66497400  0.50002100  0.94289500  1
  C  66  1  0.65035300  0.51542400  0.95518600  1
  C  67  1  0.63477600  0.52977900  0.94329500  1
  C  68  1  0.63440600  0.52926500  0.92037500  1
  C  69  1  0.66374400  0.50074100  0.84878000  1
  C  70  1  0.67813000  0.48632800  0.83594100  1
  C  71  1  0.69409900  0.47053600  0.84561600  1
  C  72  1  0.69498400  0.46997800  0.86878200  1
  C  73  1  0.71812100  0.50191600  0.91332000  1
  C  74  1  0.73294400  0.48551000  0.92397300  1
  C  75  1  0.67923900  0.43174300  0.92391200  1
  C  76  1  0.66295100  0.44647100  0.91301400  1
  C  77  1  0.66173600  0.39818700  0.93021200  1
  C  78  1  0.62813000  0.37849300  0.92540400  1
  C  79  1  0.61136900  0.39106900  0.91301200  1
  C  80  1  0.62886200  0.42538600  0.90763800  1
  C  81  1  0.73876100  0.53646600  0.90904700  1
  C  82  1  0.77249200  0.55435500  0.91575100  1
  C  83  1  0.78542700  0.53711200  0.92721000  1
  C  84  1  0.76637700  0.50302900  0.93055000  1
  C  97  1  0.68163400  0.48307200  0.90701300  1
  C  98  1  0.71462200  0.45009300  0.92962300  1
  C  101  1  0.64870400  0.51554400  0.88422300  1
  C  104  1  0.57822500  0.37064100  0.90721600  1
  C  105  1  0.70848600  0.45602300  0.83292700  1
  C  106  1  0.79281200  0.58792400  0.91107400  1
  C  110  1  0.65345700  0.51823500  0.97803400  1
  C  112  1  0.99868400  0.49965300  0.87179000  1
  C  113  1  0.02829500  0.51482700  0.90839300  1
  C  114  1  0.99752800  0.49931900  0.91958300  1
  C  115  1  0.99849000  0.49938300  0.94288600  1
  C  116  1  0.02851700  0.51398700  0.95517300  1
  C  117  1  0.05845100  0.52958500  0.94328800  1
  C  118  1  0.05830700  0.52994700  0.92036800  1
  C  119  1  0.00044100  0.50061200  0.84877300  1
  C  120  1  0.89989500  0.50262100  0.93020600  1
  C  121  1  0.90011400  0.39799300  0.93056500  1
  C  129  1  0.89891300  0.44973200  0.92961500  1
  C  132  1  0.03028400  0.51565200  0.88421600  1
  C  135  1  0.91098100  0.45586700  0.83292200  1
  C  137  1  0.02820700  0.51090100  0.97802000  1
  C  139  1  0.67990100  0.19702000  0.88226200  1
  C  140  1  0.66441500  0.16567000  0.87179900  1
  C  141  1  0.64997500  0.13606300  0.90840000  1
  C  142  1  0.66523300  0.16683000  0.91959100  1
  C  143  1  0.66432900  0.16586900  0.94289400  1
  C  144  1  0.64892500  0.13584400  0.95518100  1
  C  145  1  0.63457500  0.10591000  0.94329300  1
  C  146  1  0.63507800  0.10605100  0.92037400  1
  C  147  1  0.66361600  0.16391100  0.84878300  1
  C  148  1  0.67802700  0.19271000  0.83594500  1
  C  149  1  0.69381800  0.22447200  0.84561900  1
  C  150  1  0.69437700  0.22591600  0.86878400  1
  C  151  1  0.66243900  0.21711600  0.91332200  1
  C  152  1  0.67884700  0.24834900  0.92397300  1
  C  153  1  0.73261100  0.24840000  0.92392000  1
  C  154  1  0.71788300  0.21738900  0.91301800  1
  C  155  1  0.76616800  0.26445300  0.93021800  1
  C  156  1  0.78586300  0.25054500  0.92540700  1
  C  157  1  0.77328300  0.22120500  0.91301800  1
  C  158  1  0.73896600  0.20438200  0.90764200  1
  C  159  1  0.62788900  0.20320500  0.90905100  1
  C  160  1  0.60999900  0.21904600  0.91575600  1
  C  161  1  0.62724200  0.24922300  0.92721700  1
  C  162  1  0.66132600  0.26425800  0.93055600  1
  C  175  1  0.68128300  0.19947400  0.90701500  1
  C  176  1  0.71426200  0.26543600  0.92962900  1
  C  179  1  0.64881100  0.13407000  0.88422400  1
  C  182  1  0.79371400  0.20849400  0.90721100  1
  C  183  1  0.70832700  0.25336900  0.83292900  1
  C  184  1  0.57643000  0.20579600  0.91107900  1
  C  188  1  0.64612200  0.13613400  0.97802400  1
  C  190  1  0.53798100  0.62573700  0.38225800  1
  C  191  1  0.55384300  0.61024900  0.37179500  1
  C  192  1  0.56901100  0.59581000  0.40839600  1
  C  193  1  0.55350300  0.61106900  0.41958800  1
  C  194  1  0.55356500  0.61017000  0.44289100  1
  C  195  1  0.56817200  0.59475000  0.45517700  1
  C  196  1  0.58376200  0.58040700  0.44328700  1
  C  197  1  0.58413200  0.58091900  0.42036800  1
  C  198  1  0.55480200  0.60944900  0.34877800  1
  C  199  1  0.54041500  0.62386200  0.33594000  1
  C  200  1  0.52444600  0.63965400  0.34561500  1
  C  201  1  0.52356100  0.64021300  0.36878000  1
  C  202  1  0.50042200  0.60827300  0.41331600  1
  C  203  1  0.48560200  0.62468100  0.42397200  1
  C  204  1  0.53930600  0.67844700  0.42390900  1
  C  205  1  0.55559500  0.66372100  0.41301000  1
  C  206  1  0.55680900  0.71200100  0.43021200  1
  C  207  1  0.59041500  0.73169700  0.42540400  1
  C  208  1  0.60718000  0.71912100  0.41301600  1
  C  209  1  0.58968500  0.68480600  0.40763600  1
  C  210  1  0.47978200  0.57372500  0.40904300  1
  C  211  1  0.44605100  0.55583600  0.41574400  1
  C  212  1  0.43311800  0.57307700  0.42720900  1
  C  213  1  0.45217700  0.60715600  0.43056600  1
  C  226  1  0.53691100  0.62712000  0.40701000  1
  C  227  1  0.50392200  0.66009600  0.42962200  1
  C  230  1  0.56984000  0.59464600  0.38422000  1
  C  233  1  0.64032800  0.73955300  0.40722100  1
  C  234  1  0.51005700  0.65416200  0.33292600  1
  C  235  1  0.42572900  0.52226400  0.41106800  1
  C  239  1  0.56508600  0.59195100  0.47802200  1
  C  241  1  0.25121600  0.62640100  0.38225200  1
  C  242  1  0.21986500  0.61053500  0.37178800  1
  C  243  1  0.19025700  0.59536700  0.40839000  1
  C  244  1  0.22102400  0.61087500  0.41958000  1
  C  245  1  0.22006300  0.61082200  0.44288300  1
  C  246  1  0.19003700  0.59621900  0.45516700  1
  C  247  1  0.16010200  0.58060500  0.44328100  1
  C  248  1  0.16024500  0.58024700  0.42036100  1
  C  249  1  0.21810700  0.60957800  0.34877100  1
  C  250  1  0.24690600  0.62396400  0.33593400  1
  C  251  1  0.27866700  0.63993500  0.34560800  1
  C  252  1  0.28011200  0.64082000  0.36877400  1
  C  253  1  0.27131200  0.66395900  0.41331200  1
  C  254  1  0.30254300  0.67878000  0.42396100  1
  C  255  1  0.30259700  0.62507200  0.42390600  1
  C  256  1  0.27158300  0.60878300  0.41300700  1
  C  257  1  0.31864900  0.60756700  0.43020900  1
  C  258  1  0.30473600  0.57396300  0.42540200  1
  C  259  1  0.27540100  0.55720000  0.41301000  1
  C  260  1  0.25857500  0.57469200  0.40763600  1
  C  261  1  0.25740000  0.68459800  0.40904200  1
  C  262  1  0.27324200  0.71832900  0.41574200  1
  C  263  1  0.30342000  0.73126300  0.42720500  1
  C  264  1  0.31843500  0.71220100  0.43056400  1
  C  277  1  0.25367000  0.62747100  0.40700400  1
  C  278  1  0.31963600  0.66045800  0.42961300  1
  C  281  1  0.18826600  0.59453900  0.38421300  1
  C  284  1  0.26268500  0.52405300  0.40721700  1
  C  285  1  0.30756600  0.65432200  0.33291900  1
  C  286  1  0.25999400  0.73865200  0.41106500  1
  C  290  1  0.19032600  0.59929300  0.47801400  1
  C  292  1  0.53864700  0.91317000  0.38226200  1
  C  293  1  0.55413200  0.94451900  0.37180000  1
  C  294  1  0.56857000  0.97412600  0.40840100  1
  C  295  1  0.55331000  0.94336000  0.41959000  1
  C  296  1  0.55421200  0.94431900  0.44289300  1
  C  297  1  0.56961600  0.97434400  0.45518100  1
  C  298  1  0.58396200  0.00427900  0.44329400  1
  C  299  1  0.58346000  0.00413900  0.42037400  1
  C  300  1  0.55493200  0.94627900  0.34878200  1
  C  301  1  0.54052000  0.91747900  0.33594500  1
  C  302  1  0.52472700  0.88571700  0.34561800  1
  C  303  1  0.52416800  0.88427300  0.36878400  1
  C  304  1  0.55610900  0.89307400  0.41332100  1
  C  305  1  0.53969900  0.86184200  0.42397200  1
  C  306  1  0.48593500  0.86179000  0.42392000  1
  C  307  1  0.50066200  0.89280000  0.41301600  1
  C  308  1  0.45237800  0.84573200  0.43021500  1
  C  309  1  0.43268000  0.85963800  0.42540200  1
  C  310  1  0.44526000  0.88898200  0.41301600  1
  C  311  1  0.47957600  0.90580400  0.40764100  1
  C  312  1  0.59065800  0.90698300  0.40905000  1
  C  313  1  0.60855000  0.89114500  0.41575500  1
  C  314  1  0.59130600  0.86097400  0.42722300  1
  C  315  1  0.55722100  0.84593600  0.43055900  1
  C  328  1  0.53726300  0.91071700  0.40701400  1
  C  329  1  0.50428600  0.84475400  0.42962800  1
  C  332  1  0.56973600  0.97611900  0.38422500  1
  C  335  1  0.42482900  0.90169600  0.40722100  1
  C  336  1  0.51021900  0.85681900  0.33292900  1
  C  337  1  0.64212100  0.90439200  0.41107500  1
  C  341  1  0.57241400  0.97404600  0.47802300  1
  C  343  1  0.25019600  0.62519000  0.15113900  1
  C  344  1  0.21844500  0.60947700  0.16111500  1
  C  345  1  0.18985700  0.59528200  0.12464900  1
  C  346  1  0.22080900  0.61088100  0.11365500  1
  C  347  1  0.21990000  0.61066400  0.09036100  1
  C  348  1  0.18984200  0.59587200  0.07808500  1
  C  349  1  0.15983800  0.58061100  0.08992300  1
  C  350  1  0.15985200  0.58031300  0.11276700  1
  C  351  1  0.21522200  0.60799800  0.18396300  1
  C  352  1  0.24310700  0.62198100  0.19729700  1
  C  353  1  0.27528800  0.63797800  0.18829000  1
  C  354  1  0.27842400  0.63936700  0.16518700  1
  C  355  1  0.27118000  0.60820700  0.12023700  1
  C  356  1  0.30248600  0.62464600  0.10966800  1
  C  357  1  0.30254500  0.67839500  0.10974600  1
  C  358  1  0.27146000  0.66362100  0.12057500  1
  C  359  1  0.31864900  0.71197800  0.10349500  1
  C  360  1  0.30475200  0.73168000  0.10831100  1
  C  361  1  0.27537300  0.71908000  0.12065900  1
  C  362  1  0.25847900  0.68472700  0.12595000  1
  C  363  1  0.25733900  0.57367900  0.12454800  1
  C  364  1  0.27325900  0.55582200  0.11793500  1
  C  365  1  0.30345900  0.57308000  0.10650000  1
  C  366  1  0.31845200  0.60715500  0.10313200  1
  C  379  1  0.25335800  0.62693600  0.12641800  1
  C  380  1  0.31960400  0.66006900  0.10404100  1
  C  383  1  0.18721600  0.59392600  0.14862800  1
  C  386  1  0.26267600  0.73952300  0.12647800  1
  C  387  1  0.30242700  0.65161900  0.20217700  1
  C  388  1  0.26001000  0.52225800  0.12263200  1
  C  392  1  0.18984400  0.59651400  0.05514600  1
  C  394  1  0.53918600  0.62591100  0.15113400  1
  C  395  1  0.55489800  0.60987200  0.16111000  1
  C  396  1  0.56911500  0.59545700  0.12463300  1
  C  397  1  0.55351500  0.61081400  0.11365100  1
  C  398  1  0.55374000  0.61010700  0.09035900  1
  C  399  1  0.56851900  0.59483700  0.07805200  1
  C  400  1  0.58378300  0.58009300  0.08987000  1
  C  401  1  0.58407800  0.58041600  0.11273100  1
  C  402  1  0.55637000  0.60813400  0.18395900  1
  C  403  1  0.54238900  0.62203800  0.19729400  1
  C  404  1  0.52639300  0.63822300  0.18828800  1
  C  405  1  0.52500700  0.63996600  0.16518300  1
  C  406  1  0.55616600  0.66387300  0.12023100  1
  C  407  1  0.53972100  0.67875000  0.10967700  1
  C  408  1  0.48597800  0.62505800  0.10974800  1
  C  409  1  0.50076000  0.60874600  0.12056800  1
  C  410  1  0.45239200  0.60758600  0.10350500  1
  C  411  1  0.43269000  0.57398400  0.10831600  1
  C  412  1  0.44529000  0.55721000  0.12067100  1
  C  413  1  0.47965000  0.57466400  0.12594800  1
  C  414  1  0.59069500  0.68456600  0.12454000  1
  C  415  1  0.60854600  0.71834300  0.11793000  1
  C  416  1  0.59128700  0.73129400  0.10650500  1
  C  417  1  0.55721300  0.71220900  0.10314000  1
  C  430  1  0.53744700  0.62731900  0.12640800  1
  C  431  1  0.50430100  0.66044300  0.10404600  1
  C  434  1  0.57045300  0.59418800  0.14862000  1
  C  437  1  0.42484700  0.52407300  0.12649300  1
  C  438  1  0.51275200  0.65172200  0.20217800  1
  C  439  1  0.64211200  0.73866300  0.12263100  1
  C  443  1  0.56779500  0.59431700  0.05510300  1
  C  445  1  0.53844700  0.91417300  0.15113700  1
  C  446  1  0.55448700  0.94592600  0.16111200  1
  C  447  1  0.56887500  0.97451800  0.12464400  1
  C  448  1  0.55351900  0.94356400  0.11365400  1
  C  449  1  0.55421600  0.94446900  0.09036100  1
  C  450  1  0.56948700  0.97452000  0.07807800  1
  C  451  1  0.58422200  0.00453100  0.08991300  1
  C  452  1  0.58390600  0.00452000  0.11275900  1
  C  453  1  0.55622900  0.94914600  0.18395900  1
  C  454  1  0.54232900  0.92126500  0.19729600  1
  C  455  1  0.52614300  0.88908300  0.18829000  1
  C  456  1  0.52439600  0.88594500  0.16518700  1
  C  457  1  0.50047800  0.89318700  0.12023600  1
  C  458  1  0.48560900  0.86187800  0.10966800  1
  C  459  1  0.53930300  0.86182500  0.10974100  1
  C  460  1  0.55561100  0.89291100  0.12057000  1
  C  461  1  0.55678300  0.84572100  0.10349000  1
  C  462  1  0.59038300  0.85961900  0.10830800  1
  C  463  1  0.60715600  0.88899400  0.12065900  1
  C  464  1  0.58969900  0.90589300  0.12594500  1
  C  465  1  0.47978900  0.90702700  0.12454600  1
  C  466  1  0.44601600  0.89110800  0.11793200  1
  C  467  1  0.43307500  0.86091100  0.10649200  1
  C  468  1  0.45214500  0.84590100  0.10314600  1
  C  481  1  0.53702900  0.91101100  0.12641500  1
  C  482  1  0.50391900  0.84476900  0.10403500  1
  C  485  1  0.57016500  0.97715500  0.14862500  1
  C  488  1  0.64029200  0.90169200  0.12648500  1
  C  489  1  0.51264900  0.86194800  0.20218200  1
  C  490  1  0.42569800  0.90435800  0.12262600  1
  C  494  1  0.57018500  0.97448400  0.05513900  1
  C  496  1  0.00010300  0.50071300  0.66111500  1
  C  497  1  0.02869100  0.51491300  0.62464900  1
  C  498  1  0.99773800  0.49931500  0.61365500  1
  C  499  1  0.99864500  0.49952500  0.59036200  1
  C  500  1  0.02870100  0.51430500  0.57808400  1
  C  501  1  0.05870800  0.52958200  0.58992100  1
  C  502  1  0.05869600  0.52988500  0.61276500  1
  C  503  1  0.00332200  0.50219000  0.68396200  1
  C  504  1  0.89989800  0.39821100  0.60349500  1
  C  505  1  0.90009700  0.50303600  0.60313100  1
  C  513  1  0.89894400  0.45012100  0.60404300  1
  C  516  1  0.03133100  0.51626300  0.64862800  1
  C  520  1  0.02869300  0.51358700  0.55514700  1
  C  522  1  0.67936400  0.48427500  0.65113800  1
  C  523  1  0.66365000  0.50031200  0.66111100  1
  C  524  1  0.64945200  0.51470600  0.62463700  1
  C  525  1  0.66505200  0.49935000  0.61365200  1
  C  526  1  0.66484300  0.50004100  0.59035700  1
  C  527  1  0.65006000  0.51530700  0.57806800  1
  C  528  1  0.63479200  0.53005100  0.58989800  1
  C  529  1  0.63449000  0.52974400  0.61274500  1
  C  530  1  0.66217600  0.50205500  0.68395900  1
  C  531  1  0.67615700  0.48815300  0.69729500  1
  C  532  1  0.69215200  0.47196600  0.68829100  1
  C  533  1  0.69354100  0.47022200  0.66518700  1
  C  534  1  0.66238100  0.44630500  0.62024000  1
  C  535  1  0.67882600  0.43143400  0.60968200  1
  C  536  1  0.73257000  0.48512800  0.60974900  1
  C  537  1  0.71779300  0.50143900  0.62057400  1
  C  538  1  0.76615400  0.50260500  0.60350100  1
  C  539  1  0.78585900  0.53620400  0.60831900  1
  C  540  1  0.77325600  0.55298000  0.62066600  1
  C  541  1  0.73889900  0.53552400  0.62595300  1
  C  542  1  0.62785100  0.42561500  0.62454900  1
  C  543  1  0.60999600  0.39184100  0.61793200  1
  C  544  1  0.62725700  0.37890000  0.60650000  1
  C  545  1  0.66133900  0.39796900  0.60315900  1
  C  558  1  0.68110900  0.48285700  0.62641600  1
  C  559  1  0.71424300  0.44974400  0.60404600  1
  C  562  1  0.64809900  0.51599300  0.64862000  1
  C  565  1  0.79369900  0.58611500  0.62649600  1
  C  566  1  0.70579400  0.45846900  0.70218100  1
  C  567  1  0.57643000  0.37152000  0.62263300  1
  C  571  1  0.65074800  0.51593500  0.55512700  1
  C  573  1  0.68010000  0.19602100  0.65113800  1
  C  574  1  0.66406300  0.16426800  0.66111300  1
  C  575  1  0.64967300  0.13568100  0.62464900  1
  C  576  1  0.66502600  0.16663300  0.61365700  1
  C  577  1  0.66433100  0.16571700  0.59036400  1
  C  578  1  0.64905800  0.13565400  0.57808900  1
  C  579  1  0.63432000  0.10565000  0.58992500  1
  C  580  1  0.63463600  0.10567300  0.61277000  1
  C  581  1  0.66231700  0.16104400  0.68396100  1
  C  582  1  0.67621700  0.18892300  0.69729700  1
  C  583  1  0.69240300  0.22110700  0.68829200  1
  C  584  1  0.69415100  0.22424700  0.66518900  1
  C  585  1  0.71806700  0.21700500  0.62023700  1
  C  586  1  0.73293600  0.24831100  0.60966700  1
  C  587  1  0.67924400  0.24836600  0.60974400  1
  C  588  1  0.66293400  0.21728300  0.62057400  1
  C  589  1  0.66176300  0.26446600  0.60348800  1
  C  590  1  0.62816300  0.25056800  0.60830400  1
  C  591  1  0.61138400  0.22119000  0.62065400  1
  C  592  1  0.62884700  0.20430000  0.62594800  1
  C  593  1  0.73875400  0.20315800  0.62454100  1
  C  594  1  0.77252600  0.21907400  0.61792300  1
  C  595  1  0.78547400  0.24928000  0.60649300  1
  C  596  1  0.76639600  0.26427700  0.60313100  1
  C  609  1  0.68151800  0.19918500  0.62641700  1
  C  610  1  0.71462800  0.26542300  0.60403600  1
  C  613  1  0.64838400  0.13304000  0.64862800  1
  C  616  1  0.57824800  0.20849700  0.62648300  1
  C  617  1  0.70589800  0.24824300  0.70218300  1
  C  618  1  0.79284200  0.20582600  0.62261900  1
  C  622  1  0.64840500  0.13567800  0.55515000  1
  C  624  1  0.56727300  0.31329700  0.90708800  1
  C  625  1  0.58987600  0.30960400  0.89376200  1
  C  626  1  0.59055900  0.27933100  0.89322300  1
  C  627  1  0.56751900  0.25339800  0.90720200  1
  C  631  1  0.61211200  0.27551300  0.87882700  1
  C  632  1  0.63673000  0.30174900  0.86509800  1
  C  639  1  0.90947100  0.59708900  0.90707100  1
  C  640  1  0.88317300  0.57447500  0.89375300  1
  C  641  1  0.85221500  0.57379200  0.89321800  1
  C  642  1  0.84932500  0.59683200  0.90719700  1
  C  646  1  0.82684500  0.55223900  0.87882200  1
  C  647  1  0.82846200  0.52762300  0.86509200  1
  C  653  1  0.85105900  0.25488100  0.90707600  1
  C  654  1  0.85474700  0.28117900  0.89375200  1
  C  655  1  0.88501900  0.31213800  0.89321500  1
  C  656  1  0.91093700  0.31506000  0.90722100  1
  C  660  1  0.88880800  0.33751900  0.87884400  1
  C  661  1  0.86260700  0.33589900  0.86508000  1
  C  666  1  0.65124500  0.79687200  0.40709200  1
  C  667  1  0.62866300  0.80058300  0.39375900  1
  C  668  1  0.62798100  0.83085600  0.39322600  1
  C  669  1  0.65097800  0.85677000  0.40723200  1
  C  673  1  0.60639100  0.83464900  0.37885400  1
  C  674  1  0.58180800  0.80844900  0.36509100  1
  C  681  1  0.30908700  0.51313600  0.40708900  1
  C  682  1  0.33536900  0.53569200  0.39373600  1
  C  683  1  0.36633600  0.53639900  0.39321600  1
  C  684  1  0.36923600  0.51338200  0.40721200  1
  C  688  1  0.39172300  0.55799700  0.37884900  1
  C  689  1  0.39010200  0.58257600  0.36508400  1
  C  696  1  0.36749100  0.85529800  0.40707200  1
  C  697  1  0.36378600  0.82901600  0.39373100  1
  C  698  1  0.33352200  0.79805200  0.39320600  1
  C  699  1  0.30760800  0.79514400  0.40720800  1
  C  703  1  0.32973800  0.77265600  0.37884900  1
  C  704  1  0.35593600  0.77428000  0.36507900  1
  C  711  1  0.30907500  0.79685700  0.12662800  1
  C  712  1  0.33537800  0.80057100  0.13995500  1
  C  713  1  0.36632900  0.83084700  0.14048600  1
  C  714  1  0.36921100  0.85676200  0.12649800  1
  C  718  1  0.39181700  0.83462900  0.15475300  1
  C  719  1  0.39010000  0.80846400  0.16861100  1
  C  726  1  0.36748800  0.51309800  0.12664100  1
  C  727  1  0.36379500  0.53571300  0.13995800  1
  C  728  1  0.33352300  0.53639900  0.14048800  1
  C  729  1  0.30760200  0.51336300  0.12650400  1
  C  733  1  0.32974200  0.55810000  0.15476100  1
  C  734  1  0.35590900  0.58255000  0.16861600  1
  C  741  1  0.65125500  0.85530100  0.12663300  1
  C  742  1  0.62865700  0.82900400  0.13996100  1
  C  743  1  0.62798100  0.79805100  0.14050200  1
  C  744  1  0.65102600  0.79516500  0.12652500  1
  C  748  1  0.60642800  0.77268000  0.15489800  1
  C  749  1  0.58180400  0.77429000  0.16862600  1
  C  756  1  0.90948100  0.31331100  0.62663600  1
  C  757  1  0.88318000  0.30961900  0.63995400  1
  C  758  1  0.85222600  0.27934200  0.64049200  1
  C  759  1  0.84934600  0.25341400  0.62651400  1
  C  763  1  0.82685200  0.27552300  0.65488500  1
  C  764  1  0.82846400  0.30175600  0.66861400  1
  C  770  1  0.85105700  0.59709100  0.62663600  1
  C  771  1  0.85475200  0.57448500  0.63995900  1
  C  772  1  0.88502500  0.57380400  0.64049400  1
  C  773  1  0.91093900  0.59680300  0.62648900  1
  C  777  1  0.88881800  0.55221000  0.65486400  1
  C  778  1  0.86261800  0.52762200  0.66862700  1
  C  783  1  0.56732400  0.25489500  0.62661800  1
  C  784  1  0.58989000  0.28118700  0.63996200  1
  C  785  1  0.59056600  0.31214000  0.64050000  1
  C  786  1  0.56756400  0.31504900  0.62649600  1
  C  790  1  0.61215700  0.33752400  0.65487200  1
  C  791  1  0.63674600  0.33591200  0.66863400  1
  C  798  1  0.70832800  0.45605900  0.79035200  1
  C  799  1  0.72294300  0.44142900  0.77807600  1
  C  800  1  0.72248000  0.44187900  0.75479700  1
  C  801  1  0.70678400  0.45757100  0.74452600  1
  C  805  1  0.73688000  0.42747300  0.74253400  1
  C  806  1  0.75256100  0.41182000  0.75276600  1
  C  813  1  0.88192900  0.44141100  0.77806900  1
  C  814  1  0.88284300  0.44187600  0.75479100  1
  C  816  1  0.85403800  0.42747600  0.74252600  1
  C  817  1  0.82270300  0.41179000  0.75275600  1
  C  823  1  0.70829300  0.25317400  0.79035400  1
  C  824  1  0.72292200  0.28241900  0.77807900  1
  C  825  1  0.72247600  0.28150900  0.75480100  1
  C  826  1  0.70678600  0.25012100  0.74452800  1
  C  830  1  0.73688600  0.31031700  0.74253900  1
  C  831  1  0.75253100  0.34164800  0.75277600  1
  C  838  1  0.51021900  0.65413000  0.29035100  1
  C  839  1  0.49560300  0.66876000  0.27807600  1
  C  840  1  0.49606500  0.66831000  0.25479800  1
  C  841  1  0.51176200  0.65261800  0.24452500  1
  C  845  1  0.48166600  0.68271800  0.24253400  1
  C  846  1  0.46598700  0.69837100  0.25276800  1
  C  853  1  0.30737200  0.65416300  0.29034400  1
  C  854  1  0.33661700  0.66877900  0.27806900  1
  C  855  1  0.33570300  0.66831400  0.25479100  1
  C  856  1  0.30431200  0.65261400  0.24452000  1
  C  860  1  0.36450900  0.68271200  0.24252600  1
  C  861  1  0.39584400  0.69839600  0.25275500  1
  C  868  1  0.51025500  0.85701600  0.29035200  1
  C  869  1  0.49562200  0.82776900  0.27807900  1
  C  870  1  0.49607100  0.82868000  0.25480100  1
  C  871  1  0.51176100  0.86006800  0.24452700  1
  C  875  1  0.48166300  0.79987100  0.24253900  1
  C  876  1  0.46601300  0.76854100  0.25277500  1
  C  883  1  0.59294900  0.56638500  0.03030700  1
  C  884  1  0.57403700  0.53329800  0.02306400  1
  C  885  1  0.58797200  0.51835000  0.00955800  1
  C  886  1  0.62168500  0.53897500  0.00297500  1
  C  890  1  0.56917700  0.48464800  0.00336700  1
  C  891  1  0.53462700  0.46276200  0.00918900  1
  C  898  1  0.13706600  0.57149300  0.03003000  1
  C  899  1  0.12277400  0.59036100  0.02293200  1
  C  900  1  0.09387400  0.57641700  0.00944700  1
  C  901  1  0.08079000  0.54270600  0.00285700  1
  C  905  1  0.07887800  0.59516800  0.00336100  1
  C  906  1  0.09155700  0.62972500  0.00917500  1
  C  913  1  0.59789600  0.02729900  0.03006100  1
  C  914  1  0.63105600  0.04160100  0.02296400  1
  C  915  1  0.64600800  0.07050000  0.00948300  1
  C  916  1  0.62538400  0.08360300  0.00293200  1
  C  920  1  0.67974300  0.08547100  0.00336900  1
  C  921  1  0.70161900  0.07279300  0.00918500  1
  C  928  1  0.62568400  0.54371800  0.53007500  1
  C  929  1  0.64454200  0.57688500  0.52299000  1
  C  930  1  0.63059600  0.59184400  0.50951200  1
  C  931  1  0.59686900  0.57122500  0.50295900  1
  C  935  1  0.64937000  0.62556900  0.50337700  1
  C  936  1  0.68392800  0.64744600  0.50918600  1
  C  943  1  0.08148200  0.53867900  0.53004100  1
  C  944  1  0.09578400  0.51981900  0.52294600  1
  C  945  1  0.12469100  0.53377300  0.50947100  1
  C  946  1  0.13779000  0.56749900  0.50291500  1
  C  950  1  0.13966100  0.51500700  0.50335400  1
  C  951  1  0.12698900  0.48045500  0.50917400  1
  C  958  1  0.62065100  0.08284900  0.53008000  1
  C  959  1  0.58750900  0.06859300  0.52295200  1
  C  960  1  0.57254700  0.03969400  0.50946900  1
  C  961  1  0.59316500  0.02658700  0.50291200  1
  C  965  1  0.53880900  0.02472300  0.50336500  1
  C  966  1  0.51693300  0.03739800  0.50918900  1
  N  39  1  0.94029800  0.60246700  0.90551900  1
  N  40  1  0.94236000  0.33988100  0.90789000  1
  N  41  1  0.94030100  0.33877300  0.62819000  1
  N  42  1  0.94236100  0.60340800  0.62581700  1
  N  43  1  0.94132800  0.47111800  0.75768600  1
  N  44  1  0.94005400  0.47047000  0.77907200  1
  N  59  1  0.91977800  0.46037700  0.72310700  1
  N  628  1  0.54702500  0.25932900  0.91980300  1
  N  629  1  0.54669500  0.28723400  0.91974500  1
  N  637  1  0.56189300  0.33874200  0.90552400  1
  N  638  1  0.56096800  0.22199000  0.90790100  1
  N  643  1  0.87575100  0.61732700  0.91979900  1
  N  644  1  0.90398900  0.61766200  0.91973800  1
  N  652  1  0.82447000  0.60338600  0.90789600  1
  N  657  1  0.90503200  0.28860400  0.91978300  1
  N  658  1  0.87713500  0.26036300  0.91971700  1
  N  665  1  0.82561100  0.22405800  0.90551500  1
  N  670  1  0.67153600  0.85086200  0.41978600  1
  N  671  1  0.67187200  0.82295900  0.41971900  1
  N  679  1  0.65666400  0.77145200  0.40552800  1
  N  680  1  0.65758300  0.88819400  0.40790400  1
  N  685  1  0.34278700  0.49284600  0.41978400  1
  N  686  1  0.31455300  0.49252000  0.41972400  1
  N  694  1  0.27824800  0.50771600  0.40552700  1
  N  695  1  0.39406900  0.50679600  0.40789700  1
  N  700  1  0.31352200  0.82158900  0.41978400  1
  N  701  1  0.34142500  0.84982700  0.41972200  1
  N  709  1  0.39293200  0.88613200  0.40552500  1
  N  710  1  0.27618900  0.77030900  0.40789200  1
  N  715  1  0.34275600  0.85085000  0.11393300  1
  N  716  1  0.31452700  0.82293900  0.11399800  1
  N  724  1  0.27824200  0.77142000  0.12818700  1
  N  725  1  0.39404400  0.88817700  0.12581000  1
  N  730  1  0.31351200  0.49282700  0.11393100  1
  N  731  1  0.34141700  0.49249800  0.11399600  1
  N  739  1  0.39295100  0.50774400  0.12820000  1
  N  740  1  0.27618900  0.50678400  0.12581800  1
  N  745  1  0.67151500  0.82158800  0.11392100  1
  N  746  1  0.67183600  0.84981900  0.11397700  1
  N  754  1  0.65661900  0.88612100  0.12819500  1
  N  755  1  0.65757900  0.77031400  0.12582600  1
  N  760  1  0.87577100  0.25935100  0.61390800  1
  N  761  1  0.90400500  0.28726000  0.61396800  1
  N  769  1  0.82449500  0.22200900  0.62581300  1
  N  774  1  0.90503000  0.61735100  0.61392600  1
  N  775  1  0.87713000  0.61768900  0.61399300  1
  N  782  1  0.82559700  0.60244900  0.62819900  1
  N  787  1  0.54701000  0.28858600  0.61394000  1
  N  788  1  0.54668700  0.26035500  0.61400200  1
  N  796  1  0.56191700  0.22406300  0.62819300  1
  N  797  1  0.56095900  0.33986700  0.62582400  1
  N  802  1  0.69323900  0.47112300  0.75769100  1
  N  803  1  0.69388600  0.47049700  0.77907700  1
  N  811  1  0.70893100  0.45551600  0.81196200  1
  N  812  1  0.70398300  0.46031400  0.72311000  1
  N  822  1  0.91002800  0.45542200  0.81195600  1
  N  827  1  0.69323300  0.22302300  0.75769100  1
  N  828  1  0.69385700  0.22429500  0.77907700  1
  N  836  1  0.70883300  0.25431600  0.81196400  1
  N  837  1  0.70404600  0.24458000  0.72311200  1
  N  842  1  0.52530800  0.63906800  0.25769000  1
  N  843  1  0.52466100  0.63969300  0.27907500  1
  N  851  1  0.50961600  0.65467000  0.31195900  1
  N  852  1  0.51456300  0.64987700  0.22310900  1
  N  857  1  0.27721700  0.63907100  0.25768500  1
  N  858  1  0.27849200  0.63972100  0.27907000  1
  N  866  1  0.30851500  0.65476500  0.31195500  1
  N  867  1  0.29876900  0.64981200  0.22310600  1
  N  872  1  0.52531200  0.88716300  0.25769000  1
  N  873  1  0.52469100  0.88589500  0.27907700  1
  N  881  1  0.50971400  0.85587200  0.31196300  1
  N  882  1  0.51450100  0.86560800  0.22311000  1
  N  887  1  0.63824300  0.57063800  0.01070400  1
  N  888  1  0.62484000  0.58360200  0.02329400  1
  N  896  1  0.57969600  0.58101200  0.04210800  1
  N  897  1  0.63897200  0.52820200  0.99154100  1
  N  902  1  0.09583200  0.52611400  0.01063400  1
  N  903  1  0.12220900  0.53950700  0.02320700  1
  N  911  1  0.16410200  0.58432200  0.04262500  1
  N  912  1  0.05261700  0.52533900  0.99156000  1
  N  917  1  0.59372200  0.06852000  0.01066200  1
  N  918  1  0.58074500  0.04213000  0.02322500  1
  N  926  1  0.58368900  0.00019500  0.04259200  1
  N  927  1  0.63615400  0.11165900  0.99150700  1
  N  932  1  0.58029500  0.53955600  0.51067400  1
  N  933  1  0.59370800  0.52656900  0.52322800  1
  N  941  1  0.63859100  0.52944400  0.54253800  1
  N  942  1  0.57960900  0.58198600  0.49149500  1
  N  947  1  0.12270800  0.58407500  0.51064800  1
  N  948  1  0.09632000  0.57066400  0.52321300  1
  N  956  1  0.05443200  0.52580900  0.54262600  1
  N  957  1  0.16585300  0.58478800  0.49149600  1
  N  962  1  0.62482700  0.04166300  0.51063800  1
  N  963  1  0.63780800  0.06804000  0.52321300  1
  N  971  1  0.63490500  0.11001300  0.54256100  1
  N  972  1  0.58238500  0.99850700  0.49151800  1
  O  56  1  0.91644200  0.36050600  0.87445900  1
  O  57  1  0.91645100  0.55684900  0.65924100  1
  O  636  1  0.60754000  0.24789800  0.87448200  1
  O  651  1  0.80380300  0.55681500  0.87447500  1
  O  678  1  0.61103900  0.86228300  0.37447000  1
  O  693  1  0.41469900  0.55333700  0.37445700  1
  O  708  1  0.30210300  0.74967800  0.37445700  1
  O  723  1  0.41463600  0.86228300  0.15929500  1
  O  738  1  0.30208900  0.55327100  0.15930000  1
  O  753  1  0.61099100  0.74962700  0.15923500  1
  O  768  1  0.80381000  0.24790400  0.65923000  1
  O  795  1  0.60751900  0.36051900  0.65924800  1
  O  810  1  0.73722700  0.42712200  0.72259700  1
  O  821  1  0.85334400  0.42712700  0.72258800  1
  O  835  1  0.73723100  0.31101700  0.72260100  1
  O  850  1  0.48132000  0.68306800  0.22259500  1
  O  865  1  0.36520200  0.68306300  0.22258700  1
  O  880  1  0.48131700  0.79917300  0.22260000  1
  O  895  1  0.58178800  0.47144800  0.99283400  1
  O  910  1  0.05307700  0.58256200  0.99281500  1
  O  925  1  0.69294100  0.11128100  0.99283200  1
  O  940  1  0.63676200  0.63876600  0.49283300  1
  O  955  1  0.16547300  0.52762200  0.49282000  1
  O  970  1  0.52560400  0.99890900  0.49283200  1
