# generated using pymatgen
data_H6C6N
_symmetry_space_group_name_H-M   'P 1'
_cell_length_a   9.92660000
_cell_length_b   67.45200000
_cell_length_c   67.45200000
_cell_angle_alpha   120.00000000
_cell_angle_beta   90.00000000
_cell_angle_gamma   90.00000000
_symmetry_Int_Tables_number   1
_chemical_formula_structural   H6C6N
_chemical_formula_sum   'H648 C648 N108'
_cell_volume   39112.97193667
_cell_formula_units_Z   108
loop_
 _symmetry_equiv_pos_site_id
 _symmetry_equiv_pos_as_xyz
  1  'x, y, z'
loop_
 _atom_site_type_symbol
 _atom_site_label
 _atom_site_symmetry_multiplicity
 _atom_site_fract_x
 _atom_site_fract_y
 _atom_site_fract_z
 _atom_site_occupancy
  C  1  1  0.99479700  0.82623600  0.24646800  1
  C  3  1  0.98995600  0.86099800  0.28176200  1
  C  5  1  0.99432400  0.86150300  0.24686000  1
  C  7  1  0.99500300  0.41101700  0.16641500  1
  C  9  1  0.99010500  0.41151500  0.13163500  1
  C  11  1  0.99451900  0.37612500  0.13116600  1
  C  13  1  0.99482900  0.74612600  0.58157000  1
  C  15  1  0.99000300  0.71084700  0.58106800  1
  C  17  1  0.99434300  0.74576600  0.61646200  1
  C  19  1  0.99484200  0.16265800  0.74984700  1
  C  21  1  0.98993300  0.12789800  0.71454900  1
  C  23  1  0.99418300  0.12738700  0.74945000  1
  C  25  1  0.99479200  0.57791900  0.82993600  1
  C  27  1  0.98994900  0.57738500  0.86469800  1
  C  29  1  0.99432400  0.61279500  0.86520400  1
  C  31  1  0.99503800  0.24275300  0.41470300  1
  C  33  1  0.99001300  0.27803200  0.41520200  1
  C  35  1  0.99455600  0.24311300  0.37981100  1
  C  37  1  0.98814100  0.57701900  0.74979400  1
  C  39  1  0.97831700  0.57712000  0.71481400  1
  C  41  1  0.98803900  0.61221100  0.74998400  1
  C  43  1  0.98814900  0.24278100  0.82910700  1
  C  45  1  0.97861500  0.27777300  0.86417900  1
  C  47  1  0.98811000  0.24260700  0.86411500  1
  C  49  1  0.98826000  0.16351700  0.41554900  1
  C  51  1  0.97813500  0.12844700  0.41546900  1
  C  53  1  0.98830500  0.12850400  0.38036700  1
  C  55  1  0.98815500  0.41189100  0.24648300  1
  C  57  1  0.97819600  0.41178000  0.28145900  1
  C  59  1  0.98809400  0.37669400  0.24628500  1
  C  61  1  0.98814500  0.74609600  0.16722700  1
  C  63  1  0.97831200  0.71111400  0.13214500  1
  C  65  1  0.98804400  0.74628500  0.13222400  1
  C  67  1  0.98806900  0.82540200  0.58077100  1
  C  69  1  0.97873500  0.86047300  0.58084800  1
  C  71  1  0.98805900  0.86041100  0.61595100  1
  C  73  1  0.98953700  0.86153500  0.16676100  1
  C  75  1  0.98673400  0.86139700  0.13150300  1
  C  77  1  0.98688900  0.82630800  0.13172900  1
  C  79  1  0.98968800  0.29597300  0.13101000  1
  C  81  1  0.98647800  0.26087200  0.13118400  1
  C  83  1  0.98703100  0.29620200  0.16625400  1
  C  85  1  0.98935500  0.82581700  0.69663400  1
  C  87  1  0.98643600  0.86109200  0.73173500  1
  C  89  1  0.98696600  0.86083100  0.69640400  1
  C  91  1  0.98946900  0.12737800  0.82952100  1
  C  93  1  0.98648700  0.12752200  0.86478100  1
  C  95  1  0.98726300  0.16260700  0.86455000  1
  C  97  1  0.98953700  0.69292700  0.86523500  1
  C  99  1  0.98673500  0.72804400  0.86509500  1
  C  101  1  0.98688900  0.69273100  0.83000800  1
  C  103  1  0.98972800  0.16310500  0.29968900  1
  C  105  1  0.98642600  0.12783900  0.26458000  1
  C  107  1  0.98710200  0.12808100  0.29990300  1
  C  109  1  0.98686500  0.91495500  0.41709400  1
  C  111  1  0.98770500  0.90881100  0.37922700  1
  C  113  1  0.98640200  0.94643100  0.41081900  1
  C  115  1  0.98681900  0.49287900  0.07766600  1
  C  117  1  0.98772600  0.46115300  0.08380700  1
  C  119  1  0.98646200  0.45512900  0.04618800  1
  C  121  1  0.98681100  0.57551200  0.49971100  1
  C  123  1  0.98768700  0.61337900  0.53143200  1
  C  125  1  0.98639700  0.58178900  0.53746300  1
  C  127  1  0.98677000  0.07396400  0.57921700  1
  C  129  1  0.98765700  0.08010000  0.61708100  1
  C  131  1  0.98639800  0.04248500  0.58548500  1
  C  133  1  0.98683000  0.49600400  0.91864600  1
  C  135  1  0.98768100  0.52772700  0.91250400  1
  C  137  1  0.98638700  0.53375400  0.95012200  1
  C  139  1  0.98682000  0.41336600  0.49656300  1
  C  141  1  0.98767600  0.37549800  0.46484200  1
  C  143  1  0.98641300  0.40708800  0.45881200  1
  C  145  1  0.98571700  0.49589500  0.57951500  1
  C  147  1  0.98308200  0.52769300  0.61734500  1
  C  149  1  0.98544100  0.53360400  0.58568700  1
  C  151  1  0.98583300  0.41306600  0.91823100  1
  C  153  1  0.98325200  0.37524100  0.91221100  1
  C  155  1  0.98557200  0.40690900  0.94977700  1
  C  157  1  0.98551000  0.07438600  0.49670100  1
  C  159  1  0.98288200  0.08041200  0.46490000  1
  C  161  1  0.98533900  0.04284400  0.45899600  1
  C  163  1  0.98559100  0.49297600  0.41675500  1
  C  165  1  0.98297200  0.46118200  0.37892500  1
  C  167  1  0.98541000  0.45526800  0.41058400  1
  C  169  1  0.98568700  0.57581700  0.07807400  1
  C  171  1  0.98306700  0.61364500  0.08410400  1
  C  173  1  0.98543400  0.58198400  0.04653300  1
  C  175  1  0.98589300  0.91452700  0.49961000  1
  C  177  1  0.98333900  0.90850700  0.53141400  1
  C  179  1  0.98560100  0.94607300  0.53731400  1
  C  181  1  0.98975500  0.91028800  0.04718500  1
  C  183  1  0.98915400  0.91030000  0.08241800  1
  C  185  1  0.98958700  0.94551900  0.08241400  1
  C  187  1  0.98962400  0.12766400  0.08232600  1
  C  189  1  0.98896200  0.16288400  0.08231000  1
  C  191  1  0.98948200  0.12765900  0.04709400  1
  C  193  1  0.98966700  0.94543400  0.86494400  1
  C  195  1  0.98899900  0.91019900  0.82972300  1
  C  197  1  0.98954100  0.91020700  0.86494900  1
  C  199  1  0.98963400  0.07864400  0.94911500  1
  C  201  1  0.98896900  0.07863000  0.91388100  1
  C  203  1  0.98949900  0.04341300  0.91388800  1
  C  205  1  0.98975100  0.86125400  0.91397400  1
  C  207  1  0.98916400  0.82603400  0.91399000  1
  C  209  1  0.98962100  0.86125900  0.94920600  1
  C  211  1  0.98962100  0.04349700  0.13137000  1
  C  213  1  0.98892200  0.07873400  0.16659100  1
  C  215  1  0.98946000  0.07872300  0.13136300  1
  C  217  1  0.98925900  0.87211200  0.19089600  1
  C  218  1  0.11418400  0.87369000  0.20209500  1
  C  219  1  0.11564900  0.87329600  0.22310900  1
  C  220  1  0.99189100  0.87189600  0.23312400  1
  C  221  1  0.86661200  0.87218800  0.22289300  1
  C  222  1  0.86540800  0.87216400  0.20168600  1
  C  223  1  0.24450500  0.87355200  0.23499800  1
  C  227  1  0.24429300  0.87480700  0.19135200  1
  C  231  1  0.73554700  0.87164500  0.23380500  1
  C  235  1  0.73299100  0.87153300  0.19053800  1
  C  239  1  0.98951600  0.30949600  0.12038500  1
  C  240  1  0.11456700  0.31915400  0.11894300  1
  C  241  1  0.11598600  0.34059600  0.11940800  1
  C  242  1  0.99217900  0.35199800  0.12078500  1
  C  243  1  0.86685900  0.34144800  0.12043100  1
  C  244  1  0.86558500  0.32022600  0.12037800  1
  C  245  1  0.24486300  0.35227000  0.11924200  1
  C  249  1  0.24462600  0.30727800  0.11781600  1
  C  253  1  0.73578200  0.35290700  0.12099400  1
  C  257  1  0.73319300  0.30965700  0.12092400  1
  C  261  1  0.98907300  0.80167500  0.68310200  1
  C  262  1  0.11420900  0.79061500  0.67339000  1
  C  263  1  0.11567500  0.76963400  0.65194800  1
  C  264  1  0.99184400  0.75952700  0.64058300  1
  C  265  1  0.86663300  0.76964700  0.65122700  1
  C  266  1  0.86530800  0.79082200  0.67243800  1
  C  267  1  0.24465100  0.75784600  0.64025400  1
  C  271  1  0.24432400  0.80139700  0.68522800  1
  C  275  1  0.73561600  0.75868200  0.63981200  1
  C  279  1  0.73292100  0.80189500  0.68304200  1
  C  283  1  0.98917400  0.11678000  0.80538100  1
  C  284  1  0.11431600  0.11542300  0.79431000  1
  C  285  1  0.11576500  0.11581300  0.77329300  1
  C  286  1  0.99180000  0.11698000  0.76317700  1
  C  287  1  0.86654800  0.11652800  0.77331300  1
  C  288  1  0.86533900  0.11656300  0.79452400  1
  C  289  1  0.24467200  0.11568900  0.76147400  1
  C  293  1  0.24449500  0.11443500  0.80511700  1
  C  297  1  0.73553300  0.11692300  0.76231900  1
  C  301  1  0.73296700  0.11707400  0.80562200  1
  C  305  1  0.98925900  0.67936800  0.87581200  1
  C  306  1  0.11418400  0.66974600  0.87738900  1
  C  307  1  0.11564800  0.64833800  0.87699600  1
  C  308  1  0.99189100  0.63692300  0.87559600  1
  C  309  1  0.86661200  0.64744500  0.87588800  1
  C  310  1  0.86540800  0.66863000  0.87586400  1
  C  311  1  0.24450500  0.63670600  0.87725200  1
  C  315  1  0.24429300  0.68160700  0.87850600  1
  C  319  1  0.73554700  0.63599300  0.87534500  1
  C  323  1  0.73299200  0.67914700  0.87523300  1
  C  327  1  0.98961800  0.18725400  0.31322400  1
  C  328  1  0.11468200  0.19834200  0.32289900  1
  C  329  1  0.11608700  0.21933500  0.34432900  1
  C  330  1  0.99217600  0.22937300  0.35567700  1
  C  331  1  0.86686000  0.21918300  0.34513800  1
  C  332  1  0.86565100  0.19800300  0.32392700  1
  C  333  1  0.24495200  0.23118100  0.35600500  1
  C  337  1  0.24477400  0.18757300  0.31105300  1
  C  341  1  0.73579700  0.23009600  0.35658500  1
  C  345  1  0.73326800  0.18689100  0.31335300  1
  C  349  1  0.99225900  0.67899200  0.80589500  1
  C  350  1  0.86876400  0.66972900  0.79391000  1
  C  351  1  0.86884900  0.64823900  0.77294100  1
  C  352  1  0.99278700  0.63630600  0.76393400  1
  C  353  1  0.11696800  0.64646600  0.77500500  1
  C  354  1  0.11666000  0.66780800  0.79601100  1
  C  355  1  0.74100600  0.63690200  0.76036900  1
  C  359  1  0.73827500  0.68197500  0.80377800  1
  C  363  1  0.24844800  0.63460300  0.76491700  1
  C  367  1  0.24782500  0.67812500  0.80786600  1
  C  371  1  0.99231400  0.18672700  0.87494600  1
  C  372  1  0.86869800  0.19865900  0.87760600  1
  C  373  1  0.86873900  0.21964700  0.87712000  1
  C  374  1  0.99281700  0.22867900  0.87429400  1
  C  375  1  0.11709000  0.21762400  0.87335000  1
  C  376  1  0.11679200  0.19660200  0.87365600  1
  C  377  1  0.74088300  0.23220200  0.87832400  1
  C  381  1  0.73819500  0.18873700  0.87989300  1
  C  385  1  0.24854000  0.22774200  0.87161100  1
  C  389  1  0.24800600  0.18476600  0.87213800  1
  C  393  1  0.99236100  0.11770100  0.31363700  1
  C  394  1  0.86915100  0.11476100  0.32280300  1
  C  395  1  0.86930700  0.11521900  0.34426200  1
  C  396  1  0.99310300  0.11833800  0.35626600  1
  C  397  1  0.11725500  0.11949000  0.34622700  1
  C  398  1  0.11684300  0.11918500  0.32489900  1
  C  399  1  0.74163500  0.11381100  0.35553100  1
  C  403  1  0.73871800  0.11231100  0.31052700  1
  C  407  1  0.24874100  0.12139200  0.35814400  1
  C  411  1  0.24798700  0.12086400  0.31465500  1
  C  415  1  0.99213900  0.30994800  0.19036900  1
  C  416  1  0.86887400  0.31913900  0.20244400  1
  C  417  1  0.86899500  0.34060600  0.22343400  1
  C  418  1  0.99280800  0.35259300  0.23234100  1
  C  419  1  0.11699500  0.34253700  0.22118300  1
  C  420  1  0.11661700  0.32119900  0.20016800  1
  C  421  1  0.74128300  0.35189400  0.23608300  1
  C  425  1  0.73844600  0.30687000  0.19259900  1
  C  429  1  0.24848500  0.35444000  0.23121100  1
  C  433  1  0.24780300  0.31093100  0.18827400  1
  C  437  1  0.99226300  0.80219600  0.12135500  1
  C  438  1  0.86876500  0.79021200  0.11863200  1
  C  439  1  0.86885400  0.76924000  0.11915300  1
  C  440  1  0.99279100  0.76023500  0.12208000  1
  C  441  1  0.11696900  0.77130600  0.12299100  1
  C  442  1  0.11666100  0.79231200  0.12265400  1
  C  443  1  0.74101000  0.75666900  0.11791800  1
  C  447  1  0.73827700  0.80007700  0.11625400  1
  C  451  1  0.24844900  0.76121800  0.12476600  1
  C  455  1  0.24782500  0.80416600  0.12419300  1
  C  459  1  0.99219300  0.87119100  0.68265200  1
  C  460  1  0.86862300  0.87388400  0.67338200  1
  C  461  1  0.86865300  0.87340900  0.65191300  1
  C  462  1  0.99272600  0.87059400  0.64005900  1
  C  463  1  0.11697900  0.86965800  0.65017500  1
  C  464  1  0.11662700  0.86993800  0.67149100  1
  C  465  1  0.74080800  0.87462000  0.64056200  1
  C  469  1  0.73808400  0.87617700  0.68558500  1
  C  473  1  0.24844400  0.86794600  0.63833200  1
  C  477  1  0.24782000  0.86839800  0.68179800  1
  C  481  1  0.99514900  0.75942500  0.19128900  1
  C  482  1  0.87245000  0.76873000  0.20348000  1
  C  483  1  0.87378500  0.79036600  0.22421600  1
  C  484  1  0.99839300  0.80220100  0.23269000  1
  C  485  1  0.12218700  0.79195800  0.22154700  1
  C  486  1  0.12041900  0.77049500  0.20074100  1
  C  487  1  0.74678600  0.80195800  0.23693800  1
  C  491  1  0.74148300  0.75651200  0.19395700  1
  C  495  1  0.25433100  0.80381100  0.23118500  1
  C  499  1  0.25061400  0.75987600  0.18867800  1
  C  503  1  0.99531000  0.42264800  0.23317300  1
  C  504  1  0.87245000  0.42546700  0.22385600  1
  C  505  1  0.87377500  0.42457300  0.20222200  1
  C  506  1  0.99854400  0.42132200  0.19046300  1
  C  507  1  0.12240300  0.42038800  0.20066400  1
  C  508  1  0.12061100  0.42102100  0.22211500  1
  C  509  1  0.74676900  0.42566600  0.19061000  1
  C  513  1  0.74146900  0.42814700  0.23606800  1
  C  517  1  0.25454400  0.41820400  0.18882300  1
  C  521  1  0.25077100  0.41956600  0.23273500  1
  C  525  1  0.99520000  0.80134300  0.57004600  1
  C  526  1  0.87217800  0.78926800  0.56735100  1
  C  527  1  0.87345800  0.76851400  0.56822300  1
  C  528  1  0.99834300  0.75988800  0.57129200  1
  C  529  1  0.12218700  0.77092800  0.57203200  1
  C  530  1  0.12043000  0.79177100  0.57144700  1
  C  531  1  0.74633400  0.75587200  0.56722900  1
  C  535  1  0.74109600  0.79886100  0.56479100  1
  C  539  1  0.25433300  0.76117300  0.57405000  1
  C  543  1  0.25062600  0.80380000  0.57282700  1
  C  547  1  0.99541700  0.22944700  0.80505000  1
  C  548  1  0.87242000  0.22011700  0.79294500  1
  C  549  1  0.87358800  0.19847600  0.77221100  1
  C  550  1  0.99823800  0.18669100  0.76362500  1
  C  551  1  0.12216400  0.19696900  0.77467900  1
  C  552  1  0.12054500  0.21841200  0.79550200  1
  C  553  1  0.74645500  0.18684500  0.75956600  1
  C  557  1  0.74144400  0.23232600  0.80249800  1
  C  561  1  0.25429300  0.18516700  0.76494800  1
  C  565  1  0.25076100  0.22903500  0.80754600  1
  C  569  1  0.99514100  0.56628800  0.76312600  1
  C  570  1  0.87243900  0.56340200  0.77243000  1
  C  571  1  0.87378000  0.56430300  0.79406700  1
  C  572  1  0.99838900  0.56766200  0.80590200  1
  C  573  1  0.12218100  0.56856200  0.79565900  1
  C  574  1  0.12040900  0.56790400  0.77419500  1
  C  575  1  0.74677800  0.56317200  0.80565900  1
  C  579  1  0.74147400  0.56070800  0.76021300  1
  C  583  1  0.25432300  0.57077700  0.80751000  1
  C  587  1  0.25060600  0.56934700  0.76357400  1
  C  591  1  0.99531200  0.18757800  0.42627000  1
  C  592  1  0.87260100  0.19977800  0.42917200  1
  C  593  1  0.87394100  0.22053600  0.42831100  1
  C  594  1  0.99866500  0.22901600  0.42501300  1
  C  595  1  0.12247500  0.21785500  0.42403600  1
  C  596  1  0.12062000  0.19702600  0.42464900  1
  C  597  1  0.74697900  0.23327900  0.42946800  1
  C  601  1  0.74160500  0.19024900  0.43184700  1
  C  605  1  0.25461300  0.22750600  0.42184100  1
  C  609  1  0.25079700  0.18494300  0.42316900  1
  C  613  1  0.98823000  0.89457300  0.35493700  1
  C  614  1  0.11337700  0.88910700  0.34285400  1
  C  615  1  0.11352000  0.87810600  0.31836900  1
  C  616  1  0.98863200  0.87253900  0.30620700  1
  C  617  1  0.86363600  0.87761100  0.31824500  1
  C  618  1  0.86345400  0.88881600  0.34274300  1
  C  619  1  0.24202300  0.87227600  0.30469600  1
  C  623  1  0.24501300  0.89470900  0.35555400  1
  C  627  1  0.73150500  0.87162900  0.30558500  1
  C  631  1  0.73089000  0.89445200  0.35526600  1
  C  635  1  0.98828000  0.45110000  0.09804400  1
  C  636  1  0.11344300  0.44448300  0.10350600  1
  C  637  1  0.11361900  0.43100200  0.11451000  1
  C  638  1  0.98874900  0.42440600  0.12008200  1
  C  639  1  0.86373600  0.43136900  0.11501000  1
  C  640  1  0.86352000  0.44465900  0.10380200  1
  C  641  1  0.24213800  0.42316200  0.12033600  1
  C  645  1  0.24505900  0.45158500  0.09790200  1
  C  649  1  0.73162100  0.42469300  0.12099900  1
  C  653  1  0.73094000  0.45154200  0.09816700  1
  C  657  1  0.98827200  0.63766900  0.54148600  1
  C  658  1  0.11340700  0.64975600  0.54810000  1
  C  659  1  0.11355900  0.67424000  0.56158000  1
  C  660  1  0.98867500  0.68640300  0.56817800  1
  C  661  1  0.86367600  0.67436400  0.56121600  1
  C  662  1  0.86349500  0.64986600  0.54792800  1
  C  663  1  0.24206700  0.68791100  0.56942200  1
  C  667  1  0.24502900  0.63705300  0.54099900  1
  C  671  1  0.73155000  0.68702500  0.56789600  1
  C  675  1  0.73091600  0.63734600  0.54104700  1
  C  679  1  0.98823400  0.09433100  0.64137100  1
  C  680  1  0.11335900  0.09980400  0.65346000  1
  C  681  1  0.11350400  0.11080100  0.67794300  1
  C  682  1  0.98861400  0.11636000  0.69010300  1
  C  683  1  0.86362100  0.11128500  0.67806400  1
  C  684  1  0.86344900  0.10008300  0.65356800  1
  C  685  1  0.24200700  0.11662700  0.69161500  1
  C  689  1  0.24498900  0.09420800  0.64075800  1
  C  693  1  0.73149000  0.11726300  0.69072600  1
  C  697  1  0.73087700  0.09444500  0.64104600  1
  C  701  1  0.98820900  0.53778100  0.89826600  1
  C  702  1  0.11335900  0.54440000  0.89280300  1
  C  703  1  0.11350800  0.55788500  0.88180400  1
  C  704  1  0.98862300  0.56448300  0.87624000  1
  C  705  1  0.86362400  0.55751400  0.88130700  1
  C  706  1  0.86343400  0.54422000  0.89251200  1
  C  707  1  0.24201300  0.56573000  0.87597700  1
  C  711  1  0.24499300  0.53730000  0.89840500  1
  C  715  1  0.73149600  0.56419300  0.87532600  1
  C  719  1  0.73087200  0.53733200  0.89814400  1
  C  723  1  0.98822000  0.35120800  0.45479100  1
  C  724  1  0.11337700  0.33912800  0.44817200  1
  C  725  1  0.11353900  0.31464400  0.43468900  1
  C  726  1  0.98866400  0.30247600  0.42809300  1
  C  727  1  0.86365600  0.31451200  0.43505800  1
  C  728  1  0.86345400  0.33901000  0.44835000  1
  C  729  1  0.24205600  0.30097400  0.42684500  1
  C  733  1  0.24500300  0.35183200  0.45527200  1
  C  737  1  0.73154100  0.30184900  0.42838300  1
  C  741  1  0.73088100  0.35153000  0.45523700  1
  C  745  1  0.98160200  0.53780500  0.64163700  1
  C  746  1  0.85616100  0.54449400  0.65363100  1
  C  747  1  0.85532000  0.55792000  0.67811800  1
  C  748  1  0.97982400  0.56448300  0.69036500  1
  C  749  1  0.10519700  0.55759200  0.67841100  1
  C  750  1  0.10606800  0.54423900  0.65392100  1
  C  751  1  0.72665500  0.56577400  0.69172700  1
  C  755  1  0.72484600  0.53750400  0.64084100  1
  C  759  1  0.23716500  0.56440100  0.69112600  1
  C  763  1  0.23898100  0.53728900  0.64150200  1
  C  767  1  0.98180300  0.35094900  0.89803700  1
  C  768  1  0.85637700  0.33895000  0.89273100  1
  C  769  1  0.85556800  0.31446200  0.88167100  1
  C  770  1  0.98009100  0.30222100  0.87598800  1
  C  771  1  0.10544400  0.31417900  0.88104900  1
  C  772  1  0.10628400  0.33867000  0.89218800  1
  C  773  1  0.72692100  0.30085000  0.87591800  1
  C  777  1  0.72504300  0.35173600  0.89853100  1
  C  781  1  0.23742900  0.30146800  0.87514100  1
  C  785  1  0.23918100  0.35109300  0.89765500  1
  C  789  1  0.98144900  0.09459200  0.45478600  1
  C  790  1  0.85597900  0.09988800  0.44809600  1
  C  791  1  0.85513300  0.11094900  0.43466800  1
  C  792  1  0.97963200  0.11664000  0.42810900  1
  C  793  1  0.10501100  0.11157900  0.43500200  1
  C  794  1  0.10590200  0.10044100  0.44835400  1
  C  795  1  0.72646900  0.11670600  0.42681600  1
  C  799  1  0.72466400  0.09408500  0.45508200  1
  C  803  1  0.23698100  0.11748800  0.42819500  1
  C  807  1  0.23881000  0.09497600  0.45530900  1
  C  811  1  0.98153200  0.45107300  0.35463300  1
  C  812  1  0.85606500  0.44438400  0.34264600  1
  C  813  1  0.85520900  0.43096500  0.31815800  1
  C  814  1  0.97970300  0.42440800  0.30590700  1
  C  815  1  0.10508700  0.43129500  0.31786000  1
  C  816  1  0.10598400  0.44464400  0.34235000  1
  C  817  1  0.72654000  0.42311300  0.30455100  1
  C  821  1  0.72474600  0.45136900  0.35543800  1
  C  825  1  0.23705000  0.42449000  0.30514200  1
  C  829  1  0.23889800  0.45159500  0.35476800  1
  C  833  1  0.98159000  0.63793800  0.09828300  1
  C  834  1  0.85615000  0.64993200  0.10358700  1
  C  835  1  0.85531000  0.67441900  0.11464900  1
  C  836  1  0.97981800  0.68666600  0.12033300  1
  C  837  1  0.10518600  0.67471000  0.11526900  1
  C  838  1  0.10605400  0.65022000  0.10413100  1
  C  839  1  0.72665000  0.68802800  0.12040400  1
  C  843  1  0.72482800  0.63714200  0.09778600  1
  C  847  1  0.23715600  0.68742600  0.12117500  1
  C  851  1  0.23896900  0.63780100  0.09866400  1
  C  855  1  0.98190300  0.89433100  0.54153100  1
  C  856  1  0.85648200  0.88902300  0.54822200  1
  C  857  1  0.85568200  0.87796400  0.56165000  1
  C  858  1  0.98021100  0.87228200  0.56821000  1
  C  859  1  0.10556100  0.87734600  0.56131300  1
  C  860  1  0.10638700  0.88848400  0.54796000  1
  C  861  1  0.72703300  0.87220500  0.56950500  1
  C  865  1  0.72514000  0.89482000  0.54123500  1
  C  869  1  0.23754500  0.87144100  0.56811800  1
  C  873  1  0.23928200  0.89395600  0.54100700  1
  C  877  1  0.98856200  0.89805600  0.09466100  1
  C  878  1  0.86349600  0.89199600  0.10075400  1
  C  879  1  0.86330400  0.87974400  0.11305300  1
  C  880  1  0.98794900  0.87359700  0.11916200  1
  C  881  1  0.11286400  0.87964400  0.11306600  1
  C  882  1  0.11318600  0.89191600  0.10078500  1
  C  883  1  0.73483500  0.87294000  0.11996800  1
  C  887  1  0.73171200  0.89833500  0.09440700  1
  C  891  1  0.24502900  0.87329800  0.11937800  1
  C  895  1  0.24593200  0.89815400  0.09452400  1
  C  899  1  0.98834600  0.18737000  0.09455300  1
  C  900  1  0.86327400  0.19951900  0.10061100  1
  C  901  1  0.86306100  0.22407200  0.11285700  1
  C  902  1  0.98769600  0.23633000  0.11900000  1
  C  903  1  0.11262300  0.22418900  0.11295400  1
  C  904  1  0.11296000  0.19963600  0.10068700  1
  C  905  1  0.73458400  0.23778900  0.11966000  1
  C  909  1  0.73149700  0.18683200  0.09427700  1
  C  913  1  0.24478100  0.23684900  0.11929700  1
  C  917  1  0.24571800  0.18713900  0.09445000  1
  C  921  1  0.98836700  0.89795600  0.80523800  1
  C  922  1  0.86328400  0.89186800  0.79309000  1
  C  923  1  0.86305300  0.87956500  0.76853700  1
  C  924  1  0.98767600  0.87344900  0.75627700  1
  C  925  1  0.11261200  0.87954000  0.76841400  1
  C  926  1  0.11297400  0.89182400  0.79296700  1
  C  927  1  0.73456700  0.87266000  0.75482400  1
  C  931  1  0.73152000  0.89821900  0.80578000  1
  C  935  1  0.24476100  0.87322000  0.75575200  1
  C  939  1  0.24573900  0.89808300  0.80546100  1
  C  943  1  0.98835100  0.09087200  0.90163600  1
  C  944  1  0.86328200  0.09692800  0.89554100  1
  C  945  1  0.86307000  0.10917800  0.88323900  1
  C  946  1  0.98770100  0.11532400  0.87712700  1
  C  947  1  0.11262700  0.10928100  0.88322400  1
  C  948  1  0.11296600  0.09701300  0.89551000  1
  C  949  1  0.73459300  0.11598200  0.87632600  1
  C  953  1  0.73150600  0.09058800  0.90189000  1
  C  957  1  0.24478300  0.11562500  0.87690900  1
  C  961  1  0.24572400  0.09077900  0.90177300  1
  C  965  1  0.98856800  0.80154800  0.90174800  1
  C  966  1  0.86350500  0.78939500  0.89569000  1
  C  967  1  0.86331200  0.76484300  0.88344100  1
  C  968  1  0.98795700  0.75258600  0.87729400  1
  C  969  1  0.11287300  0.76473000  0.88334100  1
  C  970  1  0.11319500  0.78928400  0.89561000  1
  C  971  1  0.73484100  0.75112400  0.87663900  1
  C  975  1  0.73172200  0.80208000  0.90202800  1
  C  979  1  0.24503400  0.75207200  0.87699500  1
  C  983  1  0.24594100  0.80178100  0.90184300  1
  C  987  1  0.98830000  0.09097900  0.19107700  1
  C  988  1  0.86322800  0.09706800  0.20322500  1
  C  989  1  0.86301100  0.10937300  0.22777800  1
  C  990  1  0.98764100  0.11548800  0.24003800  1
  C  991  1  0.11257200  0.10939400  0.22789800  1
  C  992  1  0.11291400  0.09710800  0.20334300  1
  C  993  1  0.73453700  0.11628800  0.24149500  1
  C  997  1  0.73145400  0.09071700  0.19053800  1
  C  1001  1  0.24472700  0.11570900  0.24055700  1
  C  1005  1  0.24567300  0.09084900  0.19084800  1
  C  1009  1  0.98548500  0.90732000  0.47579400  1
  C  1010  1  0.11025500  0.90609200  0.46467500  1
  C  1011  1  0.11036600  0.90656200  0.44367800  1
  C  1012  1  0.98567000  0.90792600  0.43385800  1
  C  1013  1  0.86076500  0.90738400  0.44406500  1
  C  1014  1  0.86068900  0.90714300  0.46517000  1
  C  1015  1  0.23857700  0.90656500  0.43175600  1
  C  1019  1  0.24145800  0.90520100  0.47529000  1
  C  1023  1  0.72886600  0.90793900  0.43335900  1
  C  1027  1  0.72856500  0.90750500  0.47628700  1
  C  1031  1  0.98535500  0.55920200  0.08527100  1
  C  1032  1  0.11009500  0.54930500  0.08650500  1
  C  1033  1  0.11022300  0.52784300  0.08604800  1
  C  1034  1  0.98547900  0.51667700  0.08470300  1
  C  1035  1  0.86060400  0.52741700  0.08523100  1
  C  1036  1  0.86055700  0.54875700  0.08546200  1
  C  1037  1  0.23845000  0.51592800  0.08605800  1
  C  1041  1  0.24129200  0.56080500  0.08738300  1
  C  1045  1  0.72872500  0.51615500  0.08467900  1
  C  1049  1  0.72842300  0.55951600  0.08510900  1
  C  1053  1  0.98512300  0.51678800  0.43337200  1
  C  1054  1  0.10994800  0.52789500  0.44326900  1
  C  1055  1  0.11012900  0.54889300  0.46473800  1
  C  1056  1  0.98545000  0.55874400  0.47592100  1
  C  1057  1  0.86056800  0.54855900  0.46515400  1
  C  1058  1  0.86042200  0.52745400  0.44381200  1
  C  1059  1  0.23840400  0.56079700  0.47665400  1
  C  1063  1  0.24113600  0.51727000  0.43176200  1
  C  1067  1  0.72871600  0.55929400  0.47640900  1
  C  1071  1  0.72828200  0.51635400  0.43305300  1
  C  1075  1  0.98509200  0.08159200  0.52051900  1
  C  1076  1  0.10993200  0.08279400  0.53161600  1
  C  1077  1  0.11012300  0.08232700  0.55261600  1
  C  1078  1  0.98540000  0.08100400  0.56245800  1
  C  1079  1  0.86048100  0.08155400  0.55226800  1
  C  1080  1  0.86034700  0.08179400  0.53116400  1
  C  1081  1  0.23838600  0.08231300  0.56452000  1
  C  1085  1  0.24111500  0.08366800  0.52098400  1
  C  1089  1  0.72864000  0.08102200  0.56299800  1
  C  1093  1  0.72820300  0.08144200  0.52005800  1
  C  1097  1  0.98543000  0.42967200  0.91102000  1
  C  1098  1  0.11020600  0.43956200  0.90979100  1
  C  1099  1  0.11032500  0.46102700  0.91025600  1
  C  1100  1  0.98563100  0.47221000  0.91161800  1
  C  1101  1  0.86072400  0.46146400  0.91108000  1
  C  1102  1  0.86063900  0.44012100  0.91084300  1
  C  1103  1  0.23853700  0.47294900  0.91025700  1
  C  1107  1  0.24140300  0.42805500  0.90890100  1
  C  1111  1  0.72883000  0.47272200  0.91163100  1
  C  1115  1  0.72851400  0.42936700  0.91120800  1
  C  1119  1  0.98538800  0.47208400  0.56290100  1
  C  1120  1  0.11013300  0.46095200  0.55301100  1
  C  1121  1  0.11027400  0.43995100  0.53154600  1
  C  1122  1  0.98559100  0.43013200  0.52035700  1
  C  1123  1  0.86069000  0.44034200  0.53110100  1
  C  1124  1  0.86060900  0.46144900  0.55244500  1
  C  1125  1  0.23849700  0.42802600  0.51963100  1
  C  1129  1  0.24131700  0.47156700  0.56452100  1
  C  1133  1  0.72880100  0.42963400  0.51983800  1
  C  1137  1  0.72846300  0.47256100  0.56319900  1
  C  1141  1  0.98574400  0.01884200  0.44432100  1
  C  1142  1  0.86055200  0.00681600  0.43767500  1
  C  1143  1  0.86117300  0.98235100  0.42551900  1
  C  1144  1  0.98682100  0.97048500  0.42020200  1
  C  1145  1  0.11192700  0.98249300  0.42598100  1
  C  1146  1  0.11138700  0.00695500  0.43819800  1
  C  1147  1  0.73327900  0.96845400  0.41835500  1
  C  1151  1  0.72850800  0.01942900  0.44364600  1
  C  1155  1  0.24436400  0.96990700  0.41980100  1
  C  1159  1  0.24353300  0.01964800  0.44464400  1
  C  1163  1  0.98593800  0.41623300  0.97378000  1
  C  1164  1  0.86071500  0.42161300  0.98579700  1
  C  1165  1  0.86128900  0.43391500  0.01026200  1
  C  1166  1  0.98692500  0.44045600  0.02213400  1
  C  1167  1  0.11205800  0.43424300  0.01013300  1
  C  1168  1  0.11156300  0.42200100  0.98567200  1
  C  1169  1  0.73337400  0.44064300  0.02415300  1
  C  1173  1  0.72869400  0.41497400  0.97317700  1
  C  1177  1  0.24447100  0.44065100  0.02272800  1
  C  1181  1  0.24372500  0.41576400  0.97298600  1
  C  1185  1  0.98579200  0.54828700  0.57636800  1
  C  1186  1  0.86058800  0.55492700  0.57098800  1
  C  1187  1  0.86118700  0.56708800  0.55868400  1
  C  1188  1  0.98682000  0.57240600  0.55213300  1
  C  1189  1  0.11194800  0.56662200  0.55835300  1
  C  1190  1  0.11143300  0.55440500  0.57059700  1
  C  1191  1  0.73327900  0.57425100  0.55195300  1
  C  1195  1  0.72856400  0.54895000  0.57762800  1
  C  1199  1  0.24437400  0.57280200  0.55194200  1
  C  1203  1  0.24359400  0.54795700  0.57683700  1
  C  1207  1  0.98590900  0.97007700  0.55199300  1
  C  1208  1  0.86068500  0.98209100  0.55862300  1
  C  1209  1  0.86124300  0.00655600  0.57078000  1
  C  1210  1  0.98685900  0.01843000  0.57609900  1
  C  1211  1  0.11200300  0.00643100  0.57032300  1
  C  1212  1  0.11153000  0.98197100  0.55811100  1
  C  1213  1  0.73331500  0.02044400  0.57793500  1
  C  1217  1  0.72867900  0.96946600  0.55264700  1
  C  1221  1  0.24441100  0.01902800  0.57650700  1
  C  1225  1  0.24371000  0.96928900  0.55167400  1
  C  1229  1  0.98581300  0.57266400  0.02253200  1
  C  1230  1  0.86060300  0.56727900  0.01051200  1
  C  1231  1  0.86119800  0.55497200  0.98604700  1
  C  1232  1  0.98683000  0.54842400  0.97417700  1
  C  1233  1  0.11195300  0.55465100  0.98618100  1
  C  1234  1  0.11144500  0.56689700  0.01064300  1
  C  1235  1  0.73328900  0.54824000  0.97215400  1
  C  1239  1  0.72857300  0.57392000  0.02312900  1
  C  1243  1  0.24437900  0.54824500  0.97359000  1
  C  1247  1  0.24360300  0.57314200  0.02333000  1
  C  1251  1  0.98580300  0.44058300  0.41990100  1
  C  1252  1  0.86059300  0.43395000  0.42528700  1
  C  1253  1  0.86119900  0.42179100  0.43759400  1
  C  1254  1  0.98685000  0.41646700  0.44413700  1
  C  1255  1  0.11196700  0.42225700  0.43792200  1
  C  1256  1  0.11144500  0.43447200  0.42567600  1
  C  1257  1  0.73329900  0.41463300  0.44433100  1
  C  1261  1  0.72855900  0.43992600  0.41864800  1
  C  1265  1  0.24439800  0.41607800  0.44433200  1
  C  1269  1  0.24359400  0.44092300  0.41943700  1
  C  1273  1  0.98965700  0.87351100  0.97369300  1
  C  1274  1  0.11444000  0.87963300  0.98593100  1
  C  1275  1  0.11406400  0.89192500  0.01048600  1
  C  1276  1  0.98910600  0.89801400  0.02264900  1
  C  1277  1  0.86447700  0.89189900  0.01042700  1
  C  1278  1  0.86474400  0.87961100  0.98587400  1
  C  1279  1  0.24219400  0.89884000  0.02430400  1
  C  1283  1  0.24652000  0.87332300  0.97333700  1
  C  1287  1  0.73204000  0.89820000  0.02300300  1
  C  1291  1  0.73228100  0.87332000  0.97329100  1
  C  1295  1  0.98950700  0.09095800  0.11911100  1
  C  1296  1  0.11429400  0.09707100  0.11298700  1
  C  1297  1  0.11392300  0.10933000  0.10069300  1
  C  1298  1  0.98896900  0.11540300  0.09460100  1
  C  1299  1  0.86433600  0.10929800  0.10071700  1
  C  1300  1  0.86459700  0.09703700  0.11300800  1
  C  1301  1  0.24206000  0.11623100  0.09377600  1
  C  1305  1  0.24636400  0.09078900  0.11930100  1
  C  1309  1  0.73190400  0.11557300  0.09441400  1
  C  1313  1  0.73212900  0.09074700  0.11930000  1
  C  1317  1  0.98954700  0.01892500  0.90165200  1
  C  1318  1  0.11433500  0.00668800  0.89553800  1
  C  1319  1  0.11396700  0.98213500  0.88327800  1
  C  1320  1  0.98901300  0.96997000  0.87720400  1
  C  1321  1  0.86437700  0.98219000  0.88330900  1
  C  1322  1  0.86463800  0.00674200  0.89557000  1
  C  1323  1  0.24210300  0.96831700  0.87637600  1
  C  1327  1  0.24640900  0.01928400  0.90182100  1
  C  1331  1  0.73194800  0.96961200  0.87703400  1
  C  1335  1  0.73217000  0.01932400  0.90186100  1
  C  1339  1  0.98952900  0.11540900  0.02260700  1
  C  1340  1  0.11431500  0.10929000  0.01036800  1
  C  1341  1  0.11394100  0.09700300  0.98581400  1
  C  1342  1  0.98898600  0.09091600  0.97365100  1
  C  1343  1  0.86435200  0.09702800  0.98587300  1
  C  1344  1  0.86461800  0.10931100  0.01042500  1
  C  1345  1  0.24207400  0.09009300  0.97199600  1
  C  1349  1  0.24638900  0.11559900  0.02296500  1
  C  1353  1  0.73191900  0.09072700  0.97329500  1
  C  1357  1  0.73215000  0.11559800  0.02300700  1
  C  1361  1  0.98960100  0.89797100  0.87720000  1
  C  1362  1  0.11439500  0.89185500  0.88331900  1
  C  1363  1  0.11403400  0.87959100  0.89560900  1
  C  1364  1  0.98908700  0.87351500  0.90169900  1
  C  1365  1  0.86444700  0.87962100  0.89558600  1
  C  1366  1  0.86469400  0.89188800  0.88330100  1
  C  1367  1  0.24217800  0.87268800  0.90252200  1
  C  1371  1  0.24645900  0.89814000  0.87700600  1
  C  1375  1  0.73201900  0.87334400  0.90188800  1
  C  1379  1  0.73222000  0.89817900  0.87701300  1
  C  1383  1  0.98960100  0.97000600  0.09465100  1
  C  1384  1  0.11437400  0.98224800  0.10077200  1
  C  1385  1  0.11397100  0.00680200  0.11303700  1
  C  1386  1  0.98899900  0.01896200  0.11911000  1
  C  1387  1  0.86438100  0.00673500  0.11299800  1
  C  1388  1  0.86467300  0.98218300  0.10073100  1
  C  1389  1  0.24208700  0.02062400  0.11994400  1
  C  1393  1  0.24646400  0.96965600  0.09448800  1
  C  1397  1  0.73193400  0.01930800  0.11927100  1
  C  1401  1  0.73222100  0.96959700  0.09443600  1
  H  224  1  0.33539200  0.87673500  0.22805100  1
  H  225  1  0.25845300  0.85712400  0.23421800  1
  H  226  1  0.23930200  0.88699600  0.25294100  1
  H  228  1  0.23249100  0.87566400  0.17574500  1
  H  229  1  0.30542700  0.85974000  0.18710700  1
  H  230  1  0.29952400  0.89021800  0.20324100  1
  H  232  1  0.74643000  0.87273800  0.25038700  1
  H  233  1  0.68160000  0.85580800  0.22262200  1
  H  234  1  0.67302600  0.88618500  0.23681800  1
  H  236  1  0.74192000  0.87260200  0.17500700  1
  H  237  1  0.67066900  0.88604100  0.20219000  1
  H  238  1  0.67979100  0.85566800  0.18602600  1
  H  246  1  0.33580000  0.34216000  0.11610000  1
  H  247  1  0.25850400  0.36790900  0.13568800  1
  H  248  1  0.23993800  0.35678800  0.10581000  1
  H  250  1  0.23270900  0.29077800  0.11687200  1
  H  251  1  0.30557900  0.31805600  0.13292200  1
  H  252  1  0.30008700  0.30383100  0.10244900  1
  H  254  1  0.74663700  0.36843700  0.11997500  1
  H  255  1  0.68171100  0.35749300  0.13680300  1
  H  256  1  0.67338300  0.34141200  0.10642100  1
  H  258  1  0.74220300  0.29302600  0.11978100  1
  H  259  1  0.67097600  0.30685400  0.10642400  1
  H  260  1  0.67986200  0.32095400  0.13679400  1
  H  268  1  0.33562900  0.76485000  0.65033800  1
  H  269  1  0.25798900  0.75864600  0.62460700  1
  H  270  1  0.24007800  0.73989500  0.63574700  1
  H  272  1  0.23249000  0.81694600  0.70173700  1
  H  273  1  0.30496500  0.80574800  0.67443400  1
  H  274  1  0.30008700  0.78948900  0.68865300  1
  H  276  1  0.74661200  0.74213800  0.62427900  1
  H  277  1  0.68106500  0.76987300  0.63523900  1
  H  278  1  0.67363000  0.75557700  0.65133100  1
  H  280  1  0.74198800  0.81740600  0.69965500  1
  H  281  1  0.67110200  0.79019100  0.68589600  1
  H  282  1  0.67916100  0.80642000  0.67174500  1
  H  290  1  0.33569400  0.11264000  0.76849200  1
  H  291  1  0.25795300  0.13211500  0.76222600  1
  H  292  1  0.24005800  0.10221200  0.74353900  1
  H  294  1  0.23276300  0.11353700  0.82070100  1
  H  295  1  0.30502600  0.12957700  0.80941500  1
  H  296  1  0.30032900  0.09909400  0.79324500  1
  H  298  1  0.74655600  0.11583700  0.74574200  1
  H  299  1  0.68097000  0.13270100  0.77346300  1
  H  300  1  0.67355100  0.10231700  0.75927300  1
  H  302  1  0.74203300  0.11603900  0.82117000  1
  H  303  1  0.67115100  0.10249600  0.79395200  1
  H  304  1  0.67919200  0.13287800  0.81008900  1
  H  312  1  0.33539200  0.64683500  0.88043500  1
  H  313  1  0.25844800  0.62105800  0.86082300  1
  H  314  1  0.23930200  0.63220600  0.89069600  1
  H  316  1  0.23249100  0.69807000  0.87936400  1
  H  317  1  0.30542700  0.67078400  0.86344000  1
  H  318  1  0.29952400  0.68512700  0.89391500  1
  H  320  1  0.74643000  0.62050400  0.87643900  1
  H  321  1  0.68159900  0.63133800  0.85950800  1
  H  322  1  0.67302600  0.64751700  0.88988400  1
  H  324  1  0.74192100  0.69574700  0.87630100  1
  H  325  1  0.67066900  0.68200300  0.88974000  1
  H  326  1  0.67979100  0.66779300  0.85936700  1
  H  334  1  0.33591000  0.22420200  0.34590800  1
  H  335  1  0.25852100  0.23040100  0.37165900  1
  H  336  1  0.24005700  0.24912600  0.36049900  1
  H  338  1  0.23291000  0.17199900  0.29456500  1
  H  339  1  0.30560400  0.18326600  0.32186100  1
  H  340  1  0.30034500  0.19947100  0.30758900  1
  H  342  1  0.74667600  0.24665100  0.37210600  1
  H  343  1  0.68166100  0.21888800  0.36118500  1
  H  344  1  0.67344900  0.23316200  0.34507600  1
  H  346  1  0.74228500  0.17139200  0.29673000  1
  H  347  1  0.67113700  0.19858200  0.31052700  1
  H  348  1  0.67983500  0.18233800  0.32465600  1
  H  356  1  0.65040500  0.64722800  0.76681100  1
  H  357  1  0.72325000  0.62129400  0.76108200  1
  H  358  1  0.75060000  0.63238300  0.74246800  1
  H  360  1  0.74897300  0.69846200  0.81937500  1
  H  361  1  0.67285400  0.67140300  0.80774200  1
  H  362  1  0.68821800  0.68551400  0.79147600  1
  H  364  1  0.23889400  0.61898300  0.74839900  1
  H  365  1  0.29775100  0.63006000  0.77655800  1
  H  366  1  0.31462400  0.64582300  0.76203400  1
  H  368  1  0.23782200  0.69490200  0.82314600  1
  H  369  1  0.31475700  0.68055400  0.79643500  1
  H  370  1  0.29648700  0.66686000  0.81297100  1
  H  378  1  0.65025000  0.22573200  0.88216600  1
  H  379  1  0.72332000  0.23150600  0.86200700  1
  H  380  1  0.75031400  0.25009900  0.89172400  1
  H  382  1  0.74890400  0.17312000  0.88074700  1
  H  383  1  0.67301700  0.18478500  0.86533300  1
  H  384  1  0.68785500  0.20099900  0.89571800  1
  H  386  1  0.23891400  0.24427500  0.87254000  1
  H  387  1  0.29791700  0.21612700  0.85542500  1
  H  388  1  0.31467700  0.23061000  0.88571200  1
  H  390  1  0.23804200  0.16947300  0.87361600  1
  H  391  1  0.31481600  0.19620000  0.88601600  1
  H  392  1  0.29678000  0.17968200  0.85578100  1
  H  400  1  0.65120700  0.10978800  0.34514300  1
  H  401  1  0.72312900  0.13011000  0.37112300  1
  H  402  1  0.75196100  0.10044800  0.36006200  1
  H  404  1  0.74937700  0.11153100  0.29409000  1
  H  405  1  0.67277500  0.12675700  0.32112600  1
  H  406  1  0.68926500  0.09639200  0.30688400  1
  H  408  1  0.23933100  0.12045100  0.37374300  1
  H  409  1  0.29738700  0.13763900  0.36273500  1
  H  410  1  0.31544600  0.10737400  0.34694000  1
  H  412  1  0.23810800  0.11935800  0.29787200  1
  H  413  1  0.31542600  0.10707400  0.31225900  1
  H  414  1  0.29603900  0.13728500  0.32594800  1
  H  422  1  0.65081900  0.34151900  0.22970000  1
  H  423  1  0.72296300  0.36748700  0.23536800  1
  H  424  1  0.75142300  0.35642900  0.25398100  1
  H  426  1  0.74914500  0.29042300  0.17695200  1
  H  427  1  0.67264300  0.31746400  0.18872500  1
  H  428  1  0.68881300  0.30324800  0.20487600  1
  H  430  1  0.23905000  0.37005100  0.24774300  1
  H  431  1  0.29729700  0.35901400  0.21955500  1
  H  432  1  0.31505800  0.34323900  0.23405100  1
  H  434  1  0.23793300  0.29414200  0.17300200  1
  H  435  1  0.31507800  0.30853700  0.19968800  1
  H  436  1  0.29603400  0.32221000  0.18314400  1
  H  444  1  0.65040900  0.76311100  0.11403400  1
  H  445  1  0.72325400  0.75738300  0.13423900  1
  H  446  1  0.75060600  0.73876900  0.10453600  1
  H  448  1  0.74897400  0.81567600  0.11536400  1
  H  449  1  0.67285500  0.80404100  0.13078900  1
  H  450  1  0.68821900  0.78777700  0.10041300  1
  H  452  1  0.23889900  0.74469900  0.12386800  1
  H  453  1  0.29775600  0.77285900  0.14095000  1
  H  454  1  0.31462600  0.75833500  0.11066300  1
  H  456  1  0.23782200  0.81944800  0.12269600  1
  H  457  1  0.31475700  0.79273500  0.11033200  1
  H  458  1  0.29648700  0.80927300  0.14056400  1
  H  466  1  0.65015800  0.87845700  0.65086800  1
  H  467  1  0.72325600  0.85830700  0.62493500  1
  H  468  1  0.75025800  0.88802500  0.63607300  1
  H  470  1  0.74872700  0.87703100  0.70205700  1
  H  471  1  0.67287700  0.86162400  0.67497500  1
  H  472  1  0.68780400  0.89200800  0.68914900  1
  H  474  1  0.23882300  0.86890100  0.62274300  1
  H  475  1  0.29784300  0.85175500  0.63373900  1
  H  476  1  0.31455300  0.88204200  0.64958300  1
  H  478  1  0.23784000  0.86984000  0.69855300  1
  H  479  1  0.31462600  0.88228800  0.68427200  1
  H  480  1  0.29661200  0.85204800  0.67050400  1
  H  488  1  0.65583500  0.79167500  0.23082500  1
  H  489  1  0.72884800  0.81739500  0.23591700  1
  H  490  1  0.75764800  0.80680600  0.25491100  1
  H  492  1  0.75153300  0.73989300  0.17850700  1
  H  493  1  0.67572600  0.76695900  0.18987300  1
  H  494  1  0.69217700  0.75325200  0.20650400  1
  H  496  1  0.24599500  0.81961300  0.24756900  1
  H  497  1  0.30241500  0.80803900  0.21921800  1
  H  498  1  0.32104100  0.79271400  0.23415800  1
  H  500  1  0.23911100  0.74297100  0.17361500  1
  H  501  1  0.31840300  0.75760800  0.20011100  1
  H  502  1  0.29896500  0.77085400  0.18318000  1
  H  510  1  0.65572900  0.42976600  0.20086200  1
  H  511  1  0.72913000  0.40921400  0.17514700  1
  H  512  1  0.75742500  0.43882200  0.18580000  1
  H  514  1  0.75153200  0.42934600  0.25270100  1
  H  515  1  0.67583800  0.41359500  0.22562900  1
  H  516  1  0.69201600  0.44393500  0.23930100  1
  H  518  1  0.24617200  0.41881800  0.17303700  1
  H  519  1  0.30267500  0.40200600  0.18456900  1
  H  520  1  0.32121400  0.43227100  0.19993800  1
  H  522  1  0.23921100  0.42138000  0.24962800  1
  H  523  1  0.31854300  0.43327800  0.23502700  1
  H  524  1  0.29916600  0.40309700  0.22174100  1
  H  532  1  0.65518000  0.76208700  0.56323200  1
  H  533  1  0.72920400  0.75684000  0.58368100  1
  H  534  1  0.75649400  0.73790800  0.55403900  1
  H  536  1  0.75108400  0.81429000  0.56358400  1
  H  537  1  0.67591900  0.80300100  0.57940100  1
  H  538  1  0.69115800  0.78633100  0.54904600  1
  H  540  1  0.24582000  0.74476900  0.57342200  1
  H  541  1  0.30313500  0.77306600  0.59019700  1
  H  542  1  0.32046300  0.75819500  0.55991200  1
  H  544  1  0.23901000  0.81891600  0.57107700  1
  H  545  1  0.31797900  0.79237400  0.55904000  1
  H  546  1  0.29951000  0.80920800  0.58924400  1
  H  554  1  0.65538200  0.19708300  0.76575900  1
  H  555  1  0.72910900  0.17138300  0.76056800  1
  H  556  1  0.75674100  0.18203300  0.74159500  1
  H  558  1  0.75154800  0.24897700  0.81790700  1
  H  559  1  0.67598700  0.22190500  0.80666100  1
  H  560  1  0.69176400  0.23552300  0.78993800  1
  H  562  1  0.24581400  0.16938300  0.74855000  1
  H  563  1  0.30291900  0.18092000  0.77686000  1
  H  564  1  0.32058300  0.19630600  0.76196600  1
  H  566  1  0.23922600  0.24591100  0.82264700  1
  H  567  1  0.31830700  0.23136000  0.79611900  1
  H  568  1  0.29939300  0.21802600  0.81298000  1
  H  576  1  0.65582900  0.55900400  0.79537600  1
  H  577  1  0.72884700  0.57963100  0.82109600  1
  H  578  1  0.75763900  0.55004900  0.81050700  1
  H  580  1  0.75152300  0.55953800  0.74359300  1
  H  581  1  0.67571600  0.57523700  0.77065900  1
  H  582  1  0.69217200  0.54490000  0.75695300  1
  H  584  1  0.24599100  0.57019400  0.82331200  1
  H  585  1  0.30241500  0.58697000  0.81173700  1
  H  586  1  0.32103200  0.55670500  0.79641300  1
  H  588  1  0.23910100  0.56750400  0.74666800  1
  H  589  1  0.31839300  0.55564400  0.76130600  1
  H  590  1  0.29896000  0.58582200  0.77455200  1
  H  598  1  0.65600200  0.22715300  0.43361700  1
  H  599  1  0.72906900  0.23229500  0.41302600  1
  H  600  1  0.75787900  0.25124000  0.44261800  1
  H  602  1  0.75158800  0.17478200  0.43298700  1
  H  603  1  0.67585800  0.18619300  0.41732300  1
  H  604  1  0.69231300  0.20278200  0.44766200  1
  H  606  1  0.24625300  0.24391400  0.42247400  1
  H  607  1  0.30263800  0.21556800  0.40563000  1
  H  608  1  0.32136900  0.23043800  0.43589300  1
  H  610  1  0.23928700  0.16985400  0.42496600  1
  H  611  1  0.31860300  0.19635200  0.43688000  1
  H  612  1  0.29913700  0.17948300  0.40670000  1
  H  620  1  0.33464200  0.87727300  0.31459300  1
  H  621  1  0.24311900  0.88071100  0.29447400  1
  H  622  1  0.24775400  0.85379800  0.29320600  1
  H  624  1  0.23674300  0.90229700  0.37403100  1
  H  625  1  0.30137300  0.90681900  0.35249100  1
  H  626  1  0.30397200  0.87908900  0.34963500  1
  H  628  1  0.73960600  0.86344200  0.28705300  1
  H  629  1  0.67181700  0.88709300  0.31107200  1
  H  630  1  0.67537800  0.85982100  0.30910200  1
  H  632  1  0.73853200  0.90235000  0.37377600  1
  H  633  1  0.67197900  0.87887500  0.34955300  1
  H  634  1  0.67421300  0.90631100  0.35188900  1
  H  642  1  0.33474300  0.42805500  0.11532900  1
  H  643  1  0.24322000  0.40450300  0.11190500  1
  H  644  1  0.24790600  0.43015400  0.13881300  1
  H  646  1  0.23676800  0.46247600  0.09031700  1
  H  647  1  0.30142300  0.43641300  0.08578900  1
  H  648  1  0.30402700  0.46128500  0.11352200  1
  H  650  1  0.73974600  0.41434700  0.12918600  1
  H  651  1  0.67191300  0.41471400  0.10553700  1
  H  652  1  0.67550300  0.44001600  0.13280600  1
  H  654  1  0.73855300  0.46215200  0.09026700  1
  H  655  1  0.67203100  0.46140700  0.11374500  1
  H  656  1  0.67426600  0.43630600  0.08631200  1
  H  664  1  0.33468200  0.67801300  0.56453200  1
  H  665  1  0.24314000  0.69814200  0.58808100  1
  H  666  1  0.24782500  0.69939300  0.56242600  1
  H  668  1  0.23674200  0.61857700  0.53010800  1
  H  669  1  0.30139800  0.64011300  0.55617000  1
  H  670  1  0.30398600  0.64297300  0.53129800  1
  H  672  1  0.73965600  0.70555800  0.57823900  1
  H  673  1  0.67187300  0.68154000  0.57787600  1
  H  674  1  0.67540500  0.68350600  0.55257400  1
  H  676  1  0.73853200  0.61883500  0.53043600  1
  H  677  1  0.67199800  0.64305700  0.53118100  1
  H  678  1  0.67425600  0.64072700  0.55628400  1
  H  686  1  0.33462200  0.11162800  0.68171800  1
  H  687  1  0.24308900  0.10819200  0.70184000  1
  H  688  1  0.24774400  0.13510500  0.70310500  1
  H  690  1  0.23670800  0.08662900  0.62228500  1
  H  691  1  0.30136300  0.08209600  0.64381500  1
  H  692  1  0.30393600  0.10983100  0.64668300  1
  H  694  1  0.73958500  0.12544800  0.70925700  1
  H  695  1  0.67182600  0.10179500  0.68523600  1
  H  696  1  0.67533700  0.12906700  0.68720800  1
  H  698  1  0.73849800  0.08654900  0.62253500  1
  H  699  1  0.67195400  0.11002100  0.64676000  1
  H  700  1  0.67421500  0.08258400  0.64442100  1
  H  708  1  0.33463200  0.56083100  0.88097400  1
  H  709  1  0.24310000  0.58438800  0.88441300  1
  H  710  1  0.24774400  0.55874300  0.85749900  1
  H  712  1  0.23672300  0.52640800  0.90598800  1
  H  713  1  0.30135300  0.55247100  0.91051500  1
  H  714  1  0.30395200  0.52760100  0.88278300  1
  H  716  1  0.73959700  0.57454100  0.86714200  1
  H  717  1  0.67180200  0.57416900  0.89079100  1
  H  718  1  0.67536800  0.54887000  0.86351800  1
  H  720  1  0.73850800  0.52671700  0.90604200  1
  H  721  1  0.67195800  0.52746900  0.88256700  1
  H  722  1  0.67419400  0.55256700  0.91000500  1
  H  730  1  0.33466300  0.31087300  0.43173800  1
  H  731  1  0.24312900  0.29074700  0.40818600  1
  H  732  1  0.24782500  0.28948900  0.43383800  1
  H  734  1  0.23672300  0.37030700  0.46616400  1
  H  735  1  0.30135700  0.34877200  0.44009900  1
  H  736  1  0.30397200  0.34591100  0.46497100  1
  H  738  1  0.73965700  0.28331800  0.41803700  1
  H  739  1  0.67182700  0.30733500  0.41840700  1
  H  740  1  0.67542400  0.30536400  0.44370700  1
  H  742  1  0.73850700  0.37004100  0.46584900  1
  H  743  1  0.67197300  0.34581700  0.46510100  1
  H  744  1  0.67420500  0.34815300  0.44000200  1
  H  752  1  0.63424100  0.56093000  0.68177600  1
  H  753  1  0.72584500  0.58443200  0.70200000  1
  H  754  1  0.72038400  0.55874000  0.70317200  1
  H  756  1  0.73356600  0.52670300  0.62236600  1
  H  757  1  0.66887500  0.55272500  0.64394600  1
  H  758  1  0.66531100  0.52776000  0.64664200  1
  H  760  1  0.22884700  0.57497100  0.70962800  1
  H  761  1  0.29712700  0.57422200  0.68548500  1
  H  762  1  0.29316800  0.54913800  0.68784000  1
  H  764  1  0.23184100  0.52653500  0.62300200  1
  H  765  1  0.29766100  0.52754200  0.64738200  1
  H  766  1  0.29567700  0.55248900  0.64477700  1
  H  774  1  0.63449400  0.31079800  0.88102400  1
  H  775  1  0.72612700  0.29057900  0.88430400  1
  H  776  1  0.72065600  0.28940500  0.85743900  1
  H  778  1  0.73373700  0.37021100  0.90620400  1
  H  779  1  0.66908600  0.34862900  0.91064800  1
  H  780  1  0.66551000  0.34593200  0.88298600  1
  H  782  1  0.22913600  0.28296700  0.86720800  1
  H  783  1  0.29739800  0.30710800  0.89060200  1
  H  784  1  0.29341900  0.30476000  0.86316700  1
  H  786  1  0.23201700  0.36959300  0.90540300  1
  H  787  1  0.29785100  0.34521600  0.88202700  1
  H  788  1  0.29590300  0.34781700  0.90957700  1
  H  796  1  0.63405500  0.11159800  0.43165900  1
  H  797  1  0.72566300  0.10832200  0.40815900  1
  H  798  1  0.72020200  0.13518500  0.43385100  1
  H  800  1  0.73337500  0.08640900  0.46588300  1
  H  801  1  0.66870300  0.08196900  0.43986100  1
  H  802  1  0.66511900  0.10962800  0.46482500  1
  H  804  1  0.22866900  0.12541900  0.41762600  1
  H  805  1  0.29696000  0.10202700  0.41837500  1
  H  806  1  0.29297600  0.12946600  0.44346000  1
  H  808  1  0.23165600  0.08722900  0.46606200  1
  H  809  1  0.29748000  0.11060400  0.46505700  1
  H  810  1  0.29552300  0.08305200  0.44010800  1
  H  818  1  0.63413100  0.42795200  0.31450300  1
  H  819  1  0.72574100  0.40445600  0.29427200  1
  H  820  1  0.72025300  0.43015400  0.29311200  1
  H  822  1  0.73346500  0.46216500  0.37391300  1
  H  823  1  0.66879100  0.43614500  0.35232900  1
  H  824  1  0.66520000  0.46111400  0.34964100  1
  H  826  1  0.22872900  0.41392100  0.28664200  1
  H  827  1  0.29703700  0.41466900  0.31078100  1
  H  828  1  0.29303700  0.43975600  0.30843000  1
  H  830  1  0.23174700  0.46234600  0.37326900  1
  H  831  1  0.29756900  0.46134400  0.34889000  1
  H  832  1  0.29560500  0.43639400  0.35149100  1
  H  840  1  0.63423100  0.67807800  0.11529700  1
  H  841  1  0.72584000  0.69830100  0.11201900  1
  H  842  1  0.72037800  0.69947400  0.13888200  1
  H  844  1  0.73355000  0.61866700  0.09011200  1
  H  845  1  0.66886100  0.64024800  0.08567000  1
  H  846  1  0.66529800  0.64294400  0.11333100  1
  H  848  1  0.22884500  0.70592700  0.12910700  1
  H  849  1  0.29712200  0.68178500  0.10571300  1
  H  850  1  0.29315800  0.68413900  0.13315300  1
  H  852  1  0.23182700  0.61930100  0.09091900  1
  H  853  1  0.29765000  0.64368200  0.11429100  1
  H  854  1  0.29566600  0.64107600  0.08673800  1
  H  862  1  0.63460500  0.87731000  0.56466300  1
  H  863  1  0.72623700  0.88059000  0.58816300  1
  H  864  1  0.72078200  0.85372700  0.56247100  1
  H  866  1  0.73383200  0.90249400  0.53043400  1
  H  867  1  0.66917600  0.90693400  0.55645600  1
  H  868  1  0.66562200  0.87927300  0.53149300  1
  H  870  1  0.22925300  0.86350500  0.57868400  1
  H  871  1  0.29750000  0.88690300  0.57794000  1
  H  872  1  0.29354600  0.85946700  0.55285200  1
  H  874  1  0.23211000  0.90170500  0.53025600  1
  H  875  1  0.29796300  0.87832900  0.53125700  1
  H  876  1  0.29599400  0.90588000  0.55620600  1
  H  884  1  0.64209900  0.87790400  0.11507000  1
  H  885  1  0.73172800  0.88067100  0.13856000  1
  H  886  1  0.73127400  0.85435400  0.11225100  1
  H  888  1  0.73947400  0.90758000  0.08507700  1
  H  889  1  0.67423100  0.90930700  0.10989500  1
  H  890  1  0.67402000  0.88284800  0.08351200  1
  H  892  1  0.23698500  0.86399400  0.12864500  1
  H  893  1  0.30297900  0.88872600  0.13029900  1
  H  894  1  0.30292400  0.86239400  0.10393800  1
  H  896  1  0.23881700  0.90745800  0.08524400  1
  H  897  1  0.30356900  0.88267700  0.08363300  1
  H  898  1  0.30374400  0.90901300  0.10998800  1
  H  906  1  0.64185600  0.22792500  0.11470000  1
  H  907  1  0.73145500  0.24864200  0.11192200  1
  H  908  1  0.73103700  0.24866400  0.13824500  1
  H  910  1  0.73927800  0.16825700  0.08503700  1
  H  911  1  0.67400300  0.19134300  0.08330200  1
  H  912  1  0.67381300  0.19142600  0.10976500  1
  H  914  1  0.23672900  0.25541900  0.12860000  1
  H  915  1  0.30271800  0.23234200  0.10386800  1
  H  916  1  0.30269300  0.23231500  0.13020000  1
  H  918  1  0.23861700  0.16855700  0.08515000  1
  H  919  1  0.30336300  0.19173200  0.10992900  1
  H  920  1  0.30351400  0.19174500  0.08358900  1
  H  928  1  0.64184300  0.87757200  0.76469000  1
  H  929  1  0.73139400  0.85406900  0.74397000  1
  H  930  1  0.73104300  0.88037000  0.74394900  1
  H  932  1  0.73931400  0.90754600  0.82435500  1
  H  933  1  0.67400900  0.88273400  0.80126300  1
  H  934  1  0.67384200  0.90912100  0.80119500  1
  H  936  1  0.23669300  0.86395100  0.73718200  1
  H  937  1  0.30269700  0.86229800  0.76026000  1
  H  938  1  0.30268300  0.88865600  0.76028300  1
  H  940  1  0.23865200  0.90736800  0.82404500  1
  H  941  1  0.30338100  0.90896800  0.80086700  1
  H  942  1  0.30353300  0.88261600  0.80085600  1
  H  950  1  0.64186200  0.11102400  0.88123200  1
  H  951  1  0.73146000  0.10824600  0.85773500  1
  H  952  1  0.73105100  0.13456700  0.88403900  1
  H  954  1  0.73928700  0.08134400  0.91122000  1
  H  955  1  0.67401900  0.07961700  0.88640300  1
  H  956  1  0.67381200  0.10607400  0.91278600  1
  H  958  1  0.23673400  0.12492100  0.86763600  1
  H  959  1  0.30273900  0.10019500  0.86599100  1
  H  960  1  0.30267800  0.12653300  0.89234800  1
  H  962  1  0.23862200  0.08148000  0.91105600  1
  H  963  1  0.30335200  0.10625800  0.91265900  1
  H  964  1  0.30353400  0.07991900  0.88630900  1
  H  972  1  0.64210400  0.76098700  0.88160400  1
  H  973  1  0.73173600  0.74026700  0.88437300  1
  H  974  1  0.73127400  0.74025300  0.85805300  1
  H  976  1  0.73948900  0.82065500  0.91127100  1
  H  977  1  0.67424300  0.79756600  0.91300200  1
  H  978  1  0.67402400  0.79748800  0.88654300  1
  H  980  1  0.23698600  0.73350100  0.86769400  1
  H  981  1  0.30298900  0.75658100  0.89242300  1
  H  982  1  0.30292400  0.75660400  0.86608800  1
  H  984  1  0.23882700  0.82036500  0.91114500  1
  H  985  1  0.30357400  0.79719100  0.88636500  1
  H  986  1  0.30375500  0.79717800  0.91270500  1
  H  994  1  0.64180700  0.11138500  0.23163100  1
  H  995  1  0.73141500  0.13488000  0.25235000  1
  H  996  1  0.73098100  0.10857800  0.25237000  1
  H  998  1  0.73923800  0.08138400  0.17196400  1
  H  999  1  0.67395800  0.10620300  0.19505100  1
  H  1000  1  0.67376700  0.07982300  0.19513100  1
  H  1002  1  0.23667800  0.12497500  0.25912600  1
  H  1003  1  0.30267100  0.12663000  0.23604900  1
  H  1004  1  0.30263700  0.10027000  0.23602200  1
  H  1006  1  0.23857600  0.08156700  0.17226400  1
  H  1007  1  0.30331300  0.07996300  0.19543900  1
  H  1008  1  0.30347300  0.10631600  0.19545400  1
  H  1016  1  0.33069800  0.90426100  0.43906400  1
  H  1017  1  0.24872100  0.92277700  0.43195200  1
  H  1018  1  0.23542800  0.89267000  0.41399200  1
  H  1020  1  0.23192300  0.90437200  0.49093200  1
  H  1021  1  0.30127800  0.92038200  0.47946100  1
  H  1022  1  0.29724700  0.88989800  0.46331600  1
  H  1024  1  0.73788800  0.90739200  0.41701300  1
  H  1025  1  0.67391200  0.92354400  0.44485400  1
  H  1026  1  0.66789400  0.89313800  0.43002800  1
  H  1028  1  0.73729300  0.90645900  0.49182100  1
  H  1029  1  0.66709800  0.89289700  0.46456900  1
  H  1030  1  0.67426600  0.92327700  0.48080900  1
  H  1038  1  0.33056000  0.52554200  0.08836200  1
  H  1039  1  0.24863100  0.49990700  0.06985000  1
  H  1040  1  0.23528300  0.51206600  0.09995600  1
  H  1042  1  0.23176200  0.57726800  0.08819600  1
  H  1043  1  0.30111600  0.54978700  0.07220800  1
  H  1044  1  0.29708600  0.56415000  0.10269200  1
  H  1046  1  0.73778200  0.50035700  0.08522900  1
  H  1047  1  0.67377700  0.51203600  0.06907000  1
  H  1048  1  0.66773200  0.52762300  0.09947500  1
  H  1050  1  0.73712600  0.57609100  0.08614500  1
  H  1051  1  0.66700300  0.56241000  0.09972300  1
  H  1052  1  0.67407400  0.54826100  0.06934200  1
  H  1060  1  0.33050700  0.55347200  0.46704500  1
  H  1061  1  0.24851000  0.56060900  0.49267600  1
  H  1062  1  0.23536200  0.57855800  0.48051400  1
  H  1064  1  0.23160100  0.50163200  0.41528900  1
  H  1065  1  0.30091500  0.51308900  0.44276900  1
  H  1066  1  0.29698600  0.52924000  0.42843700  1
  H  1068  1  0.73782300  0.57563900  0.49220600  1
  H  1069  1  0.67362000  0.54781300  0.48052200  1
  H  1070  1  0.66784300  0.56263400  0.46493600  1
  H  1072  1  0.73698600  0.50081100  0.41648100  1
  H  1073  1  0.66694200  0.52807600  0.43015000  1
  H  1074  1  0.67386200  0.51185100  0.44430800  1
  H  1082  1  0.33049100  0.08459800  0.55719500  1
  H  1083  1  0.24848900  0.06610200  0.56433100  1
  H  1084  1  0.23534300  0.09621300  0.58228200  1
  H  1086  1  0.23155600  0.08450000  0.50534500  1
  H  1087  1  0.30087200  0.06847900  0.51680500  1
  H  1088  1  0.29698600  0.09896200  0.53295100  1
  H  1090  1  0.73775200  0.08156900  0.57934200  1
  H  1091  1  0.67359100  0.06542000  0.55151300  1
  H  1092  1  0.66771200  0.09582700  0.56633500  1
  H  1094  1  0.73690500  0.08247900  0.50451900  1
  H  1095  1  0.66680600  0.09605800  0.53178100  1
  H  1096  1  0.67384700  0.06567700  0.51554800  1
  H  1104  1  0.33065700  0.46333700  0.90795500  1
  H  1105  1  0.24869000  0.48896700  0.92646800  1
  H  1106  1  0.23538700  0.47681600  0.89636100  1
  H  1108  1  0.23186700  0.41158600  0.90807500  1
  H  1109  1  0.30123200  0.43906600  0.92408100  1
  H  1110  1  0.29719200  0.42472300  0.89359800  1
  H  1112  1  0.73785400  0.48852100  0.91108100  1
  H  1113  1  0.67387200  0.47683800  0.92723800  1
  H  1114  1  0.66785200  0.46125300  0.89683200  1
  H  1116  1  0.73723200  0.41278700  0.91016500  1
  H  1117  1  0.66704700  0.42647500  0.89660000  1
  H  1118  1  0.67421400  0.44062000  0.92697900  1
  H  1126  1  0.33060300  0.43533400  0.52924800  1
  H  1127  1  0.24869200  0.42822000  0.50361400  1
  H  1128  1  0.23531700  0.41026400  0.51576400  1
  H  1130  1  0.23176600  0.48721400  0.58098800  1
  H  1131  1  0.30118100  0.47573100  0.55351100  1
  H  1132  1  0.29707500  0.45959800  0.56786100  1
  H  1134  1  0.73783200  0.41328800  0.50404100  1
  H  1135  1  0.67385700  0.44112700  0.51572200  1
  H  1136  1  0.66780900  0.42630500  0.53130700  1
  H  1138  1  0.73714900  0.48809700  0.57977700  1
  H  1139  1  0.66702300  0.46084000  0.56608800  1
  H  1140  1  0.67414600  0.47707700  0.55194500  1
  H  1148  1  0.64033500  0.97819700  0.42223900  1
  H  1149  1  0.72653900  0.95827000  0.42679600  1
  H  1150  1  0.73414600  0.95690600  0.39985500  1
  H  1152  1  0.73611400  0.03800800  0.45281000  1
  H  1153  1  0.66955500  0.01490900  0.45447700  1
  H  1154  1  0.67243700  0.01478400  0.42799900  1
  H  1156  1  0.23650700  0.95133200  0.41021500  1
  H  1157  1  0.30107000  0.97428300  0.43531600  1
  H  1158  1  0.30333700  0.97463300  0.40914700  1
  H  1160  1  0.23527300  0.03821700  0.45359600  1
  H  1161  1  0.30267700  0.01493300  0.42928500  1
  H  1162  1  0.30029500  0.01534500  0.45583200  1
  H  1170  1  0.64044600  0.43478600  0.01440500  1
  H  1171  1  0.72662400  0.45927000  0.03434000  1
  H  1172  1  0.73420600  0.43368900  0.03569900  1
  H  1174  1  0.73633300  0.40556400  0.95459800  1
  H  1175  1  0.66975200  0.43032600  0.97770000  1
  H  1176  1  0.67259900  0.40396800  0.97781400  1
  H  1178  1  0.23658200  0.44963400  0.04130300  1
  H  1179  1  0.30117600  0.45179600  0.01836000  1
  H  1180  1  0.30346200  0.42527300  0.01800000  1
  H  1182  1  0.23550400  0.40615100  0.95441600  1
  H  1183  1  0.30287800  0.40511800  0.97769900  1
  H  1184  1  0.30047200  0.43125900  0.97729700  1
  H  1192  1  0.64034700  0.57036500  0.55781300  1
  H  1193  1  0.72652700  0.56580800  0.53332800  1
  H  1194  1  0.73413900  0.59275100  0.55890300  1
  H  1196  1  0.73619900  0.53978200  0.58704000  1
  H  1197  1  0.66961200  0.53812000  0.56227700  1
  H  1198  1  0.67247700  0.56459500  0.58863400  1
  H  1200  1  0.23650200  0.58238900  0.54295500  1
  H  1201  1  0.30106100  0.55728600  0.54080000  1
  H  1202  1  0.30336800  0.58345200  0.56731900  1
  H  1204  1  0.23536300  0.53900600  0.58645600  1
  H  1205  1  0.30275700  0.56331600  0.58747900  1
  H  1206  1  0.30033000  0.53676800  0.56134300  1
  H  1214  1  0.64039600  0.01069400  0.57404500  1
  H  1215  1  0.72655900  0.03062400  0.56948900  1
  H  1216  1  0.73413900  0.03199500  0.59643400  1
  H  1218  1  0.73634600  0.95088700  0.54348900  1
  H  1219  1  0.66972200  0.97397800  0.54181200  1
  H  1220  1  0.67258800  0.97411000  0.56829300  1
  H  1222  1  0.23651100  0.03760200  0.58608800  1
  H  1223  1  0.30112100  0.01465300  0.56099300  1
  H  1224  1  0.30339800  0.01431000  0.58716300  1
  H  1226  1  0.23551400  0.95071800  0.54272600  1
  H  1227  1  0.30284800  0.97401100  0.56703500  1
  H  1228  1  0.30046100  0.97359300  0.54048500  1
  H  1236  1  0.64035200  0.55409600  0.98190000  1
  H  1237  1  0.72654500  0.52961400  0.96197100  1
  H  1238  1  0.73413000  0.55519100  0.96060600  1
  H  1240  1  0.73620000  0.58333700  0.04171000  1
  H  1241  1  0.66963000  0.55857100  0.01861300  1
  H  1242  1  0.67248200  0.58492300  0.01848700  1
  H  1244  1  0.23650100  0.53925600  0.95501600  1
  H  1245  1  0.30109100  0.53710500  0.97796300  1
  H  1246  1  0.30334700  0.56362400  0.97831400  1
  H  1248  1  0.23536300  0.58276200  0.04190200  1
  H  1249  1  0.30274200  0.58378500  0.01861400  1
  H  1250  1  0.30036500  0.55765100  0.01902600  1
  H  1258  1  0.64035600  0.41852200  0.43847500  1
  H  1259  1  0.72657100  0.42307500  0.46295700  1
  H  1260  1  0.73413500  0.39613200  0.43737900  1
  H  1262  1  0.73617900  0.44908700  0.40923000  1
  H  1263  1  0.66962200  0.45075900  0.43399900  1
  H  1264  1  0.67246200  0.42428000  0.40764700  1
  H  1266  1  0.23652600  0.40649100  0.45332000  1
  H  1267  1  0.30108500  0.43159500  0.45547500  1
  H  1268  1  0.30339300  0.40542700  0.42895500  1
  H  1270  1  0.23534900  0.44987300  0.40981600  1
  H  1271  1  0.30277700  0.42556700  0.40879700  1
  H  1272  1  0.30032100  0.45211500  0.43493000  1
  H  1280  1  0.33516700  0.89393400  0.01450400  1
  H  1281  1  0.24526100  0.89113100  0.03518700  1
  H  1282  1  0.24527600  0.91743400  0.03516800  1
  H  1284  1  0.23917700  0.86401300  0.95475500  1
  H  1285  1  0.30399600  0.86242100  0.97794600  1
  H  1286  1  0.30400700  0.88882500  0.97791300  1
  H  1288  1  0.73967600  0.90750100  0.04158100  1
  H  1289  1  0.67419600  0.88275200  0.01845600  1
  H  1290  1  0.67424000  0.90908800  0.01843400  1
  H  1292  1  0.73981200  0.86402300  0.95471400  1
  H  1293  1  0.67448600  0.88877400  0.97784300  1
  H  1294  1  0.67442600  0.86243600  0.97785900  1
  H  1302  1  0.33502600  0.11133800  0.09868300  1
  H  1303  1  0.24512500  0.13482300  0.10148200  1
  H  1304  1  0.24514000  0.10849800  0.07518200  1
  H  1306  1  0.23901900  0.08152000  0.12861400  1
  H  1307  1  0.30384600  0.10630000  0.13019900  1
  H  1308  1  0.30385600  0.07986200  0.10380100  1
  H  1310  1  0.73954500  0.12484700  0.08511000  1
  H  1311  1  0.67405800  0.12647600  0.10986200  1
  H  1312  1  0.67410300  0.10011600  0.08352900  1
  H  1314  1  0.73965600  0.08146800  0.12859800  1
  H  1315  1  0.67433600  0.07984300  0.10384600  1
  H  1316  1  0.67427000  0.10620000  0.13018200  1
  H  1324  1  0.33507000  0.97811600  0.88126900  1
  H  1325  1  0.24517000  0.95743100  0.85778500  1
  H  1326  1  0.24518500  0.95745500  0.88410900  1
  H  1328  1  0.23906100  0.03786600  0.91109000  1
  H  1329  1  0.30388500  0.01467200  0.88630900  1
  H  1330  1  0.30389700  0.01471100  0.91274900  1
  H  1332  1  0.73958500  0.95103500  0.86776100  1
  H  1333  1  0.67410300  0.97415800  0.86613200  1
  H  1334  1  0.67414500  0.97418400  0.89249200  1
  H  1336  1  0.73969400  0.03790200  0.91114000  1
  H  1337  1  0.67437700  0.01477400  0.91276600  1
  H  1338  1  0.67431100  0.01475300  0.88640900  1
  H  1346  1  0.33504500  0.09499900  0.98179700  1
  H  1347  1  0.24513000  0.09780300  0.96111500  1
  H  1348  1  0.24516600  0.07149900  0.96113100  1
  H  1350  1  0.23904500  0.12490400  0.04154700  1
  H  1351  1  0.30386100  0.12650300  0.01835900  1
  H  1352  1  0.30388100  0.10009500  0.01838300  1
  H  1354  1  0.73955500  0.08143000  0.95471700  1
  H  1355  1  0.67406900  0.10617600  0.97784600  1
  H  1356  1  0.67412400  0.07983700  0.97786100  1
  H  1358  1  0.73967700  0.12489000  0.04158400  1
  H  1359  1  0.67435600  0.10014300  0.01845100  1
  H  1360  1  0.67429500  0.12648400  0.01844300  1
  H  1368  1  0.33514100  0.87758300  0.89761500  1
  H  1369  1  0.24524700  0.85409700  0.89481300  1
  H  1370  1  0.24526600  0.88041900  0.92111600  1
  H  1372  1  0.23910100  0.90741200  0.86769600  1
  H  1373  1  0.30393700  0.88263000  0.86610500  1
  H  1374  1  0.30395200  0.90906600  0.89250800  1
  H  1376  1  0.73967100  0.86406500  0.91118700  1
  H  1377  1  0.67417000  0.86244400  0.88644100  1
  H  1378  1  0.67422000  0.88880000  0.91277800  1
  H  1380  1  0.73973700  0.90746200  0.86771700  1
  H  1381  1  0.67443100  0.90908000  0.89246700  1
  H  1382  1  0.67436700  0.88272800  0.86612700  1
  H  1390  1  0.33507000  0.01082800  0.11505500  1
  H  1391  1  0.24513000  0.03150700  0.13853700  1
  H  1392  1  0.24517000  0.03148800  0.11221500  1
  H  1394  1  0.23914000  0.95107400  0.08521200  1
  H  1395  1  0.30392800  0.97426500  0.11000000  1
  H  1396  1  0.30394800  0.97423800  0.08356600  1
  H  1398  1  0.73955000  0.03788600  0.12854900  1
  H  1399  1  0.67408900  0.01475800  0.13017000  1
  H  1400  1  0.67414500  0.01473900  0.10381400  1
  H  1402  1  0.73977500  0.95101900  0.08515400  1
  H  1403  1  0.67442700  0.97414800  0.08353400  1
  H  1404  1  0.67436100  0.97416100  0.10988600  1
  N  2  1  0.99099800  0.83766500  0.26972400  1
  N  4  1  0.99116500  0.87284300  0.27020100  1
  N  6  1  0.99646900  0.83833900  0.23542100  1
  N  8  1  0.99116900  0.42282500  0.15496700  1
  N  10  1  0.99132900  0.38810900  0.11980800  1
  N  12  1  0.99668000  0.38786500  0.15433100  1
  N  14  1  0.99114200  0.72287000  0.56976000  1
  N  16  1  0.99109800  0.72242500  0.60447700  1
  N  18  1  0.99644000  0.75719100  0.60472300  1
  N  20  1  0.99105800  0.15123100  0.72659000  1
  N  22  1  0.99102400  0.11605100  0.72610900  1
  N  24  1  0.99638800  0.15055300  0.76089300  1
  N  26  1  0.99099000  0.56609200  0.84136500  1
  N  28  1  0.99116100  0.60079200  0.87654200  1
  N  30  1  0.99646900  0.60107000  0.84204000  1
  N  32  1  0.99112500  0.26600900  0.42651100  1
  N  34  1  0.99126300  0.26645300  0.39179500  1
  N  36  1  0.99676000  0.23168800  0.39155200  1
  N  38  1  0.98240800  0.56552900  0.72654500  1
  N  40  1  0.98100600  0.60051900  0.72666500  1
  N  42  1  0.99280800  0.60017600  0.76110600  1
  N  44  1  0.98267000  0.26603300  0.84085800  1
  N  46  1  0.98119300  0.26592700  0.87573300  1
  N  48  1  0.99279000  0.23147400  0.84095600  1
  N  50  1  0.98232600  0.15176800  0.42704900  1
  N  52  1  0.98091500  0.11689100  0.39207000  1
  N  54  1  0.99313900  0.15166100  0.39239500  1
  N  56  1  0.98239800  0.42337600  0.26973400  1
  N  58  1  0.98084700  0.38838100  0.26960100  1
  N  60  1  0.99291400  0.38873300  0.23516800  1
  N  62  1  0.98240800  0.72284500  0.15546700  1
  N  64  1  0.98100500  0.72296600  0.12059800  1
  N  66  1  0.99281300  0.75740600  0.15538000  1
  N  68  1  0.98272000  0.83715100  0.56926800  1
  N  70  1  0.98126400  0.87202800  0.60424700  1
  N  72  1  0.99264500  0.83725300  0.60392900  1
  N  74  1  0.98830200  0.87299900  0.15488800  1
  N  76  1  0.98677500  0.83800800  0.12008600  1
  N  78  1  0.98921400  0.83835300  0.15491000  1
  N  80  1  0.98824000  0.27263900  0.11956700  1
  N  82  1  0.98653200  0.27286000  0.15457300  1
  N  84  1  0.98946900  0.30732100  0.15419200  1
  N  86  1  0.98794800  0.83770800  0.71996900  1
  N  88  1  0.98665800  0.87249300  0.71974800  1
  N  90  1  0.98923100  0.83765100  0.68528400  1
  N  92  1  0.98800300  0.11591800  0.84139600  1
  N  94  1  0.98678000  0.15090900  0.87619700  1
  N  96  1  0.98943300  0.15056200  0.84137100  1
  N  98  1  0.98830500  0.71626200  0.87669800  1
  N  100  1  0.98677900  0.71607400  0.84170700  1
  N  102  1  0.98921400  0.68159600  0.84205300  1
  N  104  1  0.98820100  0.15122300  0.27635400  1
  N  106  1  0.98654200  0.11643100  0.27656000  1
  N  108  1  0.98959300  0.15126100  0.31102800  1
  N  110  1  0.98758500  0.90040500  0.39395300  1
  N  112  1  0.98722900  0.93184500  0.38788800  1
  N  114  1  0.98624500  0.93784800  0.42517700  1
  N  116  1  0.98753400  0.48428700  0.09221500  1
  N  118  1  0.98730300  0.44678200  0.06077400  1
  N  120  1  0.98623400  0.47807000  0.05477200  1
  N  122  1  0.98752100  0.59865200  0.50830000  1
  N  124  1  0.98724700  0.60472000  0.54580700  1
  N  126  1  0.98618400  0.56743000  0.51452200  1
  N  128  1  0.98747500  0.08851100  0.60235700  1
  N  130  1  0.98724300  0.05706500  0.60841500  1
  N  132  1  0.98617100  0.05107000  0.57112900  1
  N  134  1  0.98755100  0.50459400  0.90409700  1
  N  136  1  0.98721700  0.54210000  0.93553700  1
  N  138  1  0.98622000  0.51081300  0.94154000  1
  N  140  1  0.98753400  0.39022800  0.48797600  1
  N  142  1  0.98723300  0.38415800  0.45046800  1
  N  144  1  0.98622600  0.42144900  0.48175300  1
  N  146  1  0.98392400  0.50455400  0.60266900  1
  N  148  1  0.98387700  0.54201100  0.60862600  1
  N  150  1  0.98625500  0.51065000  0.57135800  1
  N  152  1  0.98405500  0.38991200  0.90374300  1
  N  154  1  0.98404500  0.38396700  0.93525000  1
  N  156  1  0.98635700  0.42123200  0.94114500  1
  N  158  1  0.98368900  0.08887700  0.48803900  1
  N  160  1  0.98375300  0.05737300  0.45058400  1
  N  162  1  0.98610500  0.05147400  0.48195100  1
  N  164  1  0.98376800  0.48431900  0.39360200  1
  N  166  1  0.98383800  0.44686100  0.38764300  1
  N  168  1  0.98617000  0.47822200  0.42491300  1
  N  170  1  0.98389700  0.59897100  0.09256700  1
  N  172  1  0.98386900  0.60492500  0.06106500  1
  N  174  1  0.98623600  0.56765800  0.05516200  1
  N  176  1  0.98414500  0.90003900  0.50827500  1
  N  178  1  0.98409500  0.93154600  0.54572900  1
  N  180  1  0.98638200  0.93744100  0.51435800  1
  N  182  1  0.98921700  0.89886500  0.05909000  1
  N  184  1  0.98932200  0.93362800  0.09385100  1
  N  186  1  0.98966100  0.93361800  0.05908500  1
  N  188  1  0.98903700  0.15099200  0.09374800  1
  N  190  1  0.98917000  0.15098700  0.05898100  1
  N  192  1  0.98956300  0.11623100  0.05899500  1
  N  194  1  0.98907300  0.93352800  0.84161600  1
  N  196  1  0.98922100  0.89876700  0.84162000  1
  N  198  1  0.98961800  0.93353500  0.87637500  1
  N  200  1  0.98904600  0.09006600  0.93720900  1
  N  202  1  0.98918100  0.05530000  0.90244700  1
  N  204  1  0.98958000  0.05531300  0.93721500  1
  N  206  1  0.98921100  0.83792500  0.90255200  1
  N  208  1  0.98935200  0.83793100  0.93731800  1
  N  210  1  0.98967800  0.87268600  0.93730400  1
  N  212  1  0.98902000  0.05540500  0.15469900  1
  N  214  1  0.98913000  0.09016400  0.15469200  1
  N  216  1  0.98955900  0.05539500  0.11993900  1
