# generated using pymatgen
data_H32C47N4
_symmetry_space_group_name_H-M   'P 1'
_cell_length_a   37.31830000
_cell_length_b   55.23250000
_cell_length_c   55.23250000
_cell_angle_alpha   60.00000000
_cell_angle_beta   90.00010000
_cell_angle_gamma   90.00000000
_symmetry_Int_Tables_number   1
_chemical_formula_structural   H32C47N4
_chemical_formula_sum   'H384 C564 N48'
_cell_volume   98592.04748394
_cell_formula_units_Z   12
loop_
 _symmetry_equiv_pos_site_id
 _symmetry_equiv_pos_as_xyz
  1  'x, y, z'
loop_
 _atom_site_type_symbol
 _atom_site_label
 _atom_site_symmetry_multiplicity
 _atom_site_fract_x
 _atom_site_fract_y
 _atom_site_fract_z
 _atom_site_occupancy
  H  20  1  0.62406700  0.02871600  0.60863200  1
  H  21  1  0.54838000  0.94666600  0.64179000  1
  H  22  1  0.61224400  0.94217400  0.63985400  1
  H  23  1  0.56038200  0.03338400  0.61035500  1
  H  24  1  0.68036600  0.94258600  0.61011100  1
  H  25  1  0.66502500  0.02970500  0.57150800  1
  H  26  1  0.67691500  0.03436900  0.52686100  1
  H  27  1  0.69204700  0.94709000  0.56524400  1
  H  28  1  0.69271700  0.02978000  0.61179600  1
  H  29  1  0.72548600  0.94922500  0.70071600  1
  H  30  1  0.68505800  0.94356500  0.67002400  1
  H  31  1  0.73307600  0.03556900  0.64221200  1
  H  54  1  0.62030400  0.60239600  0.37934100  1
  H  55  1  0.54470300  0.63781700  0.42623900  1
  H  56  1  0.60847400  0.63517900  0.43335700  1
  H  57  1  0.55678900  0.60486500  0.37223600  1
  H  58  1  0.67761100  0.60498200  0.46312000  1
  H  59  1  0.66158400  0.56602800  0.41499400  1
  H  60  1  0.67510600  0.52161700  0.45475100  1
  H  61  1  0.69092700  0.56032400  0.50327300  1
  H  62  1  0.68759600  0.60633500  0.37412200  1
  H  63  1  0.72167600  0.69524400  0.36520500  1
  H  64  1  0.68205400  0.66455000  0.40223800  1
  H  65  1  0.72698400  0.63673200  0.33723200  1
  H  88  1  0.61989400  0.37454200  0.03202900  1
  H  89  1  0.54478700  0.42129200  0.94941300  1
  H  90  1  0.60858400  0.42826600  0.94513700  1
  H  91  1  0.55635700  0.36757400  0.03645900  1
  H  92  1  0.67763600  0.45804900  0.94568600  1
  H  93  1  0.66113200  0.41019300  0.03272900  1
  H  94  1  0.67456500  0.45001300  0.03727200  1
  H  95  1  0.69084900  0.49830000  0.95006400  1
  H  96  1  0.68707300  0.36921500  0.03365500  1
  H  97  1  0.72208000  0.35982400  0.95411700  1
  H  98  1  0.68242400  0.39698000  0.94736800  1
  H  99  1  0.72650700  0.33221700  0.04055000  1
  H  122  1  0.62019200  0.97560200  0.40473400  1
  H  123  1  0.54483200  0.05804700  0.36932300  1
  H  124  1  0.60863200  0.06243100  0.37188000  1
  H  125  1  0.55664400  0.97106300  0.40234700  1
  H  126  1  0.67764600  0.06191100  0.40209400  1
  H  127  1  0.66166700  0.97482400  0.44104200  1
  H  128  1  0.67502800  0.97018200  0.48547800  1
  H  129  1  0.69079500  0.05742800  0.44676700  1
  H  130  1  0.68744000  0.97420100  0.40074000  1
  H  131  1  0.72179100  0.05411900  0.31186700  1
  H  132  1  0.68224500  0.06055000  0.34254300  1
  H  133  1  0.72675100  0.96761800  0.37036500  1
  H  156  1  0.62413100  0.39854200  0.63628400  1
  H  157  1  0.54864000  0.36561300  0.58708700  1
  H  158  1  0.61253900  0.36738100  0.58089500  1
  H  159  1  0.56040600  0.39698700  0.64243800  1
  H  160  1  0.68068500  0.39699100  0.55176300  1
  H  161  1  0.66529600  0.43559400  0.60027200  1
  H  162  1  0.67721500  0.48023700  0.56030000  1
  H  163  1  0.69239500  0.44185500  0.51140700  1
  H  164  1  0.69277800  0.39526400  0.64070600  1
  H  165  1  0.72549400  0.30631000  0.64912600  1
  H  166  1  0.68520300  0.33705900  0.61268600  1
  H  167  1  0.73300200  0.36479300  0.67699800  1
  H  190  1  0.62418500  0.63148700  0.97908900  1
  H  191  1  0.54823800  0.58212500  0.06091900  1
  H  192  1  0.61210200  0.57575500  0.06552100  1
  H  193  1  0.56049200  0.63782000  0.97430600  1
  H  194  1  0.68039600  0.54664500  0.06511500  1
  H  195  1  0.66524800  0.59543000  0.97799700  1
  H  196  1  0.67714800  0.55554100  0.97317200  1
  H  197  1  0.69210000  0.50638000  0.06044400  1
  H  198  1  0.69296300  0.63569300  0.97824700  1
  H  199  1  0.72477600  0.64374400  0.05915400  1
  H  200  1  0.68453600  0.60740900  0.06448400  1
  H  201  1  0.73313500  0.67188400  0.97278500  1
  H  224  1  0.37987300  0.63158500  0.40270100  1
  H  225  1  0.45581400  0.58210900  0.37035900  1
  H  226  1  0.39194700  0.57577200  0.37209800  1
  H  227  1  0.44357600  0.63788000  0.40118600  1
  H  228  1  0.32352000  0.54674800  0.40152400  1
  H  229  1  0.33894100  0.59543400  0.43993500  1
  H  230  1  0.32702500  0.55553300  0.48463900  1
  H  231  1  0.31179100  0.50645800  0.44645000  1
  H  232  1  0.31100600  0.63568500  0.39944600  1
  H  233  1  0.27920400  0.64377600  0.31046800  1
  H  234  1  0.31952500  0.60748500  0.34143000  1
  H  235  1  0.27075800  0.67183400  0.36875600  1
  H  258  1  0.38380700  0.97564100  0.63311100  1
  H  259  1  0.45908600  0.05813300  0.58609900  1
  H  260  1  0.39527800  0.06249200  0.57921600  1
  H  261  1  0.44736000  0.97112900  0.63998000  1
  H  262  1  0.32639500  0.06194200  0.54946800  1
  H  263  1  0.34224500  0.97484500  0.59766400  1
  H  264  1  0.32896500  0.97018900  0.55787200  1
  H  265  1  0.31333200  0.05744500  0.50927500  1
  H  266  1  0.31663600  0.97419100  0.63861000  1
  H  267  1  0.28196700  0.05409600  0.64748500  1
  H  268  1  0.32154500  0.06056400  0.61038200  1
  H  269  1  0.27730100  0.96757100  0.67556500  1
  H  292  1  0.37976800  0.39856100  0.97866100  1
  H  293  1  0.45527300  0.36545600  0.06080000  1
  H  294  1  0.39138200  0.36726400  0.06523200  1
  H  295  1  0.44347700  0.39696400  0.97405300  1
  H  296  1  0.32335400  0.39700100  0.06475100  1
  H  297  1  0.33858200  0.43555400  0.97762700  1
  H  298  1  0.32675400  0.48021200  0.97294200  1
  H  299  1  0.31174000  0.44188300  0.06022700  1
  H  300  1  0.31124200  0.39524100  0.97749800  1
  H  301  1  0.27829300  0.30634600  0.05800600  1
  H  302  1  0.31857300  0.33706800  0.06374700  1
  H  303  1  0.27104200  0.36479800  0.97162900  1
  H  326  1  0.38404200  0.37471100  0.60664000  1
  H  327  1  0.45903000  0.42130700  0.64274400  1
  H  328  1  0.39522500  0.42826400  0.64002200  1
  H  329  1  0.44758000  0.36776000  0.60920300  1
  H  330  1  0.32635000  0.45813900  0.60955400  1
  H  331  1  0.34258000  0.41018900  0.57043700  1
  H  332  1  0.32915000  0.44999900  0.52606600  1
  H  333  1  0.31315200  0.49836700  0.56491800  1
  H  334  1  0.31698400  0.36915900  0.61052000  1
  H  335  1  0.28178200  0.35983200  0.69938700  1
  H  336  1  0.32136300  0.39704300  0.66895800  1
  H  337  1  0.27762800  0.33210900  0.64064100  1
  H  360  1  0.37991600  0.02861800  0.37607600  1
  H  361  1  0.45560800  0.94658400  0.42506200  1
  H  362  1  0.39175400  0.94210600  0.43152900  1
  H  363  1  0.44359800  0.03327500  0.36964800  1
  H  364  1  0.32352300  0.94254300  0.46081100  1
  H  365  1  0.33916900  0.02963200  0.41232300  1
  H  366  1  0.32736000  0.03431700  0.45230100  1
  H  367  1  0.31191700  0.94706000  0.50118800  1
  H  368  1  0.31116700  0.02969200  0.37203000  1
  H  369  1  0.27855000  0.94916900  0.36356200  1
  H  370  1  0.31898300  0.94350800  0.39991100  1
  H  371  1  0.27080000  0.03548300  0.33582700  1
  H  394  1  0.38376600  0.60245300  0.03167200  1
  H  395  1  0.45933000  0.63789900  0.94933200  1
  H  396  1  0.39556200  0.63525000  0.94487000  1
  H  397  1  0.44728200  0.60493000  0.03629100  1
  H  398  1  0.32644600  0.60499700  0.94533800  1
  H  399  1  0.34247800  0.56607200  0.03241800  1
  H  400  1  0.32902100  0.52163800  0.03708600  1
  H  401  1  0.31320100  0.56032700  0.94984800  1
  H  402  1  0.31645600  0.60636800  0.03296600  1
  H  403  1  0.28227500  0.69523600  0.95296100  1
  H  404  1  0.32193100  0.66455700  0.94662300  1
  H  405  1  0.27703300  0.63675100  0.03945300  1
  H  434  1  0.86199600  0.92918700  0.88458500  1
  H  435  1  0.87803500  0.96925700  0.84209500  1
  H  436  1  0.75932800  0.92980100  0.85203500  1
  H  437  1  0.77550800  0.97040600  0.80913900  1
  H  438  1  0.77658900  0.02614800  0.78655300  1
  H  439  1  0.76120000  0.06162000  0.79728700  1
  H  440  1  0.86512200  0.05654800  0.82983100  1
  H  441  1  0.88041200  0.02144000  0.81900300  1
  H  442  1  0.89080900  0.04137600  0.76452200  1
  H  443  1  0.95338400  0.03861000  0.75799800  1
  H  444  1  0.94480800  0.95103300  0.79385900  1
  H  445  1  0.88250000  0.95380500  0.80048400  1
  H  446  1  0.82067100  0.95895100  0.77881000  1
  H  447  1  0.82615300  0.04663600  0.74251400  1
  H  448  1  0.80011600  0.05217200  0.70085000  1
  H  449  1  0.79506200  0.96433900  0.73718900  1
  H  452  1  0.81157900  0.08284200  0.83675200  1
  H  453  1  0.79948600  0.88395800  0.89378800  1
  H  455  1  0.00200200  0.98045800  0.79593000  1
  H  457  1  0.78222500  0.02961500  0.67294300  1
  H  483  1  0.86952000  0.87635900  0.20089900  1
  H  484  1  0.88162500  0.83282900  0.20414700  1
  H  485  1  0.76618700  0.84804000  0.23444200  1
  H  486  1  0.77837700  0.80422600  0.23761100  1
  H  487  1  0.77681000  0.78758500  0.19928300  1
  H  488  1  0.76387000  0.79970100  0.15225000  1
  H  489  1  0.87348100  0.81725900  0.13185700  1
  H  490  1  0.88629500  0.80514800  0.17856400  1
  H  491  1  0.88476700  0.74953800  0.21628400  1
  H  492  1  0.94521600  0.73572300  0.22973800  1
  H  493  1  0.94609500  0.77999400  0.27376600  1
  H  494  1  0.88560100  0.79319800  0.26086500  1
  H  495  1  0.82300700  0.77008200  0.27885100  1
  H  496  1  0.81647500  0.73817700  0.22369600  1
  H  497  1  0.78747600  0.69759200  0.25874200  1
  H  498  1  0.79446800  0.72930900  0.31414100  1
  H  501  1  0.82019700  0.83200200  0.09515000  1
  H  502  1  0.80586700  0.88886600  0.23645000  1
  H  504  1  0.99806100  0.74665100  0.27582800  1
  H  506  1  0.77287600  0.66811700  0.30968200  1
  H  532  1  0.86690600  0.19588600  0.93654000  1
  H  533  1  0.88034000  0.19882300  0.97687300  1
  H  534  1  0.76481500  0.23096800  0.93200100  1
  H  535  1  0.77817900  0.23360700  0.97275600  1
  H  536  1  0.77845000  0.19276600  0.02794400  1
  H  537  1  0.76769100  0.14565900  0.06374000  1
  H  538  1  0.87822200  0.12825200  0.06569300  1
  H  539  1  0.88887000  0.17500000  0.03024300  1
  H  540  1  0.88474600  0.21385400  0.04746600  1
  H  541  1  0.94499400  0.22782800  0.04742600  1
  H  542  1  0.94673900  0.26813500  0.95924600  1
  H  543  1  0.88631500  0.25491600  0.95929000  1
  H  544  1  0.82435100  0.27432800  0.96591500  1
  H  545  1  0.81542500  0.21792100  0.05257100  1
  H  546  1  0.78582500  0.25256000  0.05839800  1
  H  547  1  0.79534400  0.30924700  0.97172100  1
  H  550  1  0.82534500  0.09007100  0.08883200  1
  H  551  1  0.80571700  0.23276600  0.88860000  1
  H  553  1  0.99841300  0.27184200  0.98967200  1
  H  555  1  0.77119500  0.30340400  0.03760300  1
  H  581  1  0.86997000  0.07111700  0.13100200  1
  H  582  1  0.88251800  0.03089800  0.17450100  1
  H  583  1  0.76647000  0.07548900  0.15958100  1
  H  584  1  0.77909000  0.03492500  0.20332800  1
  H  585  1  0.77899600  0.97970300  0.21951100  1
  H  586  1  0.76788600  0.94378400  0.20845300  1
  H  587  1  0.87813500  0.94204500  0.19202000  1
  H  588  1  0.88914300  0.97763000  0.20308900  1
  H  589  1  0.88580200  0.96008700  0.25897000  1
  H  590  1  0.94612900  0.96011500  0.27277600  1
  H  591  1  0.94706000  0.04837600  0.22655900  1
  H  592  1  0.88659500  0.04832100  0.21343900  1
  H  593  1  0.82372000  0.04251200  0.23740500  1
  H  594  1  0.81719800  0.95548500  0.26910000  1
  H  595  1  0.78748600  0.94990900  0.30942900  1
  H  596  1  0.79449100  0.03698200  0.27796100  1
  H  599  1  0.82503600  0.91855000  0.17771200  1
  H  600  1  0.80587000  0.11870800  0.11886200  1
  H  602  1  0.99915500  0.01741400  0.26036500  1
  H  604  1  0.77219800  0.97118700  0.33886800  1
  H  630  1  0.86273700  0.12282100  0.81203300  1
  H  631  1  0.87928000  0.16528500  0.80949500  1
  H  632  1  0.75932500  0.15509800  0.78218300  1
  H  633  1  0.77601800  0.19795500  0.77976900  1
  H  634  1  0.77883700  0.22097500  0.81272500  1
  H  635  1  0.76562700  0.21129300  0.85894400  1
  H  636  1  0.86985800  0.17853100  0.88455300  1
  H  637  1  0.88300400  0.18834900  0.83857400  1
  H  638  1  0.89232600  0.24336100  0.80368800  1
  H  639  1  0.95466000  0.25016600  0.79361200  1
  H  640  1  0.94492900  0.21361800  0.74257800  1
  H  641  1  0.88282600  0.20668100  0.75279500  1
  H  642  1  0.82051800  0.22814000  0.73700600  1
  H  643  1  0.82763100  0.26489700  0.78790800  1
  H  644  1  0.80102700  0.30638500  0.75198100  1
  H  645  1  0.79435900  0.26958600  0.70096100  1
  H  648  1  0.81716900  0.17284100  0.91875900  1
  H  649  1  0.79918700  0.11369700  0.77696500  1
  H  651  1  0.00269100  0.21215100  0.77250400  1
  H  653  1  0.78201300  0.33401700  0.70188000  1
  H  679  1  0.86615300  0.80681500  0.07881700  1
  H  680  1  0.88117200  0.80386100  0.03892300  1
  H  681  1  0.76117700  0.77910800  0.07699200  1
  H  682  1  0.77646900  0.77603400  0.03665900  1
  H  683  1  0.77752600  0.80596400  0.98080000  1
  H  684  1  0.76171300  0.85196000  0.94522200  1
  H  685  1  0.86429000  0.88068300  0.95154800  1
  H  686  1  0.88002500  0.83489900  0.98679900  1
  H  687  1  0.89217900  0.80159700  0.96603600  1
  H  688  1  0.95477000  0.79233200  0.96887200  1
  H  689  1  0.94519300  0.73749400  0.05587600  1
  H  690  1  0.88286600  0.74688500  0.05305800  1
  H  691  1  0.81881700  0.73261000  0.04934900  1
  H  692  1  0.82887800  0.78189000  0.96170000  1
  H  693  1  0.80254000  0.74561800  0.95654900  1
  H  694  1  0.79278600  0.69627900  0.04435700  1
  H  697  1  0.81083400  0.91327000  0.92438300  1
  H  698  1  0.79987200  0.77356100  0.12302100  1
  H  700  1  0.00254600  0.77090700  0.02677700  1
  H  702  1  0.78286900  0.69571300  0.97952500  1
  H  728  1  0.13766700  0.80700400  0.12773800  1
  H  729  1  0.12271000  0.80400600  0.17060900  1
  H  730  1  0.24251700  0.77891400  0.15732500  1
  H  731  1  0.22729900  0.77582600  0.20074900  1
  H  732  1  0.22629100  0.80601400  0.22644400  1
  H  733  1  0.24201800  0.85203000  0.21602800  1
  H  734  1  0.13918700  0.88054100  0.18144900  1
  H  735  1  0.12354600  0.83474800  0.19197600  1
  H  736  1  0.11161600  0.80127600  0.24598900  1
  H  737  1  0.04903000  0.79196600  0.25238800  1
  H  738  1  0.05869600  0.73741500  0.21988100  1
  H  739  1  0.12102400  0.74687300  0.21332200  1
  H  740  1  0.18491200  0.73252300  0.23150900  1
  H  741  1  0.17509700  0.78188600  0.26980300  1
  H  742  1  0.20146700  0.74562700  0.31121700  1
  H  743  1  0.21097700  0.69620000  0.27282800  1
  H  746  1  0.19254400  0.91324100  0.17583800  1
  H  747  1  0.20393800  0.77357000  0.11677300  1
  H  749  1  0.00129000  0.77068600  0.21571300  1
  H  751  1  0.22107400  0.69570900  0.33817700  1
  H  777  1  0.13401000  0.07078100  0.81167000  1
  H  778  1  0.12154400  0.03053300  0.80842300  1
  H  779  1  0.23722200  0.07561500  0.77809700  1
  H  780  1  0.22469200  0.03500900  0.77496600  1
  H  781  1  0.22501300  0.97981100  0.81419100  1
  H  782  1  0.23637800  0.94396200  0.86114800  1
  H  783  1  0.12612100  0.94165400  0.87952400  1
  H  784  1  0.11485800  0.97720300  0.83289300  1
  H  785  1  0.11807900  0.95998200  0.79442000  1
  H  786  1  0.05768000  0.96003900  0.78068200  1
  H  787  1  0.05675300  0.04829700  0.73878900  1
  H  788  1  0.11725700  0.04821100  0.75190600  1
  H  789  1  0.17991700  0.04234500  0.73356300  1
  H  790  1  0.18685000  0.95534700  0.78896100  1
  H  791  1  0.21655900  0.94981000  0.75418100  1
  H  792  1  0.20914400  0.03684600  0.69851700  1
  H  795  1  0.17919700  0.91848000  0.91719700  1
  H  796  1  0.19791900  0.11863100  0.77586600  1
  H  798  1  0.00461200  0.01722000  0.73590900  1
  H  800  1  0.23167000  0.97112600  0.70338900  1
  H  826  1  0.14085400  0.12289800  0.07817100  1
  H  827  1  0.12455100  0.16539700  0.03820800  1
  H  828  1  0.24411400  0.15512500  0.07637500  1
  H  829  1  0.22766600  0.19801600  0.03587200  1
  H  830  1  0.22505900  0.22073300  0.97982800  1
  H  831  1  0.23823500  0.21107000  0.94326700  1
  H  832  1  0.13366700  0.17901700  0.94992800  1
  H  833  1  0.12055500  0.18882200  0.98610100  1
  H  834  1  0.11163500  0.24377400  0.96624100  1
  H  835  1  0.04930600  0.25055600  0.96949000  1
  H  836  1  0.05883800  0.21353500  0.05713900  1
  H  837  1  0.12095400  0.20660700  0.05387700  1
  H  838  1  0.18307900  0.22830300  0.04813100  1
  H  839  1  0.17662700  0.26492900  0.96045500  1
  H  840  1  0.20330300  0.30637700  0.95493200  1
  H  841  1  0.20931100  0.26971600  0.04276300  1
  H  844  1  0.18654400  0.17293300  0.92175300  1
  H  845  1  0.20429400  0.11372300  0.12273300  1
  H  847  1  0.00115700  0.21227000  0.02856700  1
  H  849  1  0.22208400  0.33404900  0.97741700  1
  H  875  1  0.13694100  0.19597200  0.88084800  1
  H  876  1  0.12352200  0.19886500  0.83760200  1
  H  877  1  0.23905500  0.23100800  0.85031700  1
  H  878  1  0.22570200  0.23360700  0.80693800  1
  H  879  1  0.22541800  0.19275400  0.79259900  1
  H  880  1  0.23616300  0.14563000  0.80395900  1
  H  881  1  0.12563600  0.12823800  0.81946300  1
  H  882  1  0.11500000  0.17500300  0.80810900  1
  H  883  1  0.11913800  0.21381900  0.75200200  1
  H  884  1  0.05885900  0.22772800  0.73811200  1
  H  885  1  0.05709800  0.26809000  0.78593600  1
  H  886  1  0.11754900  0.25493800  0.79906300  1
  H  887  1  0.17952100  0.27433200  0.77303900  1
  H  888  1  0.18848400  0.21788400  0.74284100  1
  H  889  1  0.21817200  0.25249200  0.70240100  1
  H  890  1  0.20861400  0.30921800  0.73234100  1
  H  893  1  0.17854800  0.09004600  0.83454500  1
  H  894  1  0.19816300  0.23286700  0.89188300  1
  H  896  1  0.00543200  0.27171500  0.75191800  1
  H  898  1  0.23284600  0.30334400  0.67234700  1
  H  924  1  0.14143200  0.92881200  0.20024000  1
  H  925  1  0.12540500  0.96884800  0.20271500  1
  H  926  1  0.24455600  0.92998800  0.23120700  1
  H  927  1  0.22837900  0.97056700  0.23355400  1
  H  928  1  0.22700700  0.02640200  0.20076100  1
  H  929  1  0.24210400  0.06193800  0.15451700  1
  H  930  1  0.13837500  0.05607000  0.12724100  1
  H  931  1  0.12336300  0.02093900  0.17322100  1
  H  932  1  0.11290800  0.04129700  0.20748100  1
  H  933  1  0.05037300  0.03853400  0.21686700  1
  H  934  1  0.05912700  0.95105000  0.26913300  1
  H  935  1  0.12140700  0.95381200  0.25963600  1
  H  936  1  0.18360200  0.95883300  0.27572100  1
  H  937  1  0.17737500  0.04650100  0.22452700  1
  H  938  1  0.20348200  0.05206600  0.26061700  1
  H  939  1  0.20928400  0.96423800  0.31191200  1
  H  942  1  0.19168900  0.08285100  0.09388500  1
  H  943  1  0.20440100  0.88390500  0.23568900  1
  H  945  1  0.00187600  0.98029700  0.23751400  1
  H  947  1  0.22174900  0.02954000  0.31096300  1
  H  973  1  0.13458900  0.87636700  0.93587300  1
  H  974  1  0.12228400  0.83285100  0.97612600  1
  H  975  1  0.23805800  0.84797500  0.93110400  1
  H  976  1  0.22566200  0.80417600  0.97170300  1
  H  977  1  0.22703400  0.78740100  0.02665000  1
  H  978  1  0.23986400  0.79949200  0.06160100  1
  H  979  1  0.13030600  0.81745000  0.06401000  1
  H  980  1  0.11759700  0.80536500  0.02938300  1
  H  981  1  0.11900900  0.74967400  0.04748100  1
  H  982  1  0.05853700  0.73591800  0.04780000  1
  H  983  1  0.05784600  0.78000900  0.95950600  1
  H  984  1  0.11836100  0.79315000  0.95923800  1
  H  985  1  0.18104300  0.77010800  0.96437800  1
  H  986  1  0.18719800  0.73815100  0.05146500  1
  H  987  1  0.21624000  0.69755900  0.05704900  1
  H  988  1  0.20961900  0.72932800  0.96990700  1
  H  991  1  0.18346300  0.83199100  0.08613900  1
  H  992  1  0.19847900  0.88888300  0.88806700  1
  H  994  1  0.00576700  0.74679100  0.99076800  1
  H  996  1  0.23107500  0.66811300  0.03560500  1
  C  2  1  0.67251500  0.98577600  0.59497400  1
  C  3  1  0.62393500  0.98496700  0.62425800  1
  C  4  1  0.68551900  0.98607300  0.63807200  1
  C  5  1  0.60840100  0.01125900  0.61615500  1
  C  6  1  0.57103900  0.01396600  0.61717200  1
  C  7  1  0.54847100  0.99037500  0.62643900  1
  C  8  1  0.56415200  0.96400200  0.63532900  1
  C  9  1  0.60150900  0.96133500  0.63418100  1
  C  10  1  0.67229500  0.01236700  0.57057200  1
  C  11  1  0.67931800  0.01507600  0.54433900  1
  C  12  1  0.68676200  0.99122000  0.54197900  1
  C  13  1  0.68799000  0.96477600  0.56648400  1
  C  14  1  0.68107400  0.96208900  0.59276100  1
  C  15  1  0.69986900  0.01265100  0.63027600  1
  C  16  1  0.72371700  0.01599600  0.64809100  1
  C  17  1  0.73365800  0.99276300  0.67403900  1
  C  18  1  0.71907600  0.96628900  0.68185300  1
  C  19  1  0.69541800  0.96293000  0.66395000  1
  C  36  1  0.66914900  0.58966400  0.43527800  1
  C  37  1  0.62018100  0.61865100  0.40695100  1
  C  38  1  0.68148900  0.63260800  0.39167000  1
  C  39  1  0.60467900  0.61026300  0.38897200  1
  C  40  1  0.56739500  0.61175200  0.38479600  1
  C  41  1  0.54482900  0.62176800  0.39846000  1
  C  42  1  0.56047100  0.63077800  0.41586100  1
  C  43  1  0.59777100  0.62922900  0.42007000  1
  C  44  1  0.66922700  0.56523700  0.43312600  1
  C  45  1  0.67730300  0.53914400  0.45649800  1
  C  46  1  0.68543600  0.53694300  0.48254600  1
  C  47  1  0.68625600  0.56147200  0.48445600  1
  C  48  1  0.67838900  0.58761700  0.46099500  1
  C  49  1  0.69497800  0.62482400  0.37264000  1
  C  50  1  0.71824300  0.64267800  0.35102300  1
  C  51  1  0.72852200  0.66866000  0.34808500  1
  C  52  1  0.71494700  0.67639800  0.36708800  1
  C  53  1  0.69179700  0.65847500  0.38877800  1
  C  70  1  0.66890800  0.43034000  0.98883600  1
  C  71  1  0.62004700  0.40196600  0.98813000  1
  C  72  1  0.68139000  0.38659400  0.98982100  1
  C  73  1  0.60438500  0.38410000  0.01446400  1
  C  74  1  0.56708100  0.38002500  0.01703600  1
  C  75  1  0.54465500  0.39364800  0.99326600  1
  C  76  1  0.56045400  0.41090400  0.96688600  1
  C  77  1  0.59777400  0.41504700  0.96435000  1
  C  78  1  0.66881700  0.42829100  0.01536900  1
  C  79  1  0.67681300  0.45171500  0.01801800  1
  C  80  1  0.68502300  0.47772000  0.99414000  1
  C  81  1  0.68603100  0.47952800  0.96775300  1
  C  82  1  0.67821400  0.45601700  0.96514200  1
  C  83  1  0.69464300  0.36763200  0.01674000  1
  C  84  1  0.71793700  0.34594600  0.02074400  1
  C  85  1  0.72845500  0.34284600  0.99784300  1
  C  86  1  0.71515900  0.36180800  0.97098800  1
  C  87  1  0.69197400  0.38356300  0.96698300  1
  C  104  1  0.66919200  0.01875000  0.41740900  1
  C  105  1  0.62021300  0.01947700  0.38841600  1
  C  106  1  0.68149700  0.01803700  0.37447000  1
  C  107  1  0.60462300  0.99313100  0.39683900  1
  C  108  1  0.56731400  0.99049700  0.39542200  1
  C  109  1  0.54482100  0.01421700  0.38538800  1
  C  110  1  0.56055100  0.04061100  0.37631900  1
  C  111  1  0.59786800  0.04321000  0.37785200  1
  C  112  1  0.66918400  0.99218000  0.44184900  1
  C  113  1  0.67718000  0.98946400  0.46795000  1
  C  114  1  0.68525600  0.01331800  0.47015100  1
  C  115  1  0.68618100  0.03975200  0.44561900  1
  C  116  1  0.67832400  0.04242800  0.41947500  1
  C  117  1  0.69487400  0.99119500  0.38225200  1
  C  118  1  0.71810400  0.98737800  0.36441400  1
  C  119  1  0.72843100  0.01039100  0.33842500  1
  C  120  1  0.71499500  0.03716800  0.33070100  1
  C  121  1  0.69187800  0.04098500  0.34860900  1
  C  138  1  0.67281800  0.41212700  0.57981500  1
  C  139  1  0.62411800  0.38292300  0.60815600  1
  C  140  1  0.68563200  0.36900400  0.62325200  1
  C  141  1  0.60850300  0.39105800  0.62629500  1
  C  142  1  0.57111900  0.39014200  0.62987800  1
  C  143  1  0.54861000  0.38094500  0.61546000  1
  C  144  1  0.56436700  0.37202000  0.59803000  1
  C  145  1  0.60174500  0.37306800  0.59435500  1
  C  146  1  0.67259800  0.43652800  0.58200800  1
  C  147  1  0.67963200  0.46276100  0.55848600  1
  C  148  1  0.68708700  0.46512200  0.53227000  1
  C  149  1  0.68833500  0.44061300  0.53033400  1
  C  150  1  0.68140300  0.41433900  0.55392000  1
  C  151  1  0.69991100  0.37677000  0.64207700  1
  C  152  1  0.72367500  0.35892000  0.66329200  1
  C  153  1  0.73360000  0.33296300  0.66602200  1
  C  154  1  0.71908200  0.32517400  0.64732500  1
  C  155  1  0.69550600  0.34311100  0.62600900  1
  C  172  1  0.67262700  0.57481700  0.02194100  1
  C  173  1  0.62391400  0.60316300  0.02279200  1
  C  174  1  0.68542300  0.61810700  0.02193800  1
  C  175  1  0.60845500  0.62143900  0.99649900  1
  C  176  1  0.57109300  0.62513200  0.99372500  1
  C  177  1  0.54845500  0.61068500  0.01725300  1
  C  178  1  0.56405900  0.59309300  0.04362900  1
  C  179  1  0.60142100  0.58933800  0.04636900  1
  C  180  1  0.67251500  0.57712500  0.99529700  1
  C  181  1  0.67961000  0.55367000  0.99248400  1
  C  182  1  0.68691800  0.52739500  0.01630200  1
  C  183  1  0.68807300  0.52534600  0.04279700  1
  C  184  1  0.68117800  0.54888000  0.04557900  1
  C  185  1  0.69992200  0.63697700  0.99544900  1
  C  186  1  0.72364200  0.65813400  0.99229600  1
  C  187  1  0.73331600  0.66074900  0.01563800  1
  C  188  1  0.71856400  0.64201300  0.04202000  1
  C  189  1  0.69503400  0.62075200  0.04518600  1
  C  206  1  0.33147800  0.57485900  0.41657500  1
  C  207  1  0.38013800  0.60324700  0.38733900  1
  C  208  1  0.31859700  0.61814500  0.37330500  1
  C  209  1  0.39560000  0.62155500  0.39531700  1
  C  210  1  0.43296700  0.62518800  0.39446000  1
  C  211  1  0.45560200  0.61071500  0.38540800  1
  C  212  1  0.43999400  0.59313900  0.37660500  1
  C  213  1  0.40263100  0.58938400  0.37762900  1
  C  214  1  0.33166300  0.57713500  0.44093200  1
  C  215  1  0.32458600  0.55366600  0.46719400  1
  C  216  1  0.31722300  0.52741000  0.46961900  1
  C  217  1  0.31595800  0.52539500  0.44516000  1
  C  218  1  0.32287700  0.54893700  0.41885400  1
  C  219  1  0.30404700  0.63697500  0.38095700  1
  C  220  1  0.28028400  0.65810900  0.36297400  1
  C  221  1  0.27059900  0.66072900  0.33701600  1
  C  222  1  0.28541300  0.64203400  0.32933900  1
  C  223  1  0.30899400  0.62080200  0.34740500  1
  C  240  1  0.33477200  0.01877700  0.57734600  1
  C  241  1  0.38373400  0.01952800  0.60560700  1
  C  242  1  0.32244300  0.01804300  0.62100500  1
  C  243  1  0.39935700  0.99318100  0.62348800  1
  C  244  1  0.43666800  0.99056200  0.62750400  1
  C  245  1  0.45914500  0.01429500  0.61382200  1
  C  246  1  0.44338600  0.04068700  0.59653900  1
  C  247  1  0.40606100  0.04327100  0.59244200  1
  C  248  1  0.33476400  0.99220100  0.57948900  1
  C  249  1  0.32681600  0.98947600  0.55610200  1
  C  250  1  0.31880600  0.01332900  0.53003000  1
  C  251  1  0.31789300  0.03976900  0.52811300  1
  C  252  1  0.32570100  0.04245300  0.55158300  1
  C  253  1  0.30913800  0.99118200  0.64008500  1
  C  254  1  0.28589000  0.98734300  0.66173900  1
  C  255  1  0.27546600  0.01035200  0.66469100  1
  C  256  1  0.28882900  0.03714700  0.64561900  1
  C  257  1  0.31196800  0.04098600  0.62389500  1
  C  274  1  0.33112700  0.41210600  0.02155900  1
  C  275  1  0.37979000  0.38287900  0.02242100  1
  C  276  1  0.31826500  0.36899800  0.02122900  1
  C  277  1  0.39539300  0.39104300  0.99613900  1
  C  278  1  0.43277200  0.39010000  0.99346700  1
  C  279  1  0.45528900  0.38085100  0.01708200  1
  C  280  1  0.43954300  0.37190100  0.04344700  1
  C  281  1  0.40216800  0.37297400  0.04607600  1
  C  282  1  0.33132600  0.43650200  0.99495900  1
  C  283  1  0.32434500  0.46274300  0.99224100  1
  C  284  1  0.31696800  0.46512400  0.01609300  1
  C  285  1  0.31573800  0.44062600  0.04254400  1
  C  286  1  0.32261400  0.41434100  0.04524200  1
  C  287  1  0.30406000  0.37676400  0.99461600  1
  C  288  1  0.28030500  0.35892700  0.99122300  1
  C  289  1  0.27031300  0.33298200  0.01444000  1
  C  290  1  0.28475100  0.32519900  0.04094800  1
  C  291  1  0.30831800  0.34312400  0.04435400  1
  C  308  1  0.33489200  0.43036800  0.59416100  1
  C  309  1  0.38382800  0.40207300  0.62319200  1
  C  310  1  0.32253100  0.38660100  0.63693300  1
  C  311  1  0.39953100  0.38427200  0.61465600  1
  C  312  1  0.43683400  0.38018600  0.61620000  1
  C  313  1  0.45922800  0.39376500  0.62641300  1
  C  314  1  0.44339100  0.41098800  0.63556300  1
  C  315  1  0.40606600  0.41510200  0.63396600  1
  C  316  1  0.33490300  0.42829000  0.56969100  1
  C  317  1  0.32688600  0.45170200  0.54361500  1
  C  318  1  0.31873100  0.47772600  0.54146200  1
  C  319  1  0.31783400  0.47956800  0.56602700  1
  C  320  1  0.32563400  0.45606300  0.59215900  1
  C  321  1  0.30938700  0.36758400  0.62900900  1
  C  322  1  0.28615200  0.34585700  0.64670900  1
  C  323  1  0.27557000  0.34278100  0.67268800  1
  C  324  1  0.28876200  0.36179300  0.68055200  1
  C  325  1  0.31188800  0.38358600  0.66278300  1
  C  342  1  0.33158600  0.98571100  0.43279200  1
  C  343  1  0.38005800  0.98488200  0.40424500  1
  C  344  1  0.31842900  0.98599800  0.38941500  1
  C  345  1  0.39558100  0.01115900  0.38600000  1
  C  346  1  0.43294100  0.01386000  0.38226400  1
  C  347  1  0.45551100  0.99027400  0.39661000  1
  C  348  1  0.43983300  0.96390700  0.41412800  1
  C  349  1  0.40247800  0.96124700  0.41796000  1
  C  350  1  0.33188600  0.01230500  0.43060100  1
  C  351  1  0.32486800  0.01503100  0.45411700  1
  C  352  1  0.31746400  0.99117000  0.48034100  1
  C  353  1  0.31612400  0.96473100  0.48227700  1
  C  354  1  0.32297300  0.96203700  0.45868400  1
  C  355  1  0.30402800  0.01256800  0.37066700  1
  C  356  1  0.28017700  0.01591300  0.34951000  1
  C  357  1  0.27029100  0.99269000  0.34675900  1
  C  358  1  0.28491200  0.96622200  0.36539400  1
  C  359  1  0.30856700  0.96286200  0.38665800  1
  C  376  1  0.33495100  0.58968900  0.98849300  1
  C  377  1  0.38386800  0.61872600  0.98780500  1
  C  378  1  0.32254200  0.63263500  0.98914100  1
  C  379  1  0.39937800  0.61035100  0.01416600  1
  C  380  1  0.43666500  0.61182100  0.01684600  1
  C  381  1  0.45922300  0.62186400  0.99315800  1
  C  382  1  0.44356800  0.63089300  0.96674700  1
  C  383  1  0.40627000  0.62930500  0.96410200  1
  C  384  1  0.33494900  0.56525600  0.01506900  1
  C  385  1  0.32689100  0.53915900  0.01780100  1
  C  386  1  0.31875800  0.53695600  0.99395700  1
  C  387  1  0.31786000  0.56147900  0.96751500  1
  C  388  1  0.32577900  0.58762000  0.96482500  1
  C  389  1  0.30905000  0.62484700  0.01595300  1
  C  390  1  0.28574500  0.64268500  0.01971200  1
  C  391  1  0.27546600  0.66866700  0.99666900  1
  C  392  1  0.28902200  0.67639800  0.96992400  1
  C  393  1  0.31220600  0.65849000  0.96616300  1
  C  409  1  0.79390000  0.00882100  0.71516000  1
  C  410  1  0.80391600  0.03233700  0.71728300  1
  C  411  1  0.81881400  0.02898700  0.74215200  1
  C  412  1  0.82321800  0.00218100  0.76626000  1
  C  413  1  0.81563800  0.97880400  0.76296300  1
  C  414  1  0.80078700  0.98195000  0.73819200  1
  C  415  1  0.84098900  0.99869900  0.79264600  1
  C  416  1  0.88031500  0.99763600  0.78542900  1
  C  417  1  0.89677800  0.97203700  0.79129200  1
  C  418  1  0.93358400  0.97030600  0.78708100  1
  C  419  1  0.95500800  0.99456300  0.77517700  1
  C  420  1  0.93845200  0.02065800  0.76631900  1
  C  421  1  0.90156800  0.02212600  0.77074500  1
  C  422  1  0.83125700  0.02162200  0.79926500  1
  C  423  1  0.82951900  0.97308400  0.82004500  1
  C  424  1  0.85289000  0.96132300  0.84350900  1
  C  425  1  0.84329800  0.93779600  0.86891700  1
  C  426  1  0.80895000  0.92579700  0.87246900  1
  C  427  1  0.78441100  0.93810900  0.85008600  1
  C  428  1  0.79429700  0.96180800  0.82464700  1
  C  429  1  0.79589400  0.03264200  0.79517000  1
  C  430  1  0.78645300  0.05325500  0.80188300  1
  C  431  1  0.81183700  0.06270500  0.81421100  1
  C  432  1  0.84613000  0.05030100  0.82068700  1
  C  433  1  0.85533700  0.02991100  0.81370200  1
  C  450  1  0.80171600  0.90055800  0.89626900  1
  C  451  1  0.77740200  0.01241300  0.69111700  1
  C  454  1  0.99186600  0.99188700  0.77677400  1
  C  456  1  0.80536000  0.08515000  0.81817300  1
  C  458  1  0.78709200  0.70976800  0.28966400  1
  C  459  1  0.79421300  0.71298800  0.26311700  1
  C  460  1  0.81083300  0.73733300  0.24220600  1
  C  461  1  0.82016600  0.75986800  0.24649600  1
  C  462  1  0.81469600  0.75548800  0.27385000  1
  C  463  1  0.79805300  0.73124300  0.29487000  1
  C  464  1  0.84126400  0.78508200  0.22487400  1
  C  465  1  0.87947800  0.77504700  0.23491300  1
  C  466  1  0.89768500  0.78140500  0.25367900  1
  C  467  1  0.93331400  0.77313500  0.26188500  1
  C  468  1  0.95175200  0.75707900  0.25250500  1
  C  469  1  0.93276600  0.74772100  0.23659000  1
  C  470  1  0.89716600  0.75621900  0.22840000  1
  C  471  1  0.83343500  0.79274100  0.19473400  1
  C  472  1  0.83232400  0.81289500  0.22311800  1
  C  473  1  0.85712300  0.83542200  0.21081700  1
  C  474  1  0.84985200  0.86141500  0.20846600  1
  C  475  1  0.81646500  0.86653400  0.21706900  1
  C  476  1  0.79064700  0.84499000  0.22797600  1
  C  477  1  0.79821700  0.81893800  0.23028800  1
  C  478  1  0.79766200  0.79340000  0.18547500  1
  C  479  1  0.78978500  0.80085200  0.15769300  1
  C  480  1  0.81751300  0.80925800  0.13776500  1
  C  481  1  0.85279500  0.81099600  0.14593000  1
  C  482  1  0.86040400  0.80320600  0.17378000  1
  C  499  1  0.81101200  0.89095700  0.21779600  1
  C  500  1  0.76999700  0.68593100  0.30984100  1
  C  503  1  0.98846500  0.75327400  0.25671300  1
  C  505  1  0.81183800  0.81388200  0.11106800  1
  C  507  1  0.78663900  0.28410100  0.01552900  1
  C  508  1  0.79320600  0.25729300  0.03863600  1
  C  509  1  0.81014000  0.23660000  0.03500900  1
  C  510  1  0.82042000  0.24140900  0.00817200  1
  C  511  1  0.81547700  0.26900700  0.98547300  1
  C  512  1  0.79851300  0.28979400  0.98888800  1
  C  513  1  0.84170900  0.22010300  0.00416000  1
  C  514  1  0.87980700  0.23066500  0.00352300  1
  C  515  1  0.89821900  0.24851100  0.97819300  1
  C  516  1  0.93378600  0.25697500  0.97802300  1
  C  517  1  0.95195100  0.24880100  0.00335200  1
  C  518  1  0.93274300  0.23385300  0.02866000  1
  C  519  1  0.89724400  0.22537400  0.02859800  1
  C  520  1  0.83525300  0.18977700  0.02681000  1
  C  521  1  0.83177900  0.21839100  0.97823000  1
  C  522  1  0.85581200  0.20581400  0.96778000  1
  C  523  1  0.84778100  0.20369200  0.94410500  1
  C  524  1  0.81439400  0.21293000  0.93054600  1
  C  525  1  0.78926900  0.22409400  0.94139800  1
  C  526  1  0.79757600  0.22609700  0.96520300  1
  C  527  1  0.79991400  0.17956600  0.03587100  1
  C  528  1  0.79334300  0.15174000  0.05674200  1
  C  529  1  0.82201000  0.13269200  0.06832700  1
  C  530  1  0.85689000  0.14169300  0.05786900  1
  C  531  1  0.86318700  0.16959400  0.03729400  1
  C  548  1  0.80837800  0.21385200  0.90538800  1
  C  549  1  0.76918500  0.30406500  0.01933600  1
  C  552  1  0.98866400  0.25300100  0.00297100  1
  C  554  1  0.81753000  0.10615000  0.09095500  1
  C  556  1  0.78703000  0.99298000  0.29735400  1
  C  557  1  0.79434500  0.96968700  0.29411800  1
  C  558  1  0.81138000  0.97314600  0.26990100  1
  C  559  1  0.82100400  0.99997400  0.24751200  1
  C  560  1  0.81527600  0.02291600  0.25190400  1
  C  561  1  0.79820600  0.01966300  0.27601300  1
  C  562  1  0.84250200  0.00367200  0.22240900  1
  C  563  1  0.88051000  0.00411700  0.23257700  1
  C  564  1  0.89864600  0.02941600  0.22566300  1
  C  565  1  0.93425600  0.02957700  0.23387700  1
  C  566  1  0.95268000  0.00424100  0.25046500  1
  C  567  1  0.93368800  0.97888900  0.26040300  1
  C  568  1  0.89813800  0.97896500  0.25194600  1
  C  569  1  0.83573600  0.98096700  0.21486700  1
  C  570  1  0.83317500  0.02954600  0.19454900  1
  C  571  1  0.85787400  0.03994800  0.17195000  1
  C  572  1  0.85034700  0.06355600  0.14598000  1
  C  573  1  0.81679300  0.07703600  0.14095600  1
  C  574  1  0.79104500  0.06615200  0.16255000  1
  C  575  1  0.79887500  0.04245700  0.18857200  1
  C  576  1  0.80033600  0.97181200  0.21406900  1
  C  577  1  0.79355200  0.95085600  0.20727500  1
  C  578  1  0.82203200  0.93930500  0.19959400  1
  C  579  1  0.85693500  0.94986500  0.19777400  1
  C  580  1  0.86345400  0.97052600  0.20494600  1
  C  597  1  0.81108000  0.10223800  0.11663200  1
  C  598  1  0.76965100  0.98926600  0.32112000  1
  C  601  1  0.98942900  0.00469600  0.25406700  1
  C  603  1  0.81738200  0.91656400  0.19589100  1
  C  605  1  0.79391700  0.29183500  0.72320800  1
  C  606  1  0.80455400  0.28987600  0.74865700  1
  C  607  1  0.81980200  0.26510600  0.77006800  1
  C  608  1  0.82393800  0.24090700  0.76749000  1
  C  609  1  0.81569200  0.24403900  0.74097500  1
  C  610  1  0.80050300  0.26871200  0.71945300  1
  C  611  1  0.84218000  0.21465100  0.79021300  1
  C  612  1  0.88130900  0.22204800  0.78132700  1
  C  613  1  0.89729900  0.21612900  0.76147900  1
  C  614  1  0.93398400  0.22053000  0.75505100  1
  C  615  1  0.95573100  0.23270100  0.76697900  1
  C  616  1  0.93953600  0.24162600  0.78428900  1
  C  617  1  0.90279300  0.23702700  0.79066000  1
  C  618  1  0.83349700  0.20812400  0.81989100  1
  C  619  1  0.83039800  0.18721000  0.79224600  1
  C  620  1  0.85386900  0.16381500  0.80345300  1
  C  621  1  0.84399000  0.13841900  0.80541300  1
  C  622  1  0.80928800  0.13480800  0.79756500  1
  C  623  1  0.78467100  0.15709000  0.78808800  1
  C  624  1  0.79483800  0.18249900  0.78629900  1
  C  625  1  0.79862400  0.21244700  0.82744100  1
  C  626  1  0.79048000  0.20638300  0.85478400  1
  C  627  1  0.81666800  0.19442000  0.87599100  1
  C  628  1  0.85033600  0.18745600  0.86956900  1
  C  629  1  0.85825000  0.19380700  0.84216700  1
  C  646  1  0.80167300  0.11107300  0.79608700  1
  C  647  1  0.77726100  0.31584900  0.70282300  1
  C  650  1  0.99258200  0.23121100  0.76551100  1
  C  652  1  0.81154700  0.19135100  0.90218300  1
  C  654  1  0.79395900  0.71765400  0.99988400  1
  C  655  1  0.80539100  0.74271200  0.97628200  1
  C  656  1  0.82054500  0.76430000  0.97938100  1
  C  657  1  0.82380600  0.76230500  0.00596500  1
  C  658  1  0.81461000  0.73620600  0.02954300  1
  C  659  1  0.79954400  0.71449100  0.02664100  1
  C  660  1  0.84191700  0.78537900  0.00897400  1
  C  661  1  0.88116300  0.77709000  0.00960500  1
  C  662  1  0.89732100  0.75643300  0.03491600  1
  C  663  1  0.93415700  0.75057000  0.03667400  1
  C  664  1  0.95586300  0.76387700  0.01261800  1
  C  665  1  0.93961100  0.78204900  0.98665400  1
  C  666  1  0.90272700  0.78794700  0.98517600  1
  C  667  1  0.83170500  0.81476600  0.98597800  1
  C  668  1  0.83134900  0.78743900  0.03460700  1
  C  669  1  0.85576100  0.79823700  0.04661100  1
  C  670  1  0.84675700  0.80053300  0.07000500  1
  C  671  1  0.81202600  0.79353200  0.08160000  1
  C  672  1  0.78656500  0.78442600  0.06900400  1
  C  673  1  0.79587700  0.78223900  0.04545200  1
  C  674  1  0.79650600  0.82127900  0.97456100  1
  C  675  1  0.78677700  0.84849700  0.95388300  1
  C  676  1  0.81164700  0.87058500  0.94474300  1
  C  677  1  0.84566600  0.86506700  0.95756400  1
  C  678  1  0.85514300  0.83780100  0.97805700  1
  C  695  1  0.80502800  0.79240600  0.10675700  1
  C  696  1  0.77752000  0.69708200  0.99644000  1
  C  699  1  0.99265800  0.76285300  0.01556900  1
  C  701  1  0.80504300  0.89688400  0.92215700  1
  C  703  1  0.20993500  0.71762100  0.29588300  1
  C  704  1  0.19856500  0.74270400  0.29440500  1
  C  705  1  0.18340400  0.76428500  0.26972100  1
  C  706  1  0.18005100  0.76226000  0.24515200  1
  C  707  1  0.18918400  0.73613700  0.24770100  1
  C  708  1  0.20427000  0.71443100  0.27231200  1
  C  709  1  0.16189400  0.78530900  0.21908000  1
  C  710  1  0.12266400  0.77694600  0.22674200  1
  C  711  1  0.10652500  0.75637700  0.22194100  1
  C  712  1  0.06970900  0.75044600  0.22607400  1
  C  713  1  0.04798200  0.76367500  0.23688900  1
  C  714  1  0.06420200  0.78177800  0.24479000  1
  C  715  1  0.10109800  0.78764800  0.24045500  1
  C  716  1  0.17201500  0.81470600  0.21270600  1
  C  717  1  0.17247300  0.78741800  0.19136700  1
  C  718  1  0.14809400  0.79833500  0.16854200  1
  C  719  1  0.15706300  0.80064600  0.14284100  1
  C  720  1  0.19174000  0.79355700  0.13824400  1
  C  721  1  0.21717300  0.78431800  0.15998200  1
  C  722  1  0.20790100  0.78211800  0.18573500  1
  C  723  1  0.20723700  0.82128500  0.21749000  1
  C  724  1  0.21690700  0.84851400  0.21095100  1
  C  725  1  0.19195200  0.87055300  0.19811400  1
  C  726  1  0.15788000  0.86496600  0.19095700  1
  C  727  1  0.14846100  0.83768900  0.19773000  1
  C  744  1  0.19863800  0.79237900  0.11423200  1
  C  745  1  0.22637200  0.69704700  0.31990100  1
  C  748  1  0.01118300  0.76264700  0.23497200  1
  C  750  1  0.19850600  0.89685700  0.19440700  1
  C  752  1  0.21680600  0.99287100  0.72315100  1
  C  753  1  0.20959500  0.96957400  0.74970200  1
  C  754  1  0.19255700  0.97301100  0.77047000  1
  C  755  1  0.18283600  0.99982300  0.76601900  1
  C  756  1  0.18843100  0.02276600  0.73866400  1
  C  757  1  0.20550500  0.01953200  0.71779600  1
  C  758  1  0.16140100  0.00352800  0.78745000  1
  C  759  1  0.12335500  0.00399900  0.77688100  1
  C  760  1  0.10518500  0.02931200  0.75858900  1
  C  761  1  0.06956400  0.02949600  0.75022800  1
  C  762  1  0.05113900  0.00416600  0.75896400  1
  C  763  1  0.07012700  0.97880400  0.77431400  1
  C  764  1  0.10572100  0.97886100  0.78262100  1
  C  765  1  0.16825800  0.98081300  0.81768200  1
  C  766  1  0.17074200  0.02939800  0.78944100  1
  C  767  1  0.14612200  0.03967500  0.80181000  1
  C  768  1  0.15360900  0.06329500  0.80415600  1
  C  769  1  0.18704300  0.07693200  0.79548800  1
  C  770  1  0.21273200  0.06616500  0.78461600  1
  C  771  1  0.20494800  0.04245300  0.78231100  1
  C  772  1  0.20372600  0.97182100  0.82756600  1
  C  773  1  0.21065300  0.95090100  0.85530200  1
  C  774  1  0.18225100  0.93919700  0.87458500  1
  C  775  1  0.14726100  0.94956300  0.86589900  1
  C  776  1  0.14059900  0.97021600  0.83808600  1
  C  793  1  0.19264600  0.10216800  0.79455800  1
  C  794  1  0.23422900  0.98918300  0.70310200  1
  C  797  1  0.01438800  0.00463400  0.75494100  1
  C  799  1  0.18713900  0.91652200  0.90105500  1
  C  801  1  0.21008500  0.29188900  0.99827300  1
  C  802  1  0.19962900  0.28989900  0.97476400  1
  C  803  1  0.18435000  0.26514800  0.97809900  1
  C  804  1  0.17997600  0.24100400  0.00488300  1
  C  805  1  0.18806100  0.24416300  0.02827300  1
  C  806  1  0.20329700  0.26881700  0.02514000  1
  C  807  1  0.16166100  0.21476900  0.00842500  1
  C  808  1  0.12255700  0.22221300  0.00993600  1
  C  809  1  0.10650000  0.21610700  0.03573600  1
  C  810  1  0.06981600  0.22050900  0.03775400  1
  C  811  1  0.04813200  0.23282300  0.01362700  1
  C  812  1  0.06439200  0.24195700  0.98737400  1
  C  813  1  0.10114700  0.23737400  0.98561200  1
  C  814  1  0.17026800  0.20823300  0.98526700  1
  C  815  1  0.17337600  0.18728500  0.03381600  1
  C  816  1  0.14989500  0.16389500  0.04584300  1
  C  817  1  0.15963500  0.13848400  0.06931200  1
  C  818  1  0.19422100  0.13484000  0.08096700  1
  C  819  1  0.21886400  0.15712600  0.06832300  1
  C  820  1  0.20882600  0.18256700  0.04468500  1
  C  821  1  0.20520500  0.21235400  0.97353400  1
  C  822  1  0.21331900  0.20630400  0.95223900  1
  C  823  1  0.18702400  0.19455600  0.94285000  1
  C  824  1  0.15326800  0.18777900  0.95610200  1
  C  825  1  0.14537700  0.19413600  0.97715200  1
  C  842  1  0.20161500  0.11111400  0.10624000  1
  C  843  1  0.22675200  0.31588800  0.99466800  1
  C  846  1  0.01126800  0.23133300  0.01651400  1
  C  848  1  0.19216900  0.19148300  0.91973400  1
  C  850  1  0.21734400  0.28404700  0.71370700  1
  C  851  1  0.21075800  0.25723900  0.71741200  1
  C  852  1  0.19376900  0.23657000  0.74171500  1
  C  853  1  0.18346000  0.24139700  0.76372400  1
  C  854  1  0.18840900  0.26899900  0.75881500  1
  C  855  1  0.20542200  0.28976700  0.73462700  1
  C  856  1  0.16216500  0.22010400  0.78904300  1
  C  857  1  0.12406800  0.23065900  0.77911100  1
  C  858  1  0.10564300  0.24850700  0.78658600  1
  C  859  1  0.07006000  0.25693000  0.77832100  1
  C  860  1  0.05188900  0.24869900  0.76121400  1
  C  861  1  0.07111000  0.23377400  0.75083500  1
  C  862  1  0.10662900  0.22533900  0.75934700  1
  C  863  1  0.16861700  0.18976900  0.79674300  1
  C  864  1  0.17209300  0.21841200  0.81667800  1
  C  865  1  0.14805100  0.20585600  0.83970100  1
  C  866  1  0.15607700  0.20375700  0.86548600  1
  C  867  1  0.18946500  0.21299400  0.86980600  1
  C  868  1  0.21459800  0.22413700  0.84779500  1
  C  869  1  0.20629900  0.22611400  0.82199700  1
  C  870  1  0.20395700  0.17954600  0.79791500  1
  C  871  1  0.21051400  0.15171500  0.80488200  1
  C  872  1  0.18184400  0.13266600  0.81237700  1
  C  873  1  0.14697100  0.14167800  0.81382800  1
  C  874  1  0.14068200  0.16958800  0.80647000  1
  C  891  1  0.19546700  0.21394900  0.89402600  1
  C  892  1  0.23487400  0.30398100  0.68996400  1
  C  895  1  0.01517000  0.25288700  0.75739900  1
  C  897  1  0.18631600  0.10611300  0.81631800  1
  C  899  1  0.21009000  0.00872800  0.28955100  1
  C  900  1  0.19983800  0.03222800  0.26398200  1
  C  901  1  0.18488000  0.02886400  0.24248900  1
  C  902  1  0.18068100  0.00207100  0.24511600  1
  C  903  1  0.18850800  0.97869600  0.27173300  1
  C  904  1  0.20339900  0.98185000  0.29334200  1
  C  905  1  0.16278400  0.99858900  0.22225600  1
  C  906  1  0.12349200  0.99757900  0.23059300  1
  C  907  1  0.10710100  0.97203100  0.25051700  1
  C  908  1  0.07030900  0.97031000  0.25650800  1
  C  909  1  0.04882600  0.99453700  0.24404000  1
  C  910  1  0.06533800  0.02060200  0.22660400  1
  C  911  1  0.10220000  0.02206600  0.22064900  1
  C  912  1  0.17242300  0.02149700  0.19269100  1
  C  913  1  0.17416700  0.97294800  0.22049400  1
  C  914  1  0.15063700  0.96103000  0.20904500  1
  C  915  1  0.16022500  0.93753600  0.20710300  1
  C  916  1  0.19469600  0.92570100  0.21526700  1
  C  917  1  0.21937000  0.93816100  0.22508200  1
  C  918  1  0.20949500  0.96184600  0.22685100  1
  C  919  1  0.20767900  0.03273000  0.18568600  1
  C  920  1  0.21695300  0.05338700  0.15833500  1
  C  921  1  0.19154200  0.06262200  0.13659500  1
  C  922  1  0.15739800  0.04997600  0.14259200  1
  C  923  1  0.14835700  0.02955900  0.16999300  1
  C  940  1  0.20196300  0.90050600  0.21662500  1
  C  941  1  0.22659200  0.01234200  0.30999200  1
  C  944  1  0.01197900  0.99182100  0.24514300  1
  C  946  1  0.19768400  0.08516100  0.11020000  1
  C  948  1  0.21680600  0.70975600  0.01394700  1
  C  949  1  0.20956200  0.71296300  0.03726500  1
  C  950  1  0.19291600  0.73730800  0.03380900  1
  C  951  1  0.18367700  0.75985100  0.00696500  1
  C  952  1  0.18926900  0.75549700  0.98399000  1
  C  953  1  0.20593400  0.73124700  0.98724500  1
  C  954  1  0.16262000  0.78509100  0.00335400  1
  C  955  1  0.12440100  0.77507300  0.00333900  1
  C  956  1  0.10624900  0.78138100  0.97820900  1
  C  957  1  0.07059300  0.77317100  0.97825300  1
  C  958  1  0.05209000  0.75718600  0.00367400  1
  C  959  1  0.07102500  0.74788900  0.02895900  1
  C  960  1  0.10664500  0.75632900  0.02867400  1
  C  961  1  0.17043400  0.79277400  0.02582100  1
  C  962  1  0.17163500  0.81288000  0.97729500  1
  C  963  1  0.14684500  0.83542000  0.96695400  1
  C  964  1  0.15423000  0.86140300  0.94333200  1
  C  965  1  0.18772300  0.86649800  0.92976100  1
  C  966  1  0.21352300  0.84494000  0.94051200  1
  C  967  1  0.20583500  0.81890100  0.96422800  1
  C  968  1  0.20617000  0.79331100  0.03454700  1
  C  969  1  0.21398400  0.80073500  0.05490800  1
  C  970  1  0.18624100  0.80926400  0.06630800  1
  C  971  1  0.15100700  0.81111900  0.05627600  1
  C  972  1  0.14345600  0.80334500  0.03619700  1
  C  989  1  0.19335600  0.89093100  0.90465700  1
  C  990  1  0.23395000  0.68592500  0.01763200  1
  C  993  1  0.01536800  0.75343900  0.00323900  1
  C  995  1  0.19180700  0.81382500  0.08843800  1
  N  1  1  0.66099800  0.98167600  0.62117300  1
  N  32  1  0.75442800  0.99441900  0.69257400  1
  N  33  1  0.68734100  0.99183800  0.51773100  1
  N  34  1  0.51304300  0.99177900  0.62578900  1
  N  35  1  0.65726500  0.61579700  0.41327600  1
  N  66  1  0.74906100  0.68716400  0.32764400  1
  N  67  1  0.68716200  0.51271900  0.50614400  1
  N  68  1  0.50940400  0.62178200  0.39709000  1
  N  69  1  0.65714200  0.40826700  0.98477300  1
  N  100  1  0.74905500  0.32236000  0.99996400  1
  N  101  1  0.68687200  0.50132900  0.99474300  1
  N  102  1  0.50922000  0.39237900  0.99450900  1
  N  103  1  0.65731600  0.02288700  0.39127000  1
  N  134  1  0.74901600  0.00843000  0.31995000  1
  N  135  1  0.68697100  0.01269300  0.49437800  1
  N  136  1  0.50938800  0.01291300  0.38545500  1
  N  137  1  0.66120900  0.38594400  0.60188900  1
  N  168  1  0.75436600  0.31442000  0.68621800  1
  N  169  1  0.68765500  0.48936700  0.50863800  1
  N  170  1  0.51318500  0.38169800  0.61607200  1
  N  171  1  0.66098400  0.59683500  0.02612500  1
  N  202  1  0.75402300  0.68090700  0.01414000  1
  N  203  1  0.68737300  0.50380500  0.01561100  1
  N  204  1  0.51303500  0.61138200  0.01577400  1
  N  205  1  0.34307300  0.59689800  0.39037200  1
  N  236  1  0.24986400  0.68087400  0.31836800  1
  N  237  1  0.31658000  0.50382800  0.49390600  1
  N  238  1  0.49101900  0.61136900  0.38623500  1
  N  239  1  0.34662900  0.02292500  0.59934700  1
  N  270  1  0.25486500  0.00836600  0.68513000  1
  N  271  1  0.31716600  0.01269100  0.50643200  1
  N  272  1  0.49457800  0.01300500  0.61502000  1
  N  273  1  0.34270300  0.38591300  0.02568000  1
  N  304  1  0.24955900  0.31444700  0.01275900  1
  N  305  1  0.31647800  0.48937700  0.01546600  1
  N  306  1  0.49071700  0.38157900  0.01571100  1
  N  307  1  0.34671800  0.40832000  0.62029200  1
  N  338  1  0.25497400  0.32228900  0.69104700  1
  N  339  1  0.31707000  0.50135000  0.51725100  1
  N  340  1  0.49466400  0.39248100  0.62648500  1
  N  341  1  0.34301200  0.98161600  0.41067100  1
  N  372  1  0.24954800  0.99434900  0.32655300  1
  N  373  1  0.31679900  0.99182500  0.50395000  1
  N  374  1  0.49093600  0.99168100  0.39588500  1
  N  375  1  0.34679000  0.61583700  0.98434800  1
  N  406  1  0.25489700  0.68715600  0.99860200  1
  N  407  1  0.31694900  0.51272500  0.99460100  1
  N  408  1  0.49464800  0.62183900  0.99451000  1
