# generated using pymatgen
data_H14C24N3O2
_symmetry_space_group_name_H-M   'P 1'
_cell_length_a   35.22320000
_cell_length_b   43.97390000
_cell_length_c   43.97400000
_cell_angle_alpha   59.99977432
_cell_angle_beta   89.99830000
_cell_angle_gamma   89.99660000
_symmetry_Int_Tables_number   1
_chemical_formula_structural   H14C24N3O2
_chemical_formula_sum   'H504 C864 N108 O72'
_cell_volume   58986.06276218
_cell_formula_units_Z   36
loop_
 _symmetry_equiv_pos_site_id
 _symmetry_equiv_pos_as_xyz
  1  'x, y, z'
loop_
 _atom_site_type_symbol
 _atom_site_label
 _atom_site_symmetry_multiplicity
 _atom_site_fract_x
 _atom_site_fract_y
 _atom_site_fract_z
 _atom_site_occupancy
  H  10  1  0.12153100  0.56131700  0.15657600  1
  H  18  1  0.90298600  0.55551600  0.27118000  1
  H  20  1  0.98996600  0.47048300  0.27615300  1
  H  21  1  0.04564400  0.47179400  0.24656800  1
  H  22  1  0.97636800  0.64559400  0.17792100  1
  H  23  1  0.03260100  0.64687500  0.14874400  1
  H  28  1  0.11415200  0.63436700  0.13804000  1
  H  29  1  0.91168900  0.63645900  0.20013200  1
  H  30  1  0.95410400  0.48365700  0.31714900  1
  H  31  1  0.11620200  0.48672700  0.22744800  1
  H  40  1  0.45527100  0.13999700  0.25410900  1
  H  48  1  0.23656900  0.25455400  0.14568100  1
  H  50  1  0.32375000  0.25954600  0.22560200  1
  H  51  1  0.37947200  0.22997100  0.25377500  1
  H  52  1  0.30987900  0.16132100  0.14873100  1
  H  53  1  0.36615100  0.13215200  0.17653200  1
  H  58  1  0.44782700  0.12139300  0.19973500  1
  H  59  1  0.24514300  0.18352300  0.13579700  1
  H  60  1  0.28776800  0.30050100  0.17161800  1
  H  61  1  0.45011000  0.21080400  0.25783600  1
  H  70  1  0.78816800  0.23766900  0.57795500  1
  H  78  1  0.56974100  0.12870800  0.57219900  1
  H  80  1  0.65684300  0.20859400  0.48716000  1
  H  81  1  0.71249100  0.23691100  0.48845800  1
  H  82  1  0.64307600  0.13196900  0.66224200  1
  H  83  1  0.69928600  0.15988700  0.66351800  1
  H  88  1  0.77869700  0.18157300  0.65257600  1
  H  89  1  0.57817000  0.11904700  0.65293700  1
  H  90  1  0.62078700  0.15445000  0.50036800  1
  H  91  1  0.78283600  0.24134800  0.50325200  1
  H  100  1  0.12161300  0.39790100  0.83622800  1
  H  108  1  0.90289500  0.40394200  0.72176200  1
  H  110  1  0.99014700  0.48885400  0.71658900  1
  H  111  1  0.04585700  0.48748900  0.74615700  1
  H  112  1  0.97625600  0.31377400  0.81499100  1
  H  113  1  0.03254700  0.31243800  0.84410200  1
  H  118  1  0.11384900  0.32471200  0.85472100  1
  H  119  1  0.91183800  0.32276800  0.79294200  1
  H  120  1  0.95423300  0.47569500  0.67567100  1
  H  121  1  0.11636400  0.47249700  0.76533500  1
  H  130  1  0.45532200  0.81918200  0.73863900  1
  H  138  1  0.23652600  0.70480000  0.84699800  1
  H  140  1  0.32370200  0.69973100  0.76712700  1
  H  141  1  0.37945200  0.72925100  0.73897600  1
  H  142  1  0.30993800  0.79795300  0.84400400  1
  H  143  1  0.36623300  0.82707400  0.81622100  1
  H  148  1  0.44801200  0.83781500  0.79290800  1
  H  149  1  0.24525900  0.77582300  0.85696500  1
  H  150  1  0.28769700  0.65879500  0.82115000  1
  H  151  1  0.45007900  0.74837200  0.73488500  1
  H  160  1  0.78829400  0.72165600  0.41439800  1
  H  168  1  0.56978100  0.83027500  0.42063400  1
  H  170  1  0.65687100  0.75017400  0.50551200  1
  H  171  1  0.71253300  0.72193500  0.50408700  1
  H  172  1  0.64300800  0.82723100  0.33040500  1
  H  173  1  0.69923200  0.79938400  0.32900900  1
  H  178  1  0.78123600  0.77585300  0.34178700  1
  H  179  1  0.57834600  0.84021900  0.33966100  1
  H  180  1  0.62099400  0.80428000  0.49247500  1
  H  181  1  0.78310800  0.71785100  0.48899900  1
  H  188  1  0.21193500  0.66716000  0.92933500  1
  H  195  1  0.16779300  0.71386300  0.03010700  1
  H  196  1  0.13220600  0.68532900  0.08279900  1
  H  197  1  0.08051800  0.62096900  0.04929400  1
  H  198  1  0.22022500  0.76841200  0.91549300  1
  H  201  1  0.10284500  0.66213600  0.96455300  1
  H  202  1  0.10422400  0.61861500  0.00024900  1
  H  203  1  0.15981000  0.63046000  0.96164300  1
  H  204  1  0.17466700  0.62150000  0.00377600  1
  H  216  1  0.54536200  0.91279300  0.37576700  1
  H  223  1  0.50127800  0.01340100  0.22819900  1
  H  224  1  0.46567100  0.06610700  0.20393700  1
  H  225  1  0.41401400  0.03279500  0.30178300  1
  H  226  1  0.55354200  0.89871800  0.28848900  1
  H  229  1  0.43630100  0.94812200  0.34552300  1
  H  230  1  0.43776300  0.98389100  0.35323500  1
  H  231  1  0.49329200  0.94522200  0.38007500  1
  H  232  1  0.50820500  0.98730100  0.34683200  1
  H  244  1  0.87795200  0.35935400  0.68432800  1
  H  251  1  0.83466600  0.21192300  0.73044300  1
  H  252  1  0.79967200  0.18792400  0.70145800  1
  H  253  1  0.74728800  0.28555900  0.63762600  1
  H  254  1  0.88660500  0.27172200  0.78541200  1
  H  257  1  0.76894800  0.32876500  0.67942200  1
  H  258  1  0.77029500  0.33687800  0.63580000  1
  H  259  1  0.82570600  0.36374100  0.64774000  1
  H  260  1  0.84078200  0.33082000  0.63849100  1
  H  271  1  0.21219000  0.29218900  0.06326000  1
  H  278  1  0.16777300  0.24533200  0.96267600  1
  H  279  1  0.13212100  0.27387200  0.91000600  1
  H  280  1  0.08057000  0.33826900  0.94354300  1
  H  281  1  0.22029000  0.19086100  0.07725900  1
  H  284  1  0.10301800  0.29720400  0.02821100  1
  H  285  1  0.10438100  0.34070700  0.99247600  1
  H  286  1  0.16003700  0.32889100  0.03100000  1
  H  287  1  0.17481400  0.33778600  0.98886600  1
  H  299  1  0.54529700  0.04637200  0.61705300  1
  H  306  1  0.50121800  0.94580700  0.76456200  1
  H  307  1  0.46568500  0.89308400  0.78879800  1
  H  308  1  0.41389200  0.92646100  0.69100000  1
  H  309  1  0.55366700  0.06038100  0.70435800  1
  H  312  1  0.43616200  0.01122700  0.64733200  1
  H  313  1  0.43751300  0.97550200  0.63955300  1
  H  314  1  0.49308400  0.01410500  0.61272200  1
  H  315  1  0.50795800  0.97198300  0.64590200  1
  H  327  1  0.87872000  0.60036200  0.30882300  1
  H  334  1  0.83436900  0.74789700  0.26184700  1
  H  335  1  0.79859600  0.77212300  0.29024000  1
  H  336  1  0.74710500  0.67419500  0.35476700  1
  H  337  1  0.88680300  0.68762800  0.20745800  1
  H  340  1  0.76963700  0.63045500  0.31390300  1
  H  341  1  0.77104900  0.62276600  0.35737700  1
  H  342  1  0.82667900  0.59600800  0.34558800  1
  H  343  1  0.84147900  0.62930100  0.35439000  1
  H  355  1  0.83208400  0.47790900  0.32231100  1
  H  362  1  0.86240800  0.32470000  0.41871400  1
  H  363  1  0.83152700  0.27877500  0.46782500  1
  H  364  1  0.75754700  0.35151800  0.47249300  1
  H  365  1  0.93567000  0.42368000  0.34751700  1
  H  368  1  0.80114200  0.42428200  0.42763100  1
  H  369  1  0.75508700  0.41121300  0.42275700  1
  H  370  1  0.78168300  0.45731400  0.36552400  1
  H  371  1  0.77163300  0.41809200  0.36515100  1
  H  383  1  0.16569800  0.30560900  0.17204100  1
  H  390  1  0.19571800  0.40204900  0.22886900  1
  H  391  1  0.16476400  0.45115400  0.22562600  1
  H  392  1  0.09091500  0.45573200  0.14817500  1
  H  393  1  0.26918400  0.33093100  0.20110400  1
  H  396  1  0.13461600  0.41087700  0.12034000  1
  H  397  1  0.08854400  0.40596400  0.13826600  1
  H  398  1  0.11522600  0.34874700  0.14943000  1
  H  399  1  0.10513300  0.34838300  0.18901500  1
  H  411  1  0.49887300  0.15550300  0.49449200  1
  H  418  1  0.52922500  0.21233900  0.34126700  1
  H  419  1  0.49840800  0.20907900  0.29536200  1
  H  420  1  0.42443900  0.13166600  0.36811600  1
  H  421  1  0.60247200  0.18453300  0.44028600  1
  H  424  1  0.46796200  0.10385100  0.44089400  1
  H  425  1  0.42191000  0.12179300  0.42777400  1
  H  426  1  0.44843500  0.13300200  0.47384500  1
  H  427  1  0.43843000  0.17256900  0.43458000  1
  H  439  1  0.83218300  0.48141200  0.67038000  1
  H  446  1  0.86251900  0.63455700  0.57371500  1
  H  447  1  0.83161900  0.68042000  0.52457800  1
  H  448  1  0.75763800  0.60758700  0.52008500  1
  H  449  1  0.93577100  0.53563700  0.64507500  1
  H  452  1  0.80127100  0.53484000  0.56504000  1
  H  453  1  0.75520900  0.54793200  0.56987300  1
  H  454  1  0.78179600  0.50191500  0.62715100  1
  H  455  1  0.77174500  0.54118800  0.62742600  1
  H  467  1  0.16565800  0.65372800  0.82062300  1
  H  474  1  0.19577500  0.55724100  0.76388300  1
  H  475  1  0.16486300  0.50811700  0.76714000  1
  H  476  1  0.09096600  0.50354700  0.84456000  1
  H  477  1  0.26917500  0.62840900  0.79159400  1
  H  480  1  0.13461600  0.54844200  0.87237700  1
  H  481  1  0.08855300  0.55333600  0.85444100  1
  H  482  1  0.11521100  0.61056600  0.84326200  1
  H  483  1  0.10512400  0.61091000  0.80368800  1
  H  495  1  0.49895500  0.80367300  0.49825700  1
  H  502  1  0.52932500  0.74689500  0.65147900  1
  H  503  1  0.49847900  0.75014700  0.69737900  1
  H  504  1  0.42449000  0.82753000  0.62461700  1
  H  505  1  0.60256300  0.77468700  0.55244400  1
  H  508  1  0.46802700  0.85535600  0.55185000  1
  H  509  1  0.42197800  0.83740500  0.56495800  1
  H  510  1  0.44852300  0.82621400  0.51888400  1
  H  511  1  0.43852900  0.78663600  0.55814400  1
  H  526  1  0.83762700  0.56131700  0.15657600  1
  H  534  1  0.61908200  0.55551600  0.27118000  1
  H  536  1  0.70606200  0.47048300  0.27615300  1
  H  537  1  0.76174000  0.47179400  0.24656800  1
  H  538  1  0.69246400  0.64559400  0.17792100  1
  H  539  1  0.74869700  0.64687500  0.14874400  1
  H  544  1  0.83024800  0.63436700  0.13804000  1
  H  545  1  0.62778500  0.63645900  0.20013200  1
  H  546  1  0.67020000  0.48365700  0.31714900  1
  H  547  1  0.83229800  0.48672700  0.22744800  1
  H  556  1  0.17136700  0.13999700  0.25410900  1
  H  564  1  0.95266520  0.25455400  0.14568100  1
  H  566  1  0.03984600  0.25954600  0.22560200  1
  H  567  1  0.09556800  0.22997100  0.25377500  1
  H  568  1  0.02597500  0.16132100  0.14873100  1
  H  569  1  0.08224700  0.13215200  0.17653200  1
  H  574  1  0.16392300  0.12139300  0.19973500  1
  H  575  1  0.96123920  0.18352300  0.13579700  1
  H  576  1  0.00386400  0.30050100  0.17161800  1
  H  577  1  0.16620600  0.21080400  0.25783600  1
  H  586  1  0.50426400  0.23766900  0.57795500  1
  H  594  1  0.28583700  0.12870800  0.57219900  1
  H  596  1  0.37293900  0.20859400  0.48716000  1
  H  597  1  0.42858700  0.23691100  0.48845800  1
  H  598  1  0.35917200  0.13196900  0.66224200  1
  H  599  1  0.41538200  0.15988700  0.66351800  1
  H  604  1  0.49479300  0.18157300  0.65257600  1
  H  605  1  0.29426600  0.11904700  0.65293700  1
  H  606  1  0.33688300  0.15445000  0.50036800  1
  H  607  1  0.49893200  0.24134800  0.50325200  1
  H  616  1  0.83770900  0.39790100  0.83622800  1
  H  624  1  0.61899100  0.40394200  0.72176200  1
  H  626  1  0.70624300  0.48885400  0.71658900  1
  H  627  1  0.76195300  0.48748900  0.74615700  1
  H  628  1  0.69235200  0.31377400  0.81499100  1
  H  629  1  0.74864300  0.31243800  0.84410200  1
  H  634  1  0.82994500  0.32471200  0.85472100  1
  H  635  1  0.62793400  0.32276800  0.79294200  1
  H  636  1  0.67032900  0.47569500  0.67567100  1
  H  637  1  0.83246000  0.47249700  0.76533500  1
  H  646  1  0.17141800  0.81918200  0.73863900  1
  H  654  1  0.95262220  0.70480000  0.84699800  1
  H  656  1  0.03979800  0.69973100  0.76712700  1
  H  657  1  0.09554800  0.72925100  0.73897600  1
  H  658  1  0.02603400  0.79795300  0.84400400  1
  H  659  1  0.08232900  0.82707400  0.81622100  1
  H  664  1  0.16410800  0.83781500  0.79290800  1
  H  665  1  0.96135520  0.77582300  0.85696500  1
  H  666  1  0.00379300  0.65879500  0.82115000  1
  H  667  1  0.16617500  0.74837200  0.73488500  1
  H  676  1  0.50439000  0.72165600  0.41439800  1
  H  684  1  0.28587700  0.83027500  0.42063400  1
  H  686  1  0.37296700  0.75017400  0.50551200  1
  H  687  1  0.42862900  0.72193500  0.50408700  1
  H  688  1  0.35910400  0.82723100  0.33040500  1
  H  689  1  0.41532800  0.79938400  0.32900900  1
  H  694  1  0.49733200  0.77585300  0.34178700  1
  H  695  1  0.29444200  0.84021900  0.33966100  1
  H  696  1  0.33709000  0.80428000  0.49247500  1
  H  697  1  0.49920400  0.71785100  0.48899900  1
  H  704  1  0.92803120  0.66716000  0.92933500  1
  H  711  1  0.88388900  0.71386300  0.03010700  1
  H  712  1  0.84830200  0.68532900  0.08279900  1
  H  713  1  0.79661400  0.62096900  0.04929400  1
  H  714  1  0.93632120  0.76841200  0.91549300  1
  H  717  1  0.81894100  0.66213600  0.96455300  1
  H  718  1  0.82032000  0.61861500  0.00024900  1
  H  719  1  0.87590600  0.63046000  0.96164300  1
  H  720  1  0.89076300  0.62150000  0.00377600  1
  H  732  1  0.26145800  0.91279300  0.37576700  1
  H  739  1  0.21737400  0.01340100  0.22819900  1
  H  740  1  0.18176700  0.06610700  0.20393700  1
  H  741  1  0.13011000  0.03279500  0.30178300  1
  H  742  1  0.26963800  0.89871800  0.28848900  1
  H  745  1  0.15239700  0.94812200  0.34552300  1
  H  746  1  0.15385900  0.98389100  0.35323500  1
  H  747  1  0.20938800  0.94522200  0.38007500  1
  H  748  1  0.22430100  0.98730100  0.34683200  1
  H  760  1  0.59404800  0.35935400  0.68432800  1
  H  767  1  0.55076200  0.21192300  0.73044300  1
  H  768  1  0.51576800  0.18792400  0.70145800  1
  H  769  1  0.46338400  0.28555900  0.63762600  1
  H  770  1  0.60270100  0.27172200  0.78541200  1
  H  773  1  0.48504400  0.32876500  0.67942200  1
  H  774  1  0.48639100  0.33687800  0.63580000  1
  H  775  1  0.54180200  0.36374100  0.64774000  1
  H  776  1  0.55687800  0.33082000  0.63849100  1
  H  787  1  0.92828620  0.29218900  0.06326000  1
  H  794  1  0.88386900  0.24533200  0.96267600  1
  H  795  1  0.84821700  0.27387200  0.91000600  1
  H  796  1  0.79666600  0.33826900  0.94354300  1
  H  797  1  0.93638620  0.19086100  0.07725900  1
  H  800  1  0.81911400  0.29720400  0.02821100  1
  H  801  1  0.82047700  0.34070700  0.99247600  1
  H  802  1  0.87613300  0.32889100  0.03100000  1
  H  803  1  0.89091000  0.33778600  0.98886600  1
  H  815  1  0.26139300  0.04637200  0.61705300  1
  H  822  1  0.21731400  0.94580700  0.76456200  1
  H  823  1  0.18178100  0.89308400  0.78879800  1
  H  824  1  0.12998800  0.92646100  0.69100000  1
  H  825  1  0.26976300  0.06038100  0.70435800  1
  H  828  1  0.15225800  0.01122700  0.64733200  1
  H  829  1  0.15360900  0.97550200  0.63955300  1
  H  830  1  0.20918000  0.01410500  0.61272200  1
  H  831  1  0.22405400  0.97198300  0.64590200  1
  H  843  1  0.59481600  0.60036200  0.30882300  1
  H  850  1  0.55046500  0.74789700  0.26184700  1
  H  851  1  0.51469200  0.77212300  0.29024000  1
  H  852  1  0.46320100  0.67419500  0.35476700  1
  H  853  1  0.60289900  0.68762800  0.20745800  1
  H  856  1  0.48573300  0.63045500  0.31390300  1
  H  857  1  0.48714500  0.62276600  0.35737700  1
  H  858  1  0.54277500  0.59600800  0.34558800  1
  H  859  1  0.55757500  0.62930100  0.35439000  1
  H  871  1  0.54818000  0.47790900  0.32231100  1
  H  878  1  0.57850400  0.32470000  0.41871400  1
  H  879  1  0.54762300  0.27877500  0.46782500  1
  H  880  1  0.47364300  0.35151800  0.47249300  1
  H  881  1  0.65176600  0.42368000  0.34751700  1
  H  884  1  0.51723800  0.42428200  0.42763100  1
  H  885  1  0.47118300  0.41121300  0.42275700  1
  H  886  1  0.49777900  0.45731400  0.36552400  1
  H  887  1  0.48772900  0.41809200  0.36515100  1
  H  899  1  0.88179400  0.30560900  0.17204100  1
  H  906  1  0.91181420  0.40204900  0.22886900  1
  H  907  1  0.88086000  0.45115400  0.22562600  1
  H  908  1  0.80701100  0.45573200  0.14817500  1
  H  909  1  0.98528020  0.33093100  0.20110400  1
  H  912  1  0.85071200  0.41087700  0.12034000  1
  H  913  1  0.80464000  0.40596400  0.13826600  1
  H  914  1  0.83132200  0.34874700  0.14943000  1
  H  915  1  0.82122900  0.34838300  0.18901500  1
  H  927  1  0.21496900  0.15550300  0.49449200  1
  H  934  1  0.24532100  0.21233900  0.34126700  1
  H  935  1  0.21450400  0.20907900  0.29536200  1
  H  936  1  0.14053500  0.13166600  0.36811600  1
  H  937  1  0.31856800  0.18453300  0.44028600  1
  H  940  1  0.18405800  0.10385100  0.44089400  1
  H  941  1  0.13800600  0.12179300  0.42777400  1
  H  942  1  0.16453100  0.13300200  0.47384500  1
  H  943  1  0.15452600  0.17256900  0.43458000  1
  H  955  1  0.54827900  0.48141200  0.67038000  1
  H  962  1  0.57861500  0.63455700  0.57371500  1
  H  963  1  0.54771500  0.68042000  0.52457800  1
  H  964  1  0.47373400  0.60758700  0.52008500  1
  H  965  1  0.65186700  0.53563700  0.64507500  1
  H  968  1  0.51736700  0.53484000  0.56504000  1
  H  969  1  0.47130500  0.54793200  0.56987300  1
  H  970  1  0.49789200  0.50191500  0.62715100  1
  H  971  1  0.48784100  0.54118800  0.62742600  1
  H  983  1  0.88175400  0.65372800  0.82062300  1
  H  990  1  0.91187120  0.55724100  0.76388300  1
  H  991  1  0.88095900  0.50811700  0.76714000  1
  H  992  1  0.80706200  0.50354700  0.84456000  1
  H  993  1  0.98527120  0.62840900  0.79159400  1
  H  996  1  0.85071200  0.54844200  0.87237700  1
  H  997  1  0.80464900  0.55333600  0.85444100  1
  H  998  1  0.83130700  0.61056600  0.84326200  1
  H  999  1  0.82122000  0.61091000  0.80368800  1
  H  1011  1  0.21505100  0.80367300  0.49825700  1
  H  1018  1  0.24542100  0.74689500  0.65147900  1
  H  1019  1  0.21457500  0.75014700  0.69737900  1
  H  1020  1  0.14058600  0.82753000  0.62461700  1
  H  1021  1  0.31865900  0.77468700  0.55244400  1
  H  1024  1  0.18412300  0.85535600  0.55185000  1
  H  1025  1  0.13807400  0.83740500  0.56495800  1
  H  1026  1  0.16461900  0.82621400  0.51888400  1
  H  1027  1  0.15462500  0.78663600  0.55814400  1
  H  1042  1  0.55372300  0.56131700  0.15657600  1
  H  1050  1  0.33517800  0.55551600  0.27118000  1
  H  1052  1  0.42215800  0.47048300  0.27615300  1
  H  1053  1  0.47783600  0.47179400  0.24656800  1
  H  1054  1  0.40856000  0.64559400  0.17792100  1
  H  1055  1  0.46479300  0.64687500  0.14874400  1
  H  1060  1  0.54634400  0.63436700  0.13804000  1
  H  1061  1  0.34388100  0.63645900  0.20013200  1
  H  1062  1  0.38629600  0.48365700  0.31714900  1
  H  1063  1  0.54839400  0.48672700  0.22744800  1
  H  1072  1  0.88746300  0.13999700  0.25410900  1
  H  1080  1  0.66876100  0.25455400  0.14568100  1
  H  1082  1  0.75594200  0.25954600  0.22560200  1
  H  1083  1  0.81166400  0.22997100  0.25377500  1
  H  1084  1  0.74207100  0.16132100  0.14873100  1
  H  1085  1  0.79834300  0.13215200  0.17653200  1
  H  1090  1  0.88001900  0.12139300  0.19973500  1
  H  1091  1  0.67733500  0.18352300  0.13579700  1
  H  1092  1  0.71996000  0.30050100  0.17161800  1
  H  1093  1  0.88230200  0.21080400  0.25783600  1
  H  1102  1  0.22036000  0.23766900  0.57795500  1
  H  1110  1  0.00193300  0.12870800  0.57219900  1
  H  1112  1  0.08903500  0.20859400  0.48716000  1
  H  1113  1  0.14468300  0.23691100  0.48845800  1
  H  1114  1  0.07526800  0.13196900  0.66224200  1
  H  1115  1  0.13147800  0.15988700  0.66351800  1
  H  1120  1  0.21088900  0.18157300  0.65257600  1
  H  1121  1  0.01036200  0.11904700  0.65293700  1
  H  1122  1  0.05297900  0.15445000  0.50036800  1
  H  1123  1  0.21502800  0.24134800  0.50325200  1
  H  1132  1  0.55380500  0.39790100  0.83622800  1
  H  1140  1  0.33508700  0.40394200  0.72176200  1
  H  1142  1  0.42233900  0.48885400  0.71658900  1
  H  1143  1  0.47804900  0.48748900  0.74615700  1
  H  1144  1  0.40844800  0.31377400  0.81499100  1
  H  1145  1  0.46473900  0.31243800  0.84410200  1
  H  1150  1  0.54604100  0.32471200  0.85472100  1
  H  1151  1  0.34403000  0.32276800  0.79294200  1
  H  1152  1  0.38642500  0.47569500  0.67567100  1
  H  1153  1  0.54855600  0.47249700  0.76533500  1
  H  1162  1  0.88751400  0.81918200  0.73863900  1
  H  1170  1  0.66871800  0.70480000  0.84699800  1
  H  1172  1  0.75589400  0.69973100  0.76712700  1
  H  1173  1  0.81164400  0.72925100  0.73897600  1
  H  1174  1  0.74213000  0.79795300  0.84400400  1
  H  1175  1  0.79842500  0.82707400  0.81622100  1
  H  1180  1  0.88020400  0.83781500  0.79290800  1
  H  1181  1  0.67745100  0.77582300  0.85696500  1
  H  1182  1  0.71988900  0.65879500  0.82115000  1
  H  1183  1  0.88227100  0.74837200  0.73488500  1
  H  1192  1  0.22048600  0.72165600  0.41439800  1
  H  1200  1  0.00197300  0.83027500  0.42063400  1
  H  1202  1  0.08906300  0.75017400  0.50551200  1
  H  1203  1  0.14472500  0.72193500  0.50408700  1
  H  1204  1  0.07520000  0.82723100  0.33040500  1
  H  1205  1  0.13142400  0.79938400  0.32900900  1
  H  1210  1  0.21342800  0.77585300  0.34178700  1
  H  1211  1  0.01053800  0.84021900  0.33966100  1
  H  1212  1  0.05318600  0.80428000  0.49247500  1
  H  1213  1  0.21530000  0.71785100  0.48899900  1
  H  1220  1  0.64412700  0.66716000  0.92933500  1
  H  1227  1  0.59998500  0.71386300  0.03010700  1
  H  1228  1  0.56439800  0.68532900  0.08279900  1
  H  1229  1  0.51271000  0.62096900  0.04929400  1
  H  1230  1  0.65241700  0.76841200  0.91549300  1
  H  1233  1  0.53503700  0.66213600  0.96455300  1
  H  1234  1  0.53641600  0.61861500  0.00024900  1
  H  1235  1  0.59200200  0.63046000  0.96164300  1
  H  1236  1  0.60685900  0.62150000  0.00377600  1
  H  1248  1  0.97755440  0.91279300  0.37576700  1
  H  1255  1  0.93347040  0.01340100  0.22819900  1
  H  1256  1  0.89786300  0.06610700  0.20393700  1
  H  1257  1  0.84620600  0.03279500  0.30178300  1
  H  1258  1  0.98573440  0.89871800  0.28848900  1
  H  1261  1  0.86849300  0.94812200  0.34552300  1
  H  1262  1  0.86995500  0.98389100  0.35323500  1
  H  1263  1  0.92548440  0.94522200  0.38007500  1
  H  1264  1  0.94039740  0.98730100  0.34683200  1
  H  1276  1  0.31014400  0.35935400  0.68432800  1
  H  1283  1  0.26685800  0.21192300  0.73044300  1
  H  1284  1  0.23186400  0.18792400  0.70145800  1
  H  1285  1  0.17948000  0.28555900  0.63762600  1
  H  1286  1  0.31879700  0.27172200  0.78541200  1
  H  1289  1  0.20114000  0.32876500  0.67942200  1
  H  1290  1  0.20248700  0.33687800  0.63580000  1
  H  1291  1  0.25789800  0.36374100  0.64774000  1
  H  1292  1  0.27297400  0.33082000  0.63849100  1
  H  1303  1  0.64438200  0.29218900  0.06326000  1
  H  1310  1  0.59996500  0.24533200  0.96267600  1
  H  1311  1  0.56431300  0.27387200  0.91000600  1
  H  1312  1  0.51276200  0.33826900  0.94354300  1
  H  1313  1  0.65248200  0.19086100  0.07725900  1
  H  1316  1  0.53521000  0.29720400  0.02821100  1
  H  1317  1  0.53657300  0.34070700  0.99247600  1
  H  1318  1  0.59222900  0.32889100  0.03100000  1
  H  1319  1  0.60700600  0.33778600  0.98886600  1
  H  1331  1  0.97748940  0.04637200  0.61705300  1
  H  1338  1  0.93341040  0.94580700  0.76456200  1
  H  1339  1  0.89787700  0.89308400  0.78879800  1
  H  1340  1  0.84608400  0.92646100  0.69100000  1
  H  1341  1  0.98585940  0.06038100  0.70435800  1
  H  1344  1  0.86835400  0.01122700  0.64733200  1
  H  1345  1  0.86970500  0.97550200  0.63955300  1
  H  1346  1  0.92527640  0.01410500  0.61272200  1
  H  1347  1  0.94015040  0.97198300  0.64590200  1
  H  1359  1  0.31091200  0.60036200  0.30882300  1
  H  1366  1  0.26656100  0.74789700  0.26184700  1
  H  1367  1  0.23078800  0.77212300  0.29024000  1
  H  1368  1  0.17929700  0.67419500  0.35476700  1
  H  1369  1  0.31899500  0.68762800  0.20745800  1
  H  1372  1  0.20182900  0.63045500  0.31390300  1
  H  1373  1  0.20324100  0.62276600  0.35737700  1
  H  1374  1  0.25887100  0.59600800  0.34558800  1
  H  1375  1  0.27367100  0.62930100  0.35439000  1
  H  1387  1  0.26427600  0.47790900  0.32231100  1
  H  1394  1  0.29460000  0.32470000  0.41871400  1
  H  1395  1  0.26371900  0.27877500  0.46782500  1
  H  1396  1  0.18973900  0.35151800  0.47249300  1
  H  1397  1  0.36786200  0.42368000  0.34751700  1
  H  1400  1  0.23333400  0.42428200  0.42763100  1
  H  1401  1  0.18727900  0.41121300  0.42275700  1
  H  1402  1  0.21387500  0.45731400  0.36552400  1
  H  1403  1  0.20382500  0.41809200  0.36515100  1
  H  1415  1  0.59789000  0.30560900  0.17204100  1
  H  1422  1  0.62791000  0.40204900  0.22886900  1
  H  1423  1  0.59695600  0.45115400  0.22562600  1
  H  1424  1  0.52310700  0.45573200  0.14817500  1
  H  1425  1  0.70137600  0.33093100  0.20110400  1
  H  1428  1  0.56680800  0.41087700  0.12034000  1
  H  1429  1  0.52073600  0.40596400  0.13826600  1
  H  1430  1  0.54741800  0.34874700  0.14943000  1
  H  1431  1  0.53732500  0.34838300  0.18901500  1
  H  1443  1  0.93106540  0.15550300  0.49449200  1
  H  1450  1  0.96141740  0.21233900  0.34126700  1
  H  1451  1  0.93060040  0.20907900  0.29536200  1
  H  1452  1  0.85663100  0.13166600  0.36811600  1
  H  1453  1  0.03466400  0.18453300  0.44028600  1
  H  1456  1  0.90015440  0.10385100  0.44089400  1
  H  1457  1  0.85410200  0.12179300  0.42777400  1
  H  1458  1  0.88062700  0.13300200  0.47384500  1
  H  1459  1  0.87062200  0.17256900  0.43458000  1
  H  1471  1  0.26437500  0.48141200  0.67038000  1
  H  1478  1  0.29471100  0.63455700  0.57371500  1
  H  1479  1  0.26381100  0.68042000  0.52457800  1
  H  1480  1  0.18983000  0.60758700  0.52008500  1
  H  1481  1  0.36796300  0.53563700  0.64507500  1
  H  1484  1  0.23346300  0.53484000  0.56504000  1
  H  1485  1  0.18740100  0.54793200  0.56987300  1
  H  1486  1  0.21398800  0.50191500  0.62715100  1
  H  1487  1  0.20393700  0.54118800  0.62742600  1
  H  1499  1  0.59785000  0.65372800  0.82062300  1
  H  1506  1  0.62796700  0.55724100  0.76388300  1
  H  1507  1  0.59705500  0.50811700  0.76714000  1
  H  1508  1  0.52315800  0.50354700  0.84456000  1
  H  1509  1  0.70136700  0.62840900  0.79159400  1
  H  1512  1  0.56680800  0.54844200  0.87237700  1
  H  1513  1  0.52074500  0.55333600  0.85444100  1
  H  1514  1  0.54740300  0.61056600  0.84326200  1
  H  1515  1  0.53731600  0.61091000  0.80368800  1
  H  1527  1  0.93114740  0.80367300  0.49825700  1
  H  1534  1  0.96151740  0.74689500  0.65147900  1
  H  1535  1  0.93067140  0.75014700  0.69737900  1
  H  1536  1  0.85668200  0.82753000  0.62461700  1
  H  1537  1  0.03475500  0.77468700  0.55244400  1
  H  1540  1  0.90021940  0.85535600  0.55185000  1
  H  1541  1  0.85417000  0.83740500  0.56495800  1
  H  1542  1  0.88071500  0.82621400  0.51888400  1
  H  1543  1  0.87072100  0.78663600  0.55814400  1
  C  2  1  0.02811800  0.55910500  0.20337600  1
  C  3  1  0.04794600  0.52727900  0.21267300  1
  C  4  1  0.08214800  0.52815900  0.19508400  1
  C  5  1  0.09651400  0.56070100  0.16892000  1
  C  6  1  0.07732700  0.59239900  0.15931100  1
  C  7  1  0.04292100  0.59178100  0.17647400  1
  C  8  1  0.03272900  0.49526500  0.23939400  1
  C  9  1  0.02286300  0.62291700  0.16778400  1
  C  11  1  0.99375900  0.55832200  0.22117300  1
  C  12  1  0.97974900  0.52568300  0.24885600  1
  C  13  1  0.94636400  0.52485400  0.26738700  1
  C  14  1  0.92685600  0.55638700  0.25734000  1
  C  15  1  0.94023500  0.58921500  0.23032900  1
  C  16  1  0.97398100  0.59015900  0.21203100  1
  C  17  1  0.99957200  0.49451200  0.25716400  1
  C  19  1  0.98927500  0.62211800  0.18517400  1
  C  24  1  0.09327100  0.62267000  0.13259100  1
  C  25  1  0.92023800  0.61910400  0.22421500  1
  C  26  1  0.93502300  0.49514300  0.29801500  1
  C  27  1  0.10373300  0.49857500  0.20404800  1
  C  32  1  0.36179600  0.18678100  0.20968000  1
  C  33  1  0.38168300  0.19608100  0.23217600  1
  C  34  1  0.41590800  0.17849400  0.24882400  1
  C  35  1  0.43024200  0.15234200  0.24241600  1
  C  36  1  0.41099100  0.14272700  0.22036300  1
  C  37  1  0.37655900  0.15988100  0.20388200  1
  C  38  1  0.36650300  0.22279000  0.23750600  1
  C  39  1  0.35643900  0.15118800  0.18147000  1
  C  41  1  0.32741500  0.20457600  0.19272500  1
  C  42  1  0.31344100  0.23225300  0.19771000  1
  C  43  1  0.28004000  0.25078300  0.18004900  1
  C  44  1  0.26048200  0.24074800  0.15857900  1
  C  45  1  0.27381400  0.21372500  0.15276100  1
  C  46  1  0.30757900  0.19542800  0.17006400  1
  C  47  1  0.33333333  0.24055000  0.22055400  1
  C  49  1  0.32282500  0.16856800  0.16494200  1
  C  54  1  0.42687800  0.11599000  0.21681200  1
  C  55  1  0.25375600  0.20759900  0.12902800  1
  C  56  1  0.26868400  0.28138100  0.17919700  1
  C  57  1  0.43754100  0.18745000  0.26941600  1
  C  62  1  0.69491700  0.19287300  0.57576100  1
  C  63  1  0.71475100  0.21539500  0.54393200  1
  C  64  1  0.74891200  0.23215900  0.54480700  1
  C  65  1  0.76319700  0.22588300  0.57734000  1
  C  66  1  0.74401000  0.20378700  0.60903600  1
  C  67  1  0.70967700  0.18715400  0.60843000  1
  C  68  1  0.69956700  0.22063400  0.51192900  1
  C  69  1  0.68959100  0.16475000  0.63956700  1
  C  71  1  0.66057000  0.17584900  0.57498400  1
  C  72  1  0.64658300  0.18076800  0.54235400  1
  C  73  1  0.61319800  0.16305200  0.54155400  1
  C  74  1  0.59365700  0.14162100  0.57307300  1
  C  75  1  0.60701500  0.13585700  0.60588500  1
  C  76  1  0.64076300  0.15320400  0.60682000  1
  C  77  1  0.66642500  0.20359600  0.51118500  1
  C  79  1  0.65601100  0.14815400  0.63877100  1
  C  84  1  0.75979300  0.20039900  0.63928800  1
  C  85  1  0.58698800  0.11215100  0.63578100  1
  C  86  1  0.60179700  0.16221800  0.51182200  1
  C  87  1  0.77047500  0.25283200  0.51521700  1
  C  92  1  0.02817500  0.40020500  0.78942600  1
  C  93  1  0.04806500  0.43200900  0.78009800  1
  C  94  1  0.08227000  0.43109600  0.79769600  1
  C  95  1  0.09659900  0.39854300  0.82387300  1
  C  96  1  0.07737000  0.36686500  0.83348200  1
  C  97  1  0.04294400  0.36751800  0.81633700  1
  C  98  1  0.03289400  0.46403200  0.75335800  1
  C  99  1  0.02282600  0.33640500  0.82506300  1
  C  101  1  0.99378500  0.40102300  0.77165700  1
  C  102  1  0.97982200  0.43367200  0.74395100  1
  C  103  1  0.94640900  0.43453500  0.72544100  1
  C  104  1  0.92681000  0.40303300  0.73556000  1
  C  105  1  0.94011500  0.37019300  0.76262000  1
  C  106  1  0.97392300  0.36921200  0.78085600  1
  C  107  1  0.99971200  0.46481900  0.73560600  1
  C  109  1  0.98920000  0.33723800  0.80770900  1
  C  114  1  0.09323400  0.33659000  0.86026500  1
  C  115  1  0.91999400  0.34033700  0.76880000  1
  C  116  1  0.93511700  0.46423600  0.69477700  1
  C  117  1  0.10389500  0.46065200  0.78873700  1
  C  122  1  0.36182200  0.77245600  0.78306500  1
  C  123  1  0.38169800  0.76314100  0.76057200  1
  C  124  1  0.41593600  0.78070100  0.74392900  1
  C  125  1  0.43028800  0.80684900  0.75033400  1
  C  126  1  0.41105300  0.81647200  0.77238900  1
  C  127  1  0.37661000  0.79934300  0.78886800  1
  C  128  1  0.36649700  0.73643900  0.75524300  1
  C  129  1  0.35650400  0.80804900  0.81128000  1
  C  131  1  0.32742100  0.75469500  0.80000800  1
  C  132  1  0.31341900  0.72703300  0.79501400  1
  C  133  1  0.27998900  0.70854300  0.81264000  1
  C  134  1  0.26043400  0.71860900  0.83408900  1
  C  135  1  0.27380300  0.74559500  0.83994800  1
  C  136  1  0.30759300  0.76385400  0.82266500  1
  C  137  1  0.33333333  0.71871000  0.77218700  1
  C  139  1  0.32287800  0.79069100  0.82780300  1
  C  144  1  0.42696300  0.84320600  0.77593200  1
  C  145  1  0.25374500  0.75172500  0.86368600  1
  C  146  1  0.26862700  0.67793600  0.81351900  1
  C  147  1  0.43755000  0.77174400  0.72331700  1
  C  152  1  0.69487200  0.76613500  0.41680100  1
  C  153  1  0.71474500  0.74358800  0.44859300  1
  C  154  1  0.74894400  0.72691200  0.44764100  1
  C  155  1  0.76327400  0.73335600  0.41506400  1
  C  156  1  0.74404400  0.75546400  0.38340100  1
  C  157  1  0.70962900  0.77195900  0.38409100  1
  C  158  1  0.69957900  0.73824200  0.48064000  1
  C  159  1  0.68952600  0.79442400  0.35299100  1
  C  161  1  0.66052500  0.78312600  0.41765300  1
  C  162  1  0.64657100  0.77812600  0.45032800  1
  C  163  1  0.61321000  0.79582700  0.45121100  1
  C  164  1  0.59366900  0.81735300  0.41971100  1
  C  165  1  0.60697200  0.82318000  0.38686100  1
  C  166  1  0.64070300  0.80584100  0.38585200  1
  C  167  1  0.66642700  0.75523100  0.48146100  1
  C  169  1  0.65593700  0.81097900  0.35385800  1
  C  174  1  0.75995400  0.75907900  0.35308700  1
  C  175  1  0.58691700  0.84694500  0.35700900  1
  C  176  1  0.60189900  0.79666900  0.48097200  1
  C  177  1  0.77058100  0.70629300  0.47718300  1
  C  182  1  0.22101400  0.71861600  0.91956900  1
  C  183  1  0.21013200  0.74328000  0.92942700  1
  C  184  1  0.18462900  0.73402900  0.95773500  1
  C  185  1  0.16961000  0.69924500  0.97657300  1
  C  186  1  0.17929400  0.67517500  0.96494000  1
  C  187  1  0.20543000  0.68473800  0.93743500  1
  C  189  1  0.14357600  0.68698000  0.00579200  1
  C  190  1  0.14726100  0.69663800  0.03196800  1
  C  191  1  0.12676300  0.67924000  0.06363200  1
  C  192  1  0.10194700  0.65142500  0.07016500  1
  C  193  1  0.09700800  0.64226600  0.04402800  1
  C  194  1  0.11794300  0.65917600  0.01248800  1
  C  199  1  0.11809600  0.64427400  0.98865500  1
  C  200  1  0.15978700  0.64050400  0.97993200  1
  C  210  1  0.55442500  0.90293200  0.33413100  1
  C  211  1  0.54347200  0.91269200  0.29965200  1
  C  212  1  0.51801700  0.94102900  0.28054500  1
  C  213  1  0.50307200  0.95996200  0.29642100  1
  C  214  1  0.51273300  0.94836200  0.33212200  1
  C  215  1  0.53883300  0.92083300  0.35010700  1
  C  217  1  0.47707200  0.98920300  0.27939700  1
  C  218  1  0.48083400  0.01536100  0.24357700  1
  C  219  1  0.46031300  0.04701400  0.22924300  1
  C  220  1  0.43532700  0.05354300  0.25041700  1
  C  221  1  0.43046400  0.02748400  0.28576200  1
  C  222  1  0.45147300  0.99597200  0.30047800  1
  C  227  1  0.45159800  0.97221800  0.33922800  1
  C  228  1  0.49328000  0.96345700  0.35173000  1
  C  238  1  0.88720800  0.31755200  0.73569700  1
  C  239  1  0.87646100  0.28296900  0.76029300  1
  C  240  1  0.85103400  0.26390900  0.75098300  1
  C  241  1  0.83594200  0.27992800  0.71622000  1
  C  242  1  0.84547000  0.31569500  0.69224100  1
  C  243  1  0.87154900  0.33363300  0.70184600  1
  C  245  1  0.81004700  0.26296300  0.70386400  1
  C  246  1  0.81405000  0.22721700  0.71328600  1
  C  247  1  0.79386800  0.21303800  0.69563900  1
  C  248  1  0.76904700  0.23432500  0.66783100  1
  C  249  1  0.76374600  0.26950400  0.65894000  1
  C  250  1  0.78436000  0.28405000  0.67610400  1
  C  255  1  0.78424600  0.32275300  0.66141600  1
  C  256  1  0.82586000  0.33543700  0.65762500  1
  C  265  1  0.22122700  0.24070800  0.07306200  1
  C  266  1  0.21021100  0.21599600  0.06331400  1
  C  267  1  0.18468000  0.22523300  0.03503200  1
  C  268  1  0.16971000  0.26003400  0.01615800  1
  C  269  1  0.17943600  0.28412600  0.02775300  1
  C  270  1  0.20562100  0.27458000  0.05521600  1
  C  272  1  0.14363000  0.27226200  0.98697600  1
  C  273  1  0.14733200  0.26265100  0.96077500  1
  C  274  1  0.12678100  0.28002500  0.92914500  1
  C  275  1  0.10181400  0.30771800  0.92269300  1
  C  276  1  0.09699300  0.31693500  0.94880500  1
  C  277  1  0.11803900  0.30009200  0.98029100  1
  C  282  1  0.11824100  0.31504100  0.00408300  1
  C  283  1  0.15995800  0.31881000  0.01274000  1
  C  293  1  0.55441000  0.05621900  0.65868700  1
  C  294  1  0.54354000  0.04642700  0.69319500  1
  C  295  1  0.51802200  0.01814800  0.71228700  1
  C  296  1  0.50297000  0.99927700  0.69638900  1
  C  297  1  0.51263400  0.01085100  0.66069500  1
  C  298  1  0.53879600  0.03831900  0.64272200  1
  C  300  1  0.47694200  0.97006100  0.71339000  1
  C  301  1  0.48067200  0.94391600  0.74923000  1
  C  302  1  0.46020500  0.91223200  0.76354200  1
  C  303  1  0.43538100  0.90565100  0.74229900  1
  C  304  1  0.43038400  0.93176400  0.70700200  1
  C  305  1  0.45129100  0.96332200  0.69232700  1
  C  310  1  0.45140700  0.98712100  0.65358400  1
  C  311  1  0.49309000  0.99583400  0.64105900  1
  C  321  1  0.88774200  0.64200000  0.25731900  1
  C  322  1  0.87675200  0.67646600  0.23260100  1
  C  323  1  0.85127200  0.69555200  0.24183400  1
  C  324  1  0.83633300  0.67966900  0.27664400  1
  C  325  1  0.84604500  0.64398000  0.30075200  1
  C  326  1  0.87216800  0.62601700  0.29120300  1
  C  328  1  0.81026900  0.69665400  0.28885300  1
  C  329  1  0.81393800  0.73248900  0.27917700  1
  C  330  1  0.79332400  0.74679700  0.29647000  1
  C  331  1  0.76833200  0.72559300  0.32415300  1
  C  332  1  0.76356400  0.69023300  0.33345100  1
  C  333  1  0.78467100  0.67553800  0.31668800  1
  C  338  1  0.78488400  0.63678800  0.33169800  1
  C  339  1  0.82659800  0.62435700  0.33545600  1
  C  349  1  0.88614500  0.45479900  0.33001600  1
  C  350  1  0.90738400  0.42451100  0.35229300  1
  C  351  1  0.89090700  0.39544600  0.38187300  1
  C  352  1  0.85134700  0.39568900  0.38866500  1
  C  353  1  0.83029800  0.42698500  0.36707000  1
  C  354  1  0.84757100  0.45570600  0.33776700  1
  C  356  1  0.83207200  0.36699400  0.41795000  1
  C  357  1  0.84187200  0.33140500  0.43065100  1
  C  358  1  0.82269400  0.30394000  0.45910800  1
  C  359  1  0.79193200  0.31092800  0.47528700  1
  C  360  1  0.78043500  0.34610800  0.46161700  1
  C  361  1  0.79953600  0.37391500  0.43280500  1
  C  366  1  0.78512300  0.41058400  0.41679000  1
  C  367  1  0.79023300  0.42990700  0.37632400  1
  C  377  1  0.21971900  0.31337100  0.18747000  1
  C  378  1  0.24090100  0.33568500  0.19546700  1
  C  379  1  0.22435500  0.36523500  0.19496800  1
  C  380  1  0.18478500  0.37196200  0.18795100  1
  C  381  1  0.16380700  0.35036200  0.17821000  1
  C  382  1  0.18114800  0.32108800  0.17878300  1
  C  384  1  0.16545700  0.40123900  0.18733100  1
  C  385  1  0.17516900  0.41394500  0.21023200  1
  C  386  1  0.15597100  0.44242100  0.20918300  1
  C  387  1  0.12523300  0.45857900  0.18597700  1
  C  388  1  0.11379800  0.44488100  0.16447700  1
  C  389  1  0.13293300  0.41606100  0.16552700  1
  C  394  1  0.11858400  0.40002800  0.14487400  1
  C  395  1  0.12374000  0.35956500  0.16603000  1
  C  405  1  0.55293700  0.17090100  0.47138900  1
  C  406  1  0.57418100  0.17895100  0.44109600  1
  C  407  1  0.55770900  0.17846400  0.41201500  1
  C  408  1  0.51815000  0.17143100  0.41225400  1
  C  409  1  0.49708500  0.16173700  0.44354000  1
  C  410  1  0.51435700  0.16227700  0.47228100  1
  C  412  1  0.49889900  0.17081200  0.38356700  1
  C  413  1  0.50871000  0.19367800  0.34797800  1
  C  414  1  0.48957200  0.19263900  0.32052300  1
  C  415  1  0.45884000  0.16944100  0.32752400  1
  C  416  1  0.44731900  0.14796200  0.36270000  1
  C  417  1  0.46638300  0.14901100  0.39049800  1
  C  422  1  0.45194400  0.12839100  0.42715800  1
  C  423  1  0.45702000  0.14957300  0.44644400  1
  C  433  1  0.88624300  0.50453000  0.66263300  1
  C  434  1  0.90749300  0.53478200  0.64028900  1
  C  435  1  0.89102000  0.56381200  0.61067000  1
  C  436  1  0.85145300  0.56356400  0.60390200  1
  C  437  1  0.83041100  0.53227300  0.62553100  1
  C  438  1  0.84767900  0.50359200  0.65487500  1
  C  440  1  0.83218600  0.59221900  0.57457500  1
  C  441  1  0.84196000  0.62782000  0.56182700  1
  C  442  1  0.82279400  0.65525100  0.53333100  1
  C  443  1  0.79202900  0.64821500  0.51719200  1
  C  444  1  0.78054100  0.61302600  0.53092100  1
  C  445  1  0.79964800  0.58525100  0.55976000  1
  C  450  1  0.78524300  0.54857900  0.57583400  1
  C  451  1  0.79034700  0.52932800  0.61629800  1
  C  461  1  0.21968800  0.64596600  0.80520700  1
  C  462  1  0.24088700  0.62366300  0.79720400  1
  C  463  1  0.22436700  0.59408600  0.79774300  1
  C  464  1  0.18480500  0.58733400  0.80479300  1
  C  465  1  0.16379600  0.60895900  0.81447900  1
  C  466  1  0.18111400  0.63825300  0.81387800  1
  C  468  1  0.16549400  0.55805100  0.80541500  1
  C  469  1  0.17525100  0.54532000  0.78254300  1
  C  470  1  0.15605700  0.51685400  0.78357700  1
  C  471  1  0.12531300  0.50069600  0.80677500  1
  C  472  1  0.11384600  0.51440400  0.82825800  1
  C  473  1  0.13296700  0.54322400  0.82721100  1
  C  478  1  0.11859000  0.55927700  0.84784000  1
  C  479  1  0.12373100  0.59974200  0.82667000  1
  C  489  1  0.55302800  0.78829100  0.52134200  1
  C  490  1  0.57427800  0.78029900  0.55161700  1
  C  491  1  0.55780300  0.78078200  0.58070000  1
  C  492  1  0.51823300  0.78777400  0.58048400  1
  C  493  1  0.49718100  0.79749300  0.54918400  1
  C  494  1  0.51445400  0.79693900  0.52044800  1
  C  496  1  0.49897800  0.78839900  0.60917100  1
  C  497  1  0.50877000  0.76552300  0.64476400  1
  C  498  1  0.48963800  0.76657700  0.67221800  1
  C  499  1  0.45889100  0.78976700  0.66521200  1
  C  500  1  0.44737900  0.81124300  0.63003500  1
  C  501  1  0.46644900  0.81018700  0.60223900  1
  C  506  1  0.45201500  0.83081400  0.56557600  1
  C  507  1  0.45710800  0.80963900  0.54628500  1
  C  518  1  0.74421400  0.55910500  0.20337600  1
  C  519  1  0.76404200  0.52727900  0.21267300  1
  C  520  1  0.79824400  0.52815900  0.19508400  1
  C  521  1  0.81261000  0.56070100  0.16892000  1
  C  522  1  0.79342300  0.59239900  0.15931100  1
  C  523  1  0.75901700  0.59178100  0.17647400  1
  C  524  1  0.74882500  0.49526500  0.23939400  1
  C  525  1  0.73895900  0.62291700  0.16778400  1
  C  527  1  0.70985500  0.55832200  0.22117300  1
  C  528  1  0.69584500  0.52568300  0.24885600  1
  C  529  1  0.66246000  0.52485400  0.26738700  1
  C  530  1  0.64295200  0.55638700  0.25734000  1
  C  531  1  0.65633100  0.58921500  0.23032900  1
  C  532  1  0.69007700  0.59015900  0.21203100  1
  C  533  1  0.71566800  0.49451200  0.25716400  1
  C  535  1  0.70537100  0.62211800  0.18517400  1
  C  540  1  0.80936700  0.62267000  0.13259100  1
  C  541  1  0.63633400  0.61910400  0.22421500  1
  C  542  1  0.65111900  0.49514300  0.29801500  1
  C  543  1  0.81982900  0.49857500  0.20404800  1
  C  548  1  0.07789200  0.18678100  0.20968000  1
  C  549  1  0.09777900  0.19608100  0.23217600  1
  C  550  1  0.13200400  0.17849400  0.24882400  1
  C  551  1  0.14633800  0.15234200  0.24241600  1
  C  552  1  0.12708700  0.14272700  0.22036300  1
  C  553  1  0.09265500  0.15988100  0.20388200  1
  C  554  1  0.08259900  0.22279000  0.23750600  1
  C  555  1  0.07253500  0.15118800  0.18147000  1
  C  557  1  0.04351100  0.20457600  0.19272500  1
  C  558  1  0.02953700  0.23225300  0.19771000  1
  C  559  1  0.99613621  0.25078300  0.18004900  1
  C  560  1  0.97657820  0.24074800  0.15857900  1
  C  561  1  0.98991020  0.21372500  0.15276100  1
  C  562  1  0.02367500  0.19542800  0.17006400  1
  C  563  1  0.04941400  0.24055000  0.22055400  1
  C  565  1  0.03892100  0.16856800  0.16494200  1
  C  570  1  0.14297400  0.11599000  0.21681200  1
  C  571  1  0.96985220  0.20759900  0.12902800  1
  C  572  1  0.98478020  0.28138100  0.17919700  1
  C  573  1  0.15363700  0.18745000  0.26941600  1
  C  578  1  0.41101300  0.19287300  0.57576100  1
  C  579  1  0.43084700  0.21539500  0.54393200  1
  C  580  1  0.46500800  0.23215900  0.54480700  1
  C  581  1  0.47929300  0.22588300  0.57734000  1
  C  582  1  0.46010600  0.20378700  0.60903600  1
  C  583  1  0.42577300  0.18715400  0.60843000  1
  C  584  1  0.41566300  0.22063400  0.51192900  1
  C  585  1  0.40568700  0.16475000  0.63956700  1
  C  587  1  0.37666600  0.17584900  0.57498400  1
  C  588  1  0.36267900  0.18076800  0.54235400  1
  C  589  1  0.32929400  0.16305200  0.54155400  1
  C  590  1  0.30975300  0.14162100  0.57307300  1
  C  591  1  0.32311100  0.13585700  0.60588500  1
  C  592  1  0.35685900  0.15320400  0.60682000  1
  C  593  1  0.38252100  0.20359600  0.51118500  1
  C  595  1  0.37210700  0.14815400  0.63877100  1
  C  600  1  0.47588900  0.20039900  0.63928800  1
  C  601  1  0.30308400  0.11215100  0.63578100  1
  C  602  1  0.31789300  0.16221800  0.51182200  1
  C  603  1  0.48657100  0.25283200  0.51521700  1
  C  608  1  0.74427100  0.40020500  0.78942600  1
  C  609  1  0.76416100  0.43200900  0.78009800  1
  C  610  1  0.79836600  0.43109600  0.79769600  1
  C  611  1  0.81269500  0.39854300  0.82387300  1
  C  612  1  0.79346600  0.36686500  0.83348200  1
  C  613  1  0.75904000  0.36751800  0.81633700  1
  C  614  1  0.74899000  0.46403200  0.75335800  1
  C  615  1  0.73892200  0.33640500  0.82506300  1
  C  617  1  0.70988100  0.40102300  0.77165700  1
  C  618  1  0.69591800  0.43367200  0.74395100  1
  C  619  1  0.66250500  0.43453500  0.72544100  1
  C  620  1  0.64290600  0.40303300  0.73556000  1
  C  621  1  0.65621100  0.37019300  0.76262000  1
  C  622  1  0.69001900  0.36921200  0.78085600  1
  C  623  1  0.71580800  0.46481900  0.73560600  1
  C  625  1  0.70529600  0.33723800  0.80770900  1
  C  630  1  0.80933000  0.33659000  0.86026500  1
  C  631  1  0.63609000  0.34033700  0.76880000  1
  C  632  1  0.65121300  0.46423600  0.69477700  1
  C  633  1  0.81999100  0.46065200  0.78873700  1
  C  638  1  0.07791800  0.77245600  0.78306500  1
  C  639  1  0.09779400  0.76314100  0.76057200  1
  C  640  1  0.13203200  0.78070100  0.74392900  1
  C  641  1  0.14638400  0.80684900  0.75033400  1
  C  642  1  0.12714900  0.81647200  0.77238900  1
  C  643  1  0.09270600  0.79934300  0.78886800  1
  C  644  1  0.08259300  0.73643900  0.75524300  1
  C  645  1  0.07260000  0.80804900  0.81128000  1
  C  647  1  0.04351700  0.75469500  0.80000800  1
  C  648  1  0.02951500  0.72703300  0.79501400  1
  C  649  1  0.99608521  0.70854300  0.81264000  1
  C  650  1  0.97653020  0.71860900  0.83408900  1
  C  651  1  0.98989920  0.74559500  0.83994800  1
  C  652  1  0.02368900  0.76385400  0.82266500  1
  C  653  1  0.04939100  0.71871000  0.77218700  1
  C  655  1  0.03897400  0.79069100  0.82780300  1
  C  660  1  0.14305900  0.84320600  0.77593200  1
  C  661  1  0.96984120  0.75172500  0.86368600  1
  C  662  1  0.98472320  0.67793600  0.81351900  1
  C  663  1  0.15364600  0.77174400  0.72331700  1
  C  668  1  0.41096800  0.76613500  0.41680100  1
  C  669  1  0.43084100  0.74358800  0.44859300  1
  C  670  1  0.46504000  0.72691200  0.44764100  1
  C  671  1  0.47937000  0.73335600  0.41506400  1
  C  672  1  0.46014000  0.75546400  0.38340100  1
  C  673  1  0.42572500  0.77195900  0.38409100  1
  C  674  1  0.41567500  0.73824200  0.48064000  1
  C  675  1  0.40562200  0.79442400  0.35299100  1
  C  677  1  0.37662100  0.78312600  0.41765300  1
  C  678  1  0.36266700  0.77812600  0.45032800  1
  C  679  1  0.32930600  0.79582700  0.45121100  1
  C  680  1  0.30976500  0.81735300  0.41971100  1
  C  681  1  0.32306800  0.82318000  0.38686100  1
  C  682  1  0.35679900  0.80584100  0.38585200  1
  C  683  1  0.38252300  0.75523100  0.48146100  1
  C  685  1  0.37203300  0.81097900  0.35385800  1
  C  690  1  0.47605000  0.75907900  0.35308700  1
  C  691  1  0.30301300  0.84694500  0.35700900  1
  C  692  1  0.31799500  0.79666900  0.48097200  1
  C  693  1  0.48667700  0.70629300  0.47718300  1
  C  698  1  0.93711020  0.71861600  0.91956900  1
  C  699  1  0.92622820  0.74328000  0.92942700  1
  C  700  1  0.90072520  0.73402900  0.95773500  1
  C  701  1  0.88570600  0.69924500  0.97657300  1
  C  702  1  0.89539000  0.67517500  0.96494000  1
  C  703  1  0.92152620  0.68473800  0.93743500  1
  C  705  1  0.85967200  0.68698000  0.00579200  1
  C  706  1  0.86335700  0.69663800  0.03196800  1
  C  707  1  0.84285900  0.67924000  0.06363200  1
  C  708  1  0.81804300  0.65142500  0.07016500  1
  C  709  1  0.81310400  0.64226600  0.04402800  1
  C  710  1  0.83403900  0.65917600  0.01248800  1
  C  715  1  0.83419200  0.64427400  0.98865500  1
  C  716  1  0.87588300  0.64050400  0.97993200  1
  C  726  1  0.27052100  0.90293200  0.33413100  1
  C  727  1  0.25956800  0.91269200  0.29965200  1
  C  728  1  0.23411300  0.94102900  0.28054500  1
  C  729  1  0.21916800  0.95996200  0.29642100  1
  C  730  1  0.22882900  0.94836200  0.33212200  1
  C  731  1  0.25492900  0.92083300  0.35010700  1
  C  733  1  0.19316800  0.98920300  0.27939700  1
  C  734  1  0.19693000  0.01536100  0.24357700  1
  C  735  1  0.17640900  0.04701400  0.22924300  1
  C  736  1  0.15142300  0.05354300  0.25041700  1
  C  737  1  0.14656000  0.02748400  0.28576200  1
  C  738  1  0.16756900  0.99597200  0.30047800  1
  C  743  1  0.16769400  0.97221800  0.33922800  1
  C  744  1  0.20937600  0.96345700  0.35173000  1
  C  754  1  0.60330400  0.31755200  0.73569700  1
  C  755  1  0.59255700  0.28296900  0.76029300  1
  C  756  1  0.56713000  0.26390900  0.75098300  1
  C  757  1  0.55203800  0.27992800  0.71622000  1
  C  758  1  0.56156600  0.31569500  0.69224100  1
  C  759  1  0.58764500  0.33363300  0.70184600  1
  C  761  1  0.52614300  0.26296300  0.70386400  1
  C  762  1  0.53014600  0.22721700  0.71328600  1
  C  763  1  0.50996400  0.21303800  0.69563900  1
  C  764  1  0.48514300  0.23432500  0.66783100  1
  C  765  1  0.47984200  0.26950400  0.65894000  1
  C  766  1  0.50045600  0.28405000  0.67610400  1
  C  771  1  0.50034200  0.32275300  0.66141600  1
  C  772  1  0.54195600  0.33543700  0.65762500  1
  C  781  1  0.93732320  0.24070800  0.07306200  1
  C  782  1  0.92630720  0.21599600  0.06331400  1
  C  783  1  0.90077620  0.22523300  0.03503200  1
  C  784  1  0.88580600  0.26003400  0.01615800  1
  C  785  1  0.89553200  0.28412600  0.02775300  1
  C  786  1  0.92171720  0.27458000  0.05521600  1
  C  788  1  0.85972600  0.27226200  0.98697600  1
  C  789  1  0.86342800  0.26265100  0.96077500  1
  C  790  1  0.84287700  0.28002500  0.92914500  1
  C  791  1  0.81791000  0.30771800  0.92269300  1
  C  792  1  0.81308900  0.31693500  0.94880500  1
  C  793  1  0.83413500  0.30009200  0.98029100  1
  C  798  1  0.83433700  0.31504100  0.00408300  1
  C  799  1  0.87605400  0.31881000  0.01274000  1
  C  809  1  0.27050600  0.05621900  0.65868700  1
  C  810  1  0.25963600  0.04642700  0.69319500  1
  C  811  1  0.23411800  0.01814800  0.71228700  1
  C  812  1  0.21906600  0.99927700  0.69638900  1
  C  813  1  0.22873000  0.01085100  0.66069500  1
  C  814  1  0.25489200  0.03831900  0.64272200  1
  C  816  1  0.19303800  0.97006100  0.71339000  1
  C  817  1  0.19676800  0.94391600  0.74923000  1
  C  818  1  0.17630100  0.91223200  0.76354200  1
  C  819  1  0.15147700  0.90565100  0.74229900  1
  C  820  1  0.14648000  0.93176400  0.70700200  1
  C  821  1  0.16738700  0.96332200  0.69232700  1
  C  826  1  0.16750300  0.98712100  0.65358400  1
  C  827  1  0.20918600  0.99583400  0.64105900  1
  C  837  1  0.60383800  0.64200000  0.25731900  1
  C  838  1  0.59284800  0.67646600  0.23260100  1
  C  839  1  0.56736800  0.69555200  0.24183400  1
  C  840  1  0.55242900  0.67966900  0.27664400  1
  C  841  1  0.56214100  0.64398000  0.30075200  1
  C  842  1  0.58826400  0.62601700  0.29120300  1
  C  844  1  0.52636500  0.69665400  0.28885300  1
  C  845  1  0.53003400  0.73248900  0.27917700  1
  C  846  1  0.50942000  0.74679700  0.29647000  1
  C  847  1  0.48442800  0.72559300  0.32415300  1
  C  848  1  0.47966000  0.69023300  0.33345100  1
  C  849  1  0.50076700  0.67553800  0.31668800  1
  C  854  1  0.50098000  0.63678800  0.33169800  1
  C  855  1  0.54269400  0.62435700  0.33545600  1
  C  865  1  0.60224100  0.45479900  0.33001600  1
  C  866  1  0.62348000  0.42451100  0.35229300  1
  C  867  1  0.60700300  0.39544600  0.38187300  1
  C  868  1  0.56744300  0.39568900  0.38866500  1
  C  869  1  0.54639400  0.42698500  0.36707000  1
  C  870  1  0.56366700  0.45570600  0.33776700  1
  C  872  1  0.54816800  0.36699400  0.41795000  1
  C  873  1  0.55796800  0.33140500  0.43065100  1
  C  874  1  0.53879000  0.30394000  0.45910800  1
  C  875  1  0.50802800  0.31092800  0.47528700  1
  C  876  1  0.49653100  0.34610800  0.46161700  1
  C  877  1  0.51563200  0.37391500  0.43280500  1
  C  882  1  0.50121900  0.41058400  0.41679000  1
  C  883  1  0.50632900  0.42990700  0.37632400  1
  C  893  1  0.93581520  0.31337100  0.18747000  1
  C  894  1  0.95699720  0.33568500  0.19546700  1
  C  895  1  0.94045120  0.36523500  0.19496800  1
  C  896  1  0.90088120  0.37196200  0.18795100  1
  C  897  1  0.87990300  0.35036200  0.17821000  1
  C  898  1  0.89724400  0.32108800  0.17878300  1
  C  900  1  0.88155300  0.40123900  0.18733100  1
  C  901  1  0.89126500  0.41394500  0.21023200  1
  C  902  1  0.87206700  0.44242100  0.20918300  1
  C  903  1  0.84132900  0.45857900  0.18597700  1
  C  904  1  0.82989400  0.44488100  0.16447700  1
  C  905  1  0.84902900  0.41606100  0.16552700  1
  C  910  1  0.83468000  0.40002800  0.14487400  1
  C  911  1  0.83983600  0.35956500  0.16603000  1
  C  921  1  0.26903300  0.17090100  0.47138900  1
  C  922  1  0.29027700  0.17895100  0.44109600  1
  C  923  1  0.27380500  0.17846400  0.41201500  1
  C  924  1  0.23424600  0.17143100  0.41225400  1
  C  925  1  0.21318100  0.16173700  0.44354000  1
  C  926  1  0.23045300  0.16227700  0.47228100  1
  C  928  1  0.21499500  0.17081200  0.38356700  1
  C  929  1  0.22480600  0.19367800  0.34797800  1
  C  930  1  0.20566800  0.19263900  0.32052300  1
  C  931  1  0.17493600  0.16944100  0.32752400  1
  C  932  1  0.16341500  0.14796200  0.36270000  1
  C  933  1  0.18247900  0.14901100  0.39049800  1
  C  938  1  0.16804000  0.12839100  0.42715800  1
  C  939  1  0.17311600  0.14957300  0.44644400  1
  C  949  1  0.60233900  0.50453000  0.66263300  1
  C  950  1  0.62358900  0.53478200  0.64028900  1
  C  951  1  0.60711600  0.56381200  0.61067000  1
  C  952  1  0.56754900  0.56356400  0.60390200  1
  C  953  1  0.54650700  0.53227300  0.62553100  1
  C  954  1  0.56377500  0.50359200  0.65487500  1
  C  956  1  0.54828200  0.59221900  0.57457500  1
  C  957  1  0.55805600  0.62782000  0.56182700  1
  C  958  1  0.53889000  0.65525100  0.53333100  1
  C  959  1  0.50812500  0.64821500  0.51719200  1
  C  960  1  0.49663700  0.61302600  0.53092100  1
  C  961  1  0.51574400  0.58525100  0.55976000  1
  C  966  1  0.50133900  0.54857900  0.57583400  1
  C  967  1  0.50644300  0.52932800  0.61629800  1
  C  977  1  0.93578420  0.64596600  0.80520700  1
  C  978  1  0.95698320  0.62366300  0.79720400  1
  C  979  1  0.94046320  0.59408600  0.79774300  1
  C  980  1  0.90090120  0.58733400  0.80479300  1
  C  981  1  0.87989200  0.60895900  0.81447900  1
  C  982  1  0.89721000  0.63825300  0.81387800  1
  C  984  1  0.88159000  0.55805100  0.80541500  1
  C  985  1  0.89134700  0.54532000  0.78254300  1
  C  986  1  0.87215300  0.51685400  0.78357700  1
  C  987  1  0.84140900  0.50069600  0.80677500  1
  C  988  1  0.82994200  0.51440400  0.82825800  1
  C  989  1  0.84906300  0.54322400  0.82721100  1
  C  994  1  0.83468600  0.55927700  0.84784000  1
  C  995  1  0.83982700  0.59974200  0.82667000  1
  C  1005  1  0.26912400  0.78829100  0.52134200  1
  C  1006  1  0.29037400  0.78029900  0.55161700  1
  C  1007  1  0.27389900  0.78078200  0.58070000  1
  C  1008  1  0.23432900  0.78777400  0.58048400  1
  C  1009  1  0.21327700  0.79749300  0.54918400  1
  C  1010  1  0.23055000  0.79693900  0.52044800  1
  C  1012  1  0.21507400  0.78839900  0.60917100  1
  C  1013  1  0.22486600  0.76552300  0.64476400  1
  C  1014  1  0.20573400  0.76657700  0.67221800  1
  C  1015  1  0.17498700  0.78976700  0.66521200  1
  C  1016  1  0.16347500  0.81124300  0.63003500  1
  C  1017  1  0.18254500  0.81018700  0.60223900  1
  C  1022  1  0.16811100  0.83081400  0.56557600  1
  C  1023  1  0.17320400  0.80963900  0.54628500  1
  C  1034  1  0.46031000  0.55910500  0.20337600  1
  C  1035  1  0.48013800  0.52727900  0.21267300  1
  C  1036  1  0.51434000  0.52815900  0.19508400  1
  C  1037  1  0.52870600  0.56070100  0.16892000  1
  C  1038  1  0.50951900  0.59239900  0.15931100  1
  C  1039  1  0.47511300  0.59178100  0.17647400  1
  C  1040  1  0.46492100  0.49526500  0.23939400  1
  C  1041  1  0.45505500  0.62291700  0.16778400  1
  C  1043  1  0.42595100  0.55832200  0.22117300  1
  C  1044  1  0.41194100  0.52568300  0.24885600  1
  C  1045  1  0.37855600  0.52485400  0.26738700  1
  C  1046  1  0.35904800  0.55638700  0.25734000  1
  C  1047  1  0.37242700  0.58921500  0.23032900  1
  C  1048  1  0.40617300  0.59015900  0.21203100  1
  C  1049  1  0.43176400  0.49451200  0.25716400  1
  C  1051  1  0.42146700  0.62211800  0.18517400  1
  C  1056  1  0.52546300  0.62267000  0.13259100  1
  C  1057  1  0.35243000  0.61910400  0.22421500  1
  C  1058  1  0.36721500  0.49514300  0.29801500  1
  C  1059  1  0.53592500  0.49857500  0.20404800  1
  C  1064  1  0.79398800  0.18678100  0.20968000  1
  C  1065  1  0.81387500  0.19608100  0.23217600  1
  C  1066  1  0.84810000  0.17849400  0.24882400  1
  C  1067  1  0.86243400  0.15234200  0.24241600  1
  C  1068  1  0.84318300  0.14272700  0.22036300  1
  C  1069  1  0.80875100  0.15988100  0.20388200  1
  C  1070  1  0.79869500  0.22279000  0.23750600  1
  C  1071  1  0.78863100  0.15118800  0.18147000  1
  C  1073  1  0.75960700  0.20457600  0.19272500  1
  C  1074  1  0.74563300  0.23225300  0.19771000  1
  C  1075  1  0.71223200  0.25078300  0.18004900  1
  C  1076  1  0.69267400  0.24074800  0.15857900  1
  C  1077  1  0.70600600  0.21372500  0.15276100  1
  C  1078  1  0.73977100  0.19542800  0.17006400  1
  C  1079  1  0.76551000  0.24055000  0.22055400  1
  C  1081  1  0.75501700  0.16856800  0.16494200  1
  C  1086  1  0.85907000  0.11599000  0.21681200  1
  C  1087  1  0.68594800  0.20759900  0.12902800  1
  C  1088  1  0.70087600  0.28138100  0.17919700  1
  C  1089  1  0.86973300  0.18745000  0.26941600  1
  C  1094  1  0.12710900  0.19287300  0.57576100  1
  C  1095  1  0.14694300  0.21539500  0.54393200  1
  C  1096  1  0.18110400  0.23215900  0.54480700  1
  C  1097  1  0.19538900  0.22588300  0.57734000  1
  C  1098  1  0.17620200  0.20378700  0.60903600  1
  C  1099  1  0.14186900  0.18715400  0.60843000  1
  C  1100  1  0.13175900  0.22063400  0.51192900  1
  C  1101  1  0.12178300  0.16475000  0.63956700  1
  C  1103  1  0.09276200  0.17584900  0.57498400  1
  C  1104  1  0.07877500  0.18076800  0.54235400  1
  C  1105  1  0.04539000  0.16305200  0.54155400  1
  C  1106  1  0.02584900  0.14162100  0.57307300  1
  C  1107  1  0.03920700  0.13585700  0.60588500  1
  C  1108  1  0.07295500  0.15320400  0.60682000  1
  C  1109  1  0.09861700  0.20359600  0.51118500  1
  C  1111  1  0.08820300  0.14815400  0.63877100  1
  C  1116  1  0.19198500  0.20039900  0.63928800  1
  C  1117  1  0.01918000  0.11215100  0.63578100  1
  C  1118  1  0.03398900  0.16221800  0.51182200  1
  C  1119  1  0.20266700  0.25283200  0.51521700  1
  C  1124  1  0.46036700  0.40020500  0.78942600  1
  C  1125  1  0.48025700  0.43200900  0.78009800  1
  C  1126  1  0.51446200  0.43109600  0.79769600  1
  C  1127  1  0.52879100  0.39854300  0.82387300  1
  C  1128  1  0.50956200  0.36686500  0.83348200  1
  C  1129  1  0.47513600  0.36751800  0.81633700  1
  C  1130  1  0.46508600  0.46403200  0.75335800  1
  C  1131  1  0.45501800  0.33640500  0.82506300  1
  C  1133  1  0.42597700  0.40102300  0.77165700  1
  C  1134  1  0.41201400  0.43367200  0.74395100  1
  C  1135  1  0.37860100  0.43453500  0.72544100  1
  C  1136  1  0.35900200  0.40303300  0.73556000  1
  C  1137  1  0.37230700  0.37019300  0.76262000  1
  C  1138  1  0.40611500  0.36921200  0.78085600  1
  C  1139  1  0.43190400  0.46481900  0.73560600  1
  C  1141  1  0.42139200  0.33723800  0.80770900  1
  C  1146  1  0.52542600  0.33659000  0.86026500  1
  C  1147  1  0.35218600  0.34033700  0.76880000  1
  C  1148  1  0.36730900  0.46423600  0.69477700  1
  C  1149  1  0.53608700  0.46065200  0.78873700  1
  C  1154  1  0.79401400  0.77245600  0.78306500  1
  C  1155  1  0.81389000  0.76314100  0.76057200  1
  C  1156  1  0.84812800  0.78070100  0.74392900  1
  C  1157  1  0.86248000  0.80684900  0.75033400  1
  C  1158  1  0.84324500  0.81647200  0.77238900  1
  C  1159  1  0.80880200  0.79934300  0.78886800  1
  C  1160  1  0.79868900  0.73643900  0.75524300  1
  C  1161  1  0.78869600  0.80804900  0.81128000  1
  C  1163  1  0.75961300  0.75469500  0.80000800  1
  C  1164  1  0.74561100  0.72703300  0.79501400  1
  C  1165  1  0.71218100  0.70854300  0.81264000  1
  C  1166  1  0.69262600  0.71860900  0.83408900  1
  C  1167  1  0.70599500  0.74559500  0.83994800  1
  C  1168  1  0.73978500  0.76385400  0.82266500  1
  C  1169  1  0.76548700  0.71871000  0.77218700  1
  C  1171  1  0.75507000  0.79069100  0.82780300  1
  C  1176  1  0.85915500  0.84320600  0.77593200  1
  C  1177  1  0.68593700  0.75172500  0.86368600  1
  C  1178  1  0.70081900  0.67793600  0.81351900  1
  C  1179  1  0.86974200  0.77174400  0.72331700  1
  C  1184  1  0.12706400  0.76613500  0.41680100  1
  C  1185  1  0.14693700  0.74358800  0.44859300  1
  C  1186  1  0.18113600  0.72691200  0.44764100  1
  C  1187  1  0.19546600  0.73335600  0.41506400  1
  C  1188  1  0.17623600  0.75546400  0.38340100  1
  C  1189  1  0.14182100  0.77195900  0.38409100  1
  C  1190  1  0.13177100  0.73824200  0.48064000  1
  C  1191  1  0.12171800  0.79442400  0.35299100  1
  C  1193  1  0.09271700  0.78312600  0.41765300  1
  C  1194  1  0.07876300  0.77812600  0.45032800  1
  C  1195  1  0.04540200  0.79582700  0.45121100  1
  C  1196  1  0.02586100  0.81735300  0.41971100  1
  C  1197  1  0.03916400  0.82318000  0.38686100  1
  C  1198  1  0.07289500  0.80584100  0.38585200  1
  C  1199  1  0.09861900  0.75523100  0.48146100  1
  C  1201  1  0.08812900  0.81097900  0.35385800  1
  C  1206  1  0.19214600  0.75907900  0.35308700  1
  C  1207  1  0.01910900  0.84694500  0.35700900  1
  C  1208  1  0.03409100  0.79666900  0.48097200  1
  C  1209  1  0.20277300  0.70629300  0.47718300  1
  C  1214  1  0.65320600  0.71861600  0.91956900  1
  C  1215  1  0.64232400  0.74328000  0.92942700  1
  C  1216  1  0.61682100  0.73402900  0.95773500  1
  C  1217  1  0.60180200  0.69924500  0.97657300  1
  C  1218  1  0.61148600  0.67517500  0.96494000  1
  C  1219  1  0.63762200  0.68473800  0.93743500  1
  C  1221  1  0.57576800  0.68698000  0.00579200  1
  C  1222  1  0.57945300  0.69663800  0.03196800  1
  C  1223  1  0.55895500  0.67924000  0.06363200  1
  C  1224  1  0.53413900  0.65142500  0.07016500  1
  C  1225  1  0.52920000  0.64226600  0.04402800  1
  C  1226  1  0.55013500  0.65917600  0.01248800  1
  C  1231  1  0.55028800  0.64427400  0.98865500  1
  C  1232  1  0.59197900  0.64050400  0.97993200  1
  C  1242  1  0.98661740  0.90293200  0.33413100  1
  C  1243  1  0.97566440  0.91269200  0.29965200  1
  C  1244  1  0.95020940  0.94102900  0.28054500  1
  C  1245  1  0.93526440  0.95996200  0.29642100  1
  C  1246  1  0.94492540  0.94836200  0.33212200  1
  C  1247  1  0.97102540  0.92083300  0.35010700  1
  C  1249  1  0.90926440  0.98920300  0.27939700  1
  C  1250  1  0.91302640  0.01536100  0.24357700  1
  C  1251  1  0.89250500  0.04701400  0.22924300  1
  C  1252  1  0.86751900  0.05354300  0.25041700  1
  C  1253  1  0.86265600  0.02748400  0.28576200  1
  C  1254  1  0.88366500  0.99597200  0.30047800  1
  C  1259  1  0.88379000  0.97221800  0.33922800  1
  C  1260  1  0.92547240  0.96345700  0.35173000  1
  C  1270  1  0.31940000  0.31755200  0.73569700  1
  C  1271  1  0.30865300  0.28296900  0.76029300  1
  C  1272  1  0.28322600  0.26390900  0.75098300  1
  C  1273  1  0.26813400  0.27992800  0.71622000  1
  C  1274  1  0.27766200  0.31569500  0.69224100  1
  C  1275  1  0.30374100  0.33363300  0.70184600  1
  C  1277  1  0.24223900  0.26296300  0.70386400  1
  C  1278  1  0.24624200  0.22721700  0.71328600  1
  C  1279  1  0.22606000  0.21303800  0.69563900  1
  C  1280  1  0.20123900  0.23432500  0.66783100  1
  C  1281  1  0.19593800  0.26950400  0.65894000  1
  C  1282  1  0.21655200  0.28405000  0.67610400  1
  C  1287  1  0.21643800  0.32275300  0.66141600  1
  C  1288  1  0.25805200  0.33543700  0.65762500  1
  C  1297  1  0.65341900  0.24070800  0.07306200  1
  C  1298  1  0.64240300  0.21599600  0.06331400  1
  C  1299  1  0.61687200  0.22523300  0.03503200  1
  C  1300  1  0.60190200  0.26003400  0.01615800  1
  C  1301  1  0.61162800  0.28412600  0.02775300  1
  C  1302  1  0.63781300  0.27458000  0.05521600  1
  C  1304  1  0.57582200  0.27226200  0.98697600  1
  C  1305  1  0.57952400  0.26265100  0.96077500  1
  C  1306  1  0.55897300  0.28002500  0.92914500  1
  C  1307  1  0.53400600  0.30771800  0.92269300  1
  C  1308  1  0.52918500  0.31693500  0.94880500  1
  C  1309  1  0.55023100  0.30009200  0.98029100  1
  C  1314  1  0.55043300  0.31504100  0.00408300  1
  C  1315  1  0.59215000  0.31881000  0.01274000  1
  C  1325  1  0.98660240  0.05621900  0.65868700  1
  C  1326  1  0.97573240  0.04642700  0.69319500  1
  C  1327  1  0.95021440  0.01814800  0.71228700  1
  C  1328  1  0.93516240  0.99927700  0.69638900  1
  C  1329  1  0.94482640  0.01085100  0.66069500  1
  C  1330  1  0.97098840  0.03831900  0.64272200  1
  C  1332  1  0.90913440  0.97006100  0.71339000  1
  C  1333  1  0.91286440  0.94391600  0.74923000  1
  C  1334  1  0.89239700  0.91223200  0.76354200  1
  C  1335  1  0.86757300  0.90565100  0.74229900  1
  C  1336  1  0.86257600  0.93176400  0.70700200  1
  C  1337  1  0.88348300  0.96332200  0.69232700  1
  C  1342  1  0.88359900  0.98712100  0.65358400  1
  C  1343  1  0.92528240  0.99583400  0.64105900  1
  C  1353  1  0.31993400  0.64200000  0.25731900  1
  C  1354  1  0.30894400  0.67646600  0.23260100  1
  C  1355  1  0.28346400  0.69555200  0.24183400  1
  C  1356  1  0.26852500  0.67966900  0.27664400  1
  C  1357  1  0.27823700  0.64398000  0.30075200  1
  C  1358  1  0.30436000  0.62601700  0.29120300  1
  C  1360  1  0.24246100  0.69665400  0.28885300  1
  C  1361  1  0.24613000  0.73248900  0.27917700  1
  C  1362  1  0.22551600  0.74679700  0.29647000  1
  C  1363  1  0.20052400  0.72559300  0.32415300  1
  C  1364  1  0.19575600  0.69023300  0.33345100  1
  C  1365  1  0.21686300  0.67553800  0.31668800  1
  C  1370  1  0.21707600  0.63678800  0.33169800  1
  C  1371  1  0.25879000  0.62435700  0.33545600  1
  C  1381  1  0.31833700  0.45479900  0.33001600  1
  C  1382  1  0.33957600  0.42451100  0.35229300  1
  C  1383  1  0.32309900  0.39544600  0.38187300  1
  C  1384  1  0.28353900  0.39568900  0.38866500  1
  C  1385  1  0.26249000  0.42698500  0.36707000  1
  C  1386  1  0.27976300  0.45570600  0.33776700  1
  C  1388  1  0.26426400  0.36699400  0.41795000  1
  C  1389  1  0.27406400  0.33140500  0.43065100  1
  C  1390  1  0.25488600  0.30394000  0.45910800  1
  C  1391  1  0.22412400  0.31092800  0.47528700  1
  C  1392  1  0.21262700  0.34610800  0.46161700  1
  C  1393  1  0.23172800  0.37391500  0.43280500  1
  C  1398  1  0.21731500  0.41058400  0.41679000  1
  C  1399  1  0.22242500  0.42990700  0.37632400  1
  C  1409  1  0.65191100  0.31337100  0.18747000  1
  C  1410  1  0.67309300  0.33568500  0.19546700  1
  C  1411  1  0.65654700  0.36523500  0.19496800  1
  C  1412  1  0.61697700  0.37196200  0.18795100  1
  C  1413  1  0.59599900  0.35036200  0.17821000  1
  C  1414  1  0.61334000  0.32108800  0.17878300  1
  C  1416  1  0.59764900  0.40123900  0.18733100  1
  C  1417  1  0.60736100  0.41394500  0.21023200  1
  C  1418  1  0.58816300  0.44242100  0.20918300  1
  C  1419  1  0.55742500  0.45857900  0.18597700  1
  C  1420  1  0.54599000  0.44488100  0.16447700  1
  C  1421  1  0.56512500  0.41606100  0.16552700  1
  C  1426  1  0.55077600  0.40002800  0.14487400  1
  C  1427  1  0.55593200  0.35956500  0.16603000  1
  C  1437  1  0.98512940  0.17090100  0.47138900  1
  C  1438  1  0.00637300  0.17895100  0.44109600  1
  C  1439  1  0.98990140  0.17846400  0.41201500  1
  C  1440  1  0.95034240  0.17143100  0.41225400  1
  C  1441  1  0.92927740  0.16173700  0.44354000  1
  C  1442  1  0.94654940  0.16227700  0.47228100  1
  C  1444  1  0.93109140  0.17081200  0.38356700  1
  C  1445  1  0.94090240  0.19367800  0.34797800  1
  C  1446  1  0.92176440  0.19263900  0.32052300  1
  C  1447  1  0.89103200  0.16944100  0.32752400  1
  C  1448  1  0.87951100  0.14796200  0.36270000  1
  C  1449  1  0.89857500  0.14901100  0.39049800  1
  C  1454  1  0.88413600  0.12839100  0.42715800  1
  C  1455  1  0.88921200  0.14957300  0.44644400  1
  C  1465  1  0.31843500  0.50453000  0.66263300  1
  C  1466  1  0.33968500  0.53478200  0.64028900  1
  C  1467  1  0.32321200  0.56381200  0.61067000  1
  C  1468  1  0.28364500  0.56356400  0.60390200  1
  C  1469  1  0.26260300  0.53227300  0.62553100  1
  C  1470  1  0.27987100  0.50359200  0.65487500  1
  C  1472  1  0.26437800  0.59221900  0.57457500  1
  C  1473  1  0.27415200  0.62782000  0.56182700  1
  C  1474  1  0.25498600  0.65525100  0.53333100  1
  C  1475  1  0.22422100  0.64821500  0.51719200  1
  C  1476  1  0.21273300  0.61302600  0.53092100  1
  C  1477  1  0.23184000  0.58525100  0.55976000  1
  C  1482  1  0.21743500  0.54857900  0.57583400  1
  C  1483  1  0.22253900  0.52932800  0.61629800  1
  C  1493  1  0.65188000  0.64596600  0.80520700  1
  C  1494  1  0.67307900  0.62366300  0.79720400  1
  C  1495  1  0.65655900  0.59408600  0.79774300  1
  C  1496  1  0.61699700  0.58733400  0.80479300  1
  C  1497  1  0.59598800  0.60895900  0.81447900  1
  C  1498  1  0.61330600  0.63825300  0.81387800  1
  C  1500  1  0.59768600  0.55805100  0.80541500  1
  C  1501  1  0.60744300  0.54532000  0.78254300  1
  C  1502  1  0.58824900  0.51685400  0.78357700  1
  C  1503  1  0.55750500  0.50069600  0.80677500  1
  C  1504  1  0.54603800  0.51440400  0.82825800  1
  C  1505  1  0.56515900  0.54322400  0.82721100  1
  C  1510  1  0.55078200  0.55927700  0.84784000  1
  C  1511  1  0.55592300  0.59974200  0.82667000  1
  C  1521  1  0.98522040  0.78829100  0.52134200  1
  C  1522  1  0.00647000  0.78029900  0.55161700  1
  C  1523  1  0.98999540  0.78078200  0.58070000  1
  C  1524  1  0.95042540  0.78777400  0.58048400  1
  C  1525  1  0.92937340  0.79749300  0.54918400  1
  C  1526  1  0.94664640  0.79693900  0.52044800  1
  C  1528  1  0.93117040  0.78839900  0.60917100  1
  C  1529  1  0.94096240  0.76552300  0.64476400  1
  C  1530  1  0.92183040  0.76657700  0.67221800  1
  C  1531  1  0.89108300  0.78976700  0.66521200  1
  C  1532  1  0.87957100  0.81124300  0.63003500  1
  C  1533  1  0.89864100  0.81018700  0.60223900  1
  C  1538  1  0.88420700  0.83081400  0.56557600  1
  C  1539  1  0.88930000  0.80963900  0.54628500  1
  N  1  1  0.83839600  0.23025100  0.77705200  1
  N  205  1  0.17185000  0.76017900  0.96515100  1
  N  208  1  0.08714800  0.62917700  0.10116000  1
  N  209  1  0.24242900  0.72514000  0.89240100  1
  N  233  1  0.50521800  0.94840200  0.24700000  1
  N  236  1  0.42061200  0.08456400  0.24168500  1
  N  237  1  0.57576300  0.87572300  0.35483500  1
  N  263  1  0.75479600  0.22583600  0.64521900  1
  N  264  1  0.90854000  0.33820600  0.74225400  1
  N  288  1  0.17182800  0.19907400  0.02766100  1
  N  291  1  0.08714500  0.33009700  0.89168900  1
  N  292  1  0.24259900  0.23419500  0.10024500  1
  N  316  1  0.50526700  0.01078500  0.74584300  1
  N  319  1  0.42063200  0.87463000  0.75108000  1
  N  320  1  0.57586800  0.08333800  0.63802000  1
  N  344  1  0.83843200  0.72908200  0.21565900  1
  N  347  1  0.75348800  0.73433000  0.34639400  1
  N  348  1  0.90906500  0.62129200  0.25080600  1
  N  372  1  0.91483600  0.36793800  0.40584200  1
  N  375  1  0.77321200  0.28612800  0.50291100  1
  N  376  1  0.90106900  0.48286900  0.30241800  1
  N  400  1  0.24821500  0.38922100  0.19854000  1
  N  403  1  0.10646200  0.48619700  0.18311900  1
  N  404  1  0.23469500  0.28579600  0.18698800  1
  N  428  1  0.58164800  0.18201000  0.38451200  1
  N  431  1  0.44011400  0.16659000  0.30274500  1
  N  432  1  0.56788400  0.17032800  0.49949400  1
  N  456  1  0.91493900  0.59130100  0.58667100  1
  N  459  1  0.77325100  0.67298100  0.48958500  1
  N  460  1  0.90115000  0.47649800  0.69028200  1
  N  484  1  0.24825700  0.57008700  0.79421700  1
  N  487  1  0.10656400  0.47306700  0.80963800  1
  N  488  1  0.23465500  0.67355000  0.80567800  1
  N  512  1  0.58172800  0.77722400  0.60821700  1
  N  515  1  0.44016500  0.79262300  0.68999400  1
  N  516  1  0.56794400  0.78880400  0.49324900  1
  N  517  1  0.55449200  0.23025100  0.77705200  1
  N  721  1  0.88794600  0.76017900  0.96515100  1
  N  724  1  0.80324400  0.62917700  0.10116000  1
  N  725  1  0.95852520  0.72514000  0.89240100  1
  N  749  1  0.22131400  0.94840200  0.24700000  1
  N  752  1  0.13670800  0.08456400  0.24168500  1
  N  753  1  0.29185900  0.87572300  0.35483500  1
  N  779  1  0.47089200  0.22583600  0.64521900  1
  N  780  1  0.62463600  0.33820600  0.74225400  1
  N  804  1  0.88792400  0.19907400  0.02766100  1
  N  807  1  0.80324100  0.33009700  0.89168900  1
  N  808  1  0.95869520  0.23419500  0.10024500  1
  N  832  1  0.22136300  0.01078500  0.74584300  1
  N  835  1  0.13672800  0.87463000  0.75108000  1
  N  836  1  0.29196400  0.08333800  0.63802000  1
  N  860  1  0.55452800  0.72908200  0.21565900  1
  N  863  1  0.46958400  0.73433000  0.34639400  1
  N  864  1  0.62516100  0.62129200  0.25080600  1
  N  888  1  0.63093200  0.36793800  0.40584200  1
  N  891  1  0.48930800  0.28612800  0.50291100  1
  N  892  1  0.61716500  0.48286900  0.30241800  1
  N  916  1  0.96431120  0.38922100  0.19854000  1
  N  919  1  0.82255800  0.48619700  0.18311900  1
  N  920  1  0.95079120  0.28579600  0.18698800  1
  N  944  1  0.29774400  0.18201000  0.38451200  1
  N  947  1  0.15621000  0.16659000  0.30274500  1
  N  948  1  0.28398000  0.17032800  0.49949400  1
  N  972  1  0.63103500  0.59130100  0.58667100  1
  N  975  1  0.48934700  0.67298100  0.48958500  1
  N  976  1  0.61724600  0.47649800  0.69028200  1
  N  1000  1  0.96435320  0.57008700  0.79421700  1
  N  1003  1  0.82266000  0.47306700  0.80963800  1
  N  1004  1  0.95075120  0.67355000  0.80567800  1
  N  1028  1  0.29782400  0.77722400  0.60821700  1
  N  1031  1  0.15626100  0.79262300  0.68999400  1
  N  1032  1  0.28404000  0.78880400  0.49324900  1
  N  1033  1  0.27058800  0.23025100  0.77705200  1
  N  1237  1  0.60404200  0.76017900  0.96515100  1
  N  1240  1  0.51934000  0.62917700  0.10116000  1
  N  1241  1  0.67462100  0.72514000  0.89240100  1
  N  1265  1  0.93741040  0.94840200  0.24700000  1
  N  1268  1  0.85280400  0.08456400  0.24168500  1
  N  1269  1  0.00795500  0.87572300  0.35483500  1
  N  1295  1  0.18698800  0.22583600  0.64521900  1
  N  1296  1  0.34073200  0.33820600  0.74225400  1
  N  1320  1  0.60402000  0.19907400  0.02766100  1
  N  1323  1  0.51933700  0.33009700  0.89168900  1
  N  1324  1  0.67479100  0.23419500  0.10024500  1
  N  1348  1  0.93745940  0.01078500  0.74584300  1
  N  1351  1  0.85282400  0.87463000  0.75108000  1
  N  1352  1  0.00806000  0.08333800  0.63802000  1
  N  1376  1  0.27062400  0.72908200  0.21565900  1
  N  1379  1  0.18568000  0.73433000  0.34639400  1
  N  1380  1  0.34125700  0.62129200  0.25080600  1
  N  1404  1  0.34702800  0.36793800  0.40584200  1
  N  1407  1  0.20540400  0.28612800  0.50291100  1
  N  1408  1  0.33326100  0.48286900  0.30241800  1
  N  1432  1  0.68040700  0.38922100  0.19854000  1
  N  1435  1  0.53865400  0.48619700  0.18311900  1
  N  1436  1  0.66688700  0.28579600  0.18698800  1
  N  1460  1  0.01384000  0.18201000  0.38451200  1
  N  1463  1  0.87230600  0.16659000  0.30274500  1
  N  1464  1  0.00007600  0.17032800  0.49949400  1
  N  1488  1  0.34713100  0.59130100  0.58667100  1
  N  1491  1  0.20544300  0.67298100  0.48958500  1
  N  1492  1  0.33333333  0.47649800  0.69028200  1
  N  1516  1  0.68044900  0.57008700  0.79421700  1
  N  1519  1  0.53875600  0.47306700  0.80963800  1
  N  1520  1  0.66684700  0.67355000  0.80567800  1
  N  1544  1  0.01392000  0.77722400  0.60821700  1
  N  1547  1  0.87235700  0.79262300  0.68999400  1
  N  1548  1  0.00013600  0.78880400  0.49324900  1
  O  206  1  0.19887800  0.77360400  0.97305900  1
  O  207  1  0.15414000  0.78424800  0.93964800  1
  O  234  1  0.53224000  0.95622300  0.22567600  1
  O  235  1  0.48744900  0.92290200  0.24849200  1
  O  261  1  0.86551300  0.20900100  0.79035800  1
  O  262  1  0.82068100  0.23150200  0.80121600  1
  O  289  1  0.19881000  0.18559400  0.01976500  1
  O  290  1  0.15411500  0.17504600  0.05319300  1
  O  317  1  0.53230300  0.00289100  0.76716300  1
  O  318  1  0.48758200  0.03632000  0.74437100  1
  O  345  1  0.86542900  0.75043400  0.20214700  1
  O  346  1  0.82067300  0.72756800  0.19165800  1
  O  373  1  0.93235100  0.35348200  0.39151800  1
  O  374  1  0.93857900  0.37854300  0.41981000  1
  O  401  1  0.26571400  0.37490200  0.22732600  1
  O  402  1  0.27196600  0.40323700  0.17397800  1
  O  429  1  0.59916500  0.21078900  0.37007100  1
  O  430  1  0.60539100  0.15743300  0.39511300  1
  O  457  1  0.93244800  0.60580300  0.60094800  1
  O  458  1  0.93868800  0.58065700  0.57274000  1
  O  485  1  0.26576300  0.58437900  0.76543500  1
  O  486  1  0.27200300  0.55610800  0.81878700  1
  O  513  1  0.59925000  0.74844800  0.62265000  1
  O  514  1  0.60546500  0.80180100  0.59762800  1
  O  722  1  0.91497420  0.77360400  0.97305900  1
  O  723  1  0.87023600  0.78424800  0.93964800  1
  O  750  1  0.24833600  0.95622300  0.22567600  1
  O  751  1  0.20354500  0.92290200  0.24849200  1
  O  777  1  0.58160900  0.20900100  0.79035800  1
  O  778  1  0.53677700  0.23150200  0.80121600  1
  O  805  1  0.91490620  0.18559400  0.01976500  1
  O  806  1  0.87021100  0.17504600  0.05319300  1
  O  833  1  0.24839900  0.00289100  0.76716300  1
  O  834  1  0.20367800  0.03632000  0.74437100  1
  O  861  1  0.58152500  0.75043400  0.20214700  1
  O  862  1  0.53676900  0.72756800  0.19165800  1
  O  889  1  0.64844700  0.35348200  0.39151800  1
  O  890  1  0.65467500  0.37854300  0.41981000  1
  O  917  1  0.98181020  0.37490200  0.22732600  1
  O  918  1  0.98806220  0.40323700  0.17397800  1
  O  945  1  0.31526100  0.21078900  0.37007100  1
  O  946  1  0.32148700  0.15743300  0.39511300  1
  O  973  1  0.64854400  0.60580300  0.60094800  1
  O  974  1  0.65478400  0.58065700  0.57274000  1
  O  1001  1  0.98185920  0.58437900  0.76543500  1
  O  1002  1  0.98809920  0.55610800  0.81878700  1
  O  1029  1  0.31534600  0.74844800  0.62265000  1
  O  1030  1  0.32156100  0.80180100  0.59762800  1
  O  1238  1  0.63107000  0.77360400  0.97305900  1
  O  1239  1  0.58633200  0.78424800  0.93964800  1
  O  1266  1  0.96443240  0.95622300  0.22567600  1
  O  1267  1  0.91964140  0.92290200  0.24849200  1
  O  1293  1  0.29770500  0.20900100  0.79035800  1
  O  1294  1  0.25287300  0.23150200  0.80121600  1
  O  1321  1  0.63100200  0.18559400  0.01976500  1
  O  1322  1  0.58630700  0.17504600  0.05319300  1
  O  1349  1  0.96449540  0.00289100  0.76716300  1
  O  1350  1  0.91977440  0.03632000  0.74437100  1
  O  1377  1  0.29762100  0.75043400  0.20214700  1
  O  1378  1  0.25286500  0.72756800  0.19165800  1
  O  1405  1  0.36454300  0.35348200  0.39151800  1
  O  1406  1  0.37077100  0.37854300  0.41981000  1
  O  1433  1  0.69790600  0.37490200  0.22732600  1
  O  1434  1  0.70415800  0.40323700  0.17397800  1
  O  1461  1  0.03135700  0.21078900  0.37007100  1
  O  1462  1  0.03758300  0.15743300  0.39511300  1
  O  1489  1  0.36464000  0.60580300  0.60094800  1
  O  1490  1  0.37088000  0.58065700  0.57274000  1
  O  1517  1  0.69795500  0.58437900  0.76543500  1
  O  1518  1  0.70419500  0.55610800  0.81878700  1
  O  1545  1  0.03144200  0.74844800  0.62265000  1
  O  1546  1  0.03765700  0.80180100  0.59762800  1
