# generated using pymatgen
data_H32C49(N2O)4
_symmetry_space_group_name_H-M   'P 1'
_cell_length_a   34.97035000
_cell_length_b   34.97040000
_cell_length_c   42.54150000
_cell_angle_alpha   90.00000000
_cell_angle_beta   90.00000000
_cell_angle_gamma   120.00014189
_symmetry_Int_Tables_number   1
_chemical_formula_structural   H32C49(N2O)4
_chemical_formula_sum   'H288 C441 N72 O36'
_cell_volume   45055.04092763
_cell_formula_units_Z   9
loop_
 _symmetry_equiv_pos_site_id
 _symmetry_equiv_pos_as_xyz
  1  'x, y, z'
loop_
 _atom_site_type_symbol
 _atom_site_label
 _atom_site_symmetry_multiplicity
 _atom_site_fract_x
 _atom_site_fract_y
 _atom_site_fract_z
 _atom_site_occupancy
  H  26  1  0.65143700  0.63165500  0.06758000  1
  H  27  1  0.59227700  0.60413800  0.03140400  1
  H  28  1  0.63788700  0.50492100  0.07381900  1
  H  29  1  0.57902200  0.47758300  0.03714200  1
  H  30  1  0.49382200  0.43793000  0.03174500  1
  H  31  1  0.43486700  0.41071600  0.06808100  1
  H  32  1  0.44851300  0.53752400  0.07388700  1
  H  33  1  0.50716400  0.56455000  0.03704800  1
  H  34  1  0.48040900  0.54001000  0.97959400  1
  H  35  1  0.48949000  0.59323300  0.94134500  1
  H  36  1  0.62438600  0.63176000  0.93288600  1
  H  37  1  0.61555400  0.57968200  0.97160400  1
  H  38  1  0.60542400  0.50167400  0.97956700  1
  H  39  1  0.47022100  0.46188700  0.97189900  1
  H  40  1  0.46123400  0.40967700  0.93324600  1
  H  41  1  0.59619400  0.44833000  0.94138500  1
  H  75  1  0.04544500  0.41279900  0.40134600  1
  H  76  1  0.07701600  0.47179600  0.36502900  1
  H  77  1  0.93220100  0.42626400  0.40742500  1
  H  78  1  0.96365400  0.48494800  0.37061200  1
  H  79  1  0.00898000  0.57003000  0.36486400  1
  H  80  1  0.04063500  0.62922900  0.40099600  1
  H  81  1  0.15399800  0.61596300  0.40702600  1
  H  82  1  0.12244900  0.55705700  0.37038400  1
  H  83  1  0.12448400  0.58335500  0.31279300  1
  H  84  1  0.16854900  0.57418900  0.27453600  1
  H  85  1  0.07240400  0.43915400  0.26653000  1
  H  86  1  0.02925300  0.44808800  0.30526600  1
  H  87  1  0.96126000  0.45804400  0.31312900  1
  H  88  1  0.05639900  0.59325900  0.30496000  1
  H  89  1  0.01288700  0.60186100  0.26633900  1
  H  90  1  0.91686100  0.46688200  0.27497100  1
  H  124  1  0.43244200  0.01875800  0.73451500  1
  H  125  1  0.45981300  0.98703100  0.69829400  1
  H  126  1  0.55923100  0.13190000  0.74055200  1
  H  127  1  0.58640800  0.10028900  0.70382500  1
  H  128  1  0.62610600  0.05481000  0.69829700  1
  H  129  1  0.65350900  0.02315800  0.73456000  1
  H  130  1  0.52671600  0.91004200  0.74072100  1
  H  131  1  0.49950900  0.94157600  0.70395500  1
  H  132  1  0.52407500  0.93926500  0.64640800  1
  H  133  1  0.47082900  0.89491100  0.60824800  1
  H  134  1  0.43173400  0.99085500  0.59982600  1
  H  135  1  0.48386900  0.03432600  0.63845400  1
  H  136  1  0.56185000  0.10242100  0.64625100  1
  H  137  1  0.60201800  0.00730800  0.63853100  1
  H  138  1  0.65409500  0.05060500  0.59982600  1
  H  139  1  0.61505300  0.14661300  0.60801300  1
  H  160  1  0.45718000  0.26751300  0.91889300  1
  H  161  1  0.48631100  0.30636800  0.80910400  1
  H  162  1  0.49380100  0.36128700  0.84606700  1
  H  163  1  0.48096700  0.21159100  0.74724400  1
  H  164  1  0.47681900  0.13165400  0.82293800  1
  H  165  1  0.46602700  0.17836500  0.85812000  1
  H  167  1  0.50828600  0.15957400  0.74285800  1
  H  169  1  0.46222700  0.34224100  0.92516500  1
  H  182  1  0.87478500  0.60609900  0.25233200  1
  H  183  1  0.88448900  0.57678700  0.14257800  1
  H  184  1  0.93153100  0.56880900  0.17962200  1
  H  185  1  0.79572800  0.58295100  0.08056500  1
  H  186  1  0.71996200  0.58755400  0.15610600  1
  H  187  1  0.77723500  0.59799900  0.19139100  1
  H  189  1  0.71651100  0.55593400  0.07605200  1
  H  191  1  0.94420800  0.60055800  0.25866700  1
  H  204  1  0.79621300  0.18879700  0.58568200  1
  H  205  1  0.75755700  0.17917900  0.47586000  1
  H  206  1  0.70251500  0.13184000  0.51278800  1
  H  207  1  0.85253700  0.26841000  0.41404900  1
  H  208  1  0.93259300  0.34404500  0.48975400  1
  H  209  1  0.88571500  0.28662400  0.52493200  1
  H  211  1  0.90468200  0.34764400  0.40963500  1
  H  213  1  0.72140600  0.11922100  0.59192000  1
  H  226  1  0.62847000  0.77397800  0.91882900  1
  H  227  1  0.59932200  0.73535200  0.80900800  1
  H  228  1  0.59173200  0.68032900  0.84590800  1
  H  229  1  0.60494900  0.83032800  0.74724700  1
  H  230  1  0.60920700  0.91023400  0.82298900  1
  H  231  1  0.61985100  0.86339500  0.85814400  1
  H  233  1  0.57771900  0.88239900  0.74290300  1
  H  235  1  0.62335500  0.69923700  0.92500200  1
  H  248  1  0.21056500  0.43530900  0.25220000  1
  H  249  1  0.20092000  0.46432900  0.14237600  1
  H  250  1  0.15340100  0.47176800  0.17928300  1
  H  251  1  0.29053700  0.45912700  0.08062400  1
  H  252  1  0.36628400  0.45513900  0.15640900  1
  H  253  1  0.30869500  0.44426300  0.19153000  1
  H  255  1  0.36987700  0.48651800  0.07628500  1
  H  257  1  0.14085700  0.44027400  0.25841300  1
  H  270  1  0.28949300  0.85273200  0.58567700  1
  H  271  1  0.32853300  0.86259600  0.47591800  1
  H  272  1  0.38351800  0.90964600  0.51297600  1
  H  273  1  0.23367700  0.77377600  0.41388000  1
  H  274  1  0.15332400  0.69793300  0.48940200  1
  H  275  1  0.20010800  0.75520400  0.52469900  1
  H  277  1  0.18152000  0.69453600  0.40935000  1
  H  279  1  0.36442200  0.92219900  0.59204000  1
  H  305  1  0.65143700  0.63165500  0.83251500  1
  H  306  1  0.59227700  0.60413800  0.79633900  1
  H  307  1  0.63788700  0.50492100  0.83875400  1
  H  308  1  0.57902200  0.47758300  0.80207700  1
  H  309  1  0.49382200  0.43793000  0.79668000  1
  H  310  1  0.43486700  0.41071600  0.83301600  1
  H  311  1  0.44851300  0.53752400  0.83882200  1
  H  312  1  0.50716400  0.56455000  0.80198300  1
  H  313  1  0.48040900  0.54001000  0.74452900  1
  H  314  1  0.48949000  0.59323300  0.70628000  1
  H  315  1  0.62438600  0.63176000  0.69782100  1
  H  316  1  0.61555400  0.57968200  0.73653900  1
  H  317  1  0.60542400  0.50167400  0.74450200  1
  H  318  1  0.47022100  0.46188700  0.73683400  1
  H  319  1  0.46123400  0.40967700  0.69818100  1
  H  320  1  0.59619400  0.44833000  0.70632000  1
  H  354  1  0.04544500  0.41279900  0.16628100  1
  H  355  1  0.07701600  0.47179600  0.12996400  1
  H  356  1  0.93220100  0.42626400  0.17236000  1
  H  357  1  0.96365400  0.48494800  0.13554700  1
  H  358  1  0.00898000  0.57003000  0.12979900  1
  H  359  1  0.04063500  0.62922900  0.16593100  1
  H  360  1  0.15399800  0.61596300  0.17196100  1
  H  361  1  0.12244900  0.55705700  0.13531900  1
  H  362  1  0.12448400  0.58335500  0.07772800  1
  H  363  1  0.16854900  0.57418900  0.03947100  1
  H  364  1  0.07240400  0.43915400  0.03146500  1
  H  365  1  0.02925300  0.44808800  0.07020100  1
  H  366  1  0.96126000  0.45804400  0.07806400  1
  H  367  1  0.05639900  0.59325900  0.06989500  1
  H  368  1  0.01288700  0.60186100  0.03127400  1
  H  369  1  0.91686100  0.46688200  0.03990600  1
  H  403  1  0.43244200  0.01875800  0.49945000  1
  H  404  1  0.45981300  0.98703100  0.46322900  1
  H  405  1  0.55923100  0.13190000  0.50548700  1
  H  406  1  0.58640800  0.10028900  0.46876000  1
  H  407  1  0.62610600  0.05481000  0.46323200  1
  H  408  1  0.65350900  0.02315800  0.49949500  1
  H  409  1  0.52671600  0.91004200  0.50565600  1
  H  410  1  0.49950900  0.94157600  0.46889000  1
  H  411  1  0.52407500  0.93926500  0.41134300  1
  H  412  1  0.47082900  0.89491100  0.37318300  1
  H  413  1  0.43173400  0.99085500  0.36476100  1
  H  414  1  0.48386900  0.03432600  0.40338900  1
  H  415  1  0.56185000  0.10242100  0.41118600  1
  H  416  1  0.60201800  0.00730800  0.40346600  1
  H  417  1  0.65409500  0.05060500  0.36476100  1
  H  418  1  0.61505300  0.14661300  0.37294800  1
  H  439  1  0.45718000  0.26751300  0.68382800  1
  H  440  1  0.48631100  0.30636800  0.57403900  1
  H  441  1  0.49380100  0.36128700  0.61100200  1
  H  442  1  0.48096700  0.21159100  0.51217900  1
  H  443  1  0.47681900  0.13165400  0.58787300  1
  H  444  1  0.46602700  0.17836500  0.62305500  1
  H  446  1  0.50828600  0.15957400  0.50779300  1
  H  448  1  0.46222700  0.34224100  0.69010000  1
  H  461  1  0.87478500  0.60609900  0.01726700  1
  H  462  1  0.88448900  0.57678700  0.90751340  1
  H  463  1  0.93153100  0.56880900  0.94455740  1
  H  464  1  0.79572800  0.58295100  0.84550000  1
  H  465  1  0.71996200  0.58755400  0.92104140  1
  H  466  1  0.77723500  0.59799900  0.95632640  1
  H  468  1  0.71651100  0.55593400  0.84098700  1
  H  470  1  0.94420800  0.60055800  0.02360200  1
  H  483  1  0.79621300  0.18879700  0.35061700  1
  H  484  1  0.75755700  0.17917900  0.24079500  1
  H  485  1  0.70251500  0.13184000  0.27772300  1
  H  486  1  0.85253700  0.26841000  0.17898400  1
  H  487  1  0.93259300  0.34404500  0.25468900  1
  H  488  1  0.88571500  0.28662400  0.28986700  1
  H  490  1  0.90468200  0.34764400  0.17457000  1
  H  492  1  0.72140600  0.11922100  0.35685500  1
  H  505  1  0.62847000  0.77397800  0.68376400  1
  H  506  1  0.59932200  0.73535200  0.57394300  1
  H  507  1  0.59173200  0.68032900  0.61084300  1
  H  508  1  0.60494900  0.83032800  0.51218200  1
  H  509  1  0.60920700  0.91023400  0.58792400  1
  H  510  1  0.61985100  0.86339500  0.62307900  1
  H  512  1  0.57771900  0.88239900  0.50783800  1
  H  514  1  0.62335500  0.69923700  0.68993700  1
  H  527  1  0.21056500  0.43530900  0.01713500  1
  H  528  1  0.20092000  0.46432900  0.90731140  1
  H  529  1  0.15340100  0.47176800  0.94421840  1
  H  530  1  0.29053700  0.45912700  0.84555900  1
  H  531  1  0.36628400  0.45513900  0.92134440  1
  H  532  1  0.30869500  0.44426300  0.95646540  1
  H  534  1  0.36987700  0.48651800  0.84122000  1
  H  536  1  0.14085700  0.44027400  0.02334800  1
  H  549  1  0.28949300  0.85273200  0.35061200  1
  H  550  1  0.32853300  0.86259600  0.24085300  1
  H  551  1  0.38351800  0.90964600  0.27791100  1
  H  552  1  0.23367700  0.77377600  0.17881500  1
  H  553  1  0.15332400  0.69793300  0.25433700  1
  H  554  1  0.20010800  0.75520400  0.28963400  1
  H  556  1  0.18152000  0.69453600  0.17428500  1
  H  558  1  0.36442200  0.92219900  0.35697500  1
  H  584  1  0.65143700  0.63165500  0.59745100  1
  H  585  1  0.59227700  0.60413800  0.56127500  1
  H  586  1  0.63788700  0.50492100  0.60369000  1
  H  587  1  0.57902200  0.47758300  0.56701300  1
  H  588  1  0.49382200  0.43793000  0.56161600  1
  H  589  1  0.43486700  0.41071600  0.59795200  1
  H  590  1  0.44851300  0.53752400  0.60375800  1
  H  591  1  0.50716400  0.56455000  0.56691900  1
  H  592  1  0.48040900  0.54001000  0.50946500  1
  H  593  1  0.48949000  0.59323300  0.47121600  1
  H  594  1  0.62438600  0.63176000  0.46275700  1
  H  595  1  0.61555400  0.57968200  0.50147500  1
  H  596  1  0.60542400  0.50167400  0.50943800  1
  H  597  1  0.47022100  0.46188700  0.50177000  1
  H  598  1  0.46123400  0.40967700  0.46311700  1
  H  599  1  0.59619400  0.44833000  0.47125600  1
  H  633  1  0.04544500  0.41279900  0.93121680  1
  H  634  1  0.07701600  0.47179600  0.89490000  1
  H  635  1  0.93220100  0.42626400  0.93729580  1
  H  636  1  0.96365400  0.48494800  0.90048280  1
  H  637  1  0.00898000  0.57003000  0.89473500  1
  H  638  1  0.04063500  0.62922900  0.93086680  1
  H  639  1  0.15399800  0.61596300  0.93689680  1
  H  640  1  0.12244900  0.55705700  0.90025480  1
  H  641  1  0.12448400  0.58335500  0.84266400  1
  H  642  1  0.16854900  0.57418900  0.80440700  1
  H  643  1  0.07240400  0.43915400  0.79640100  1
  H  644  1  0.02925300  0.44808800  0.83513700  1
  H  645  1  0.96126000  0.45804400  0.84300000  1
  H  646  1  0.05639900  0.59325900  0.83483100  1
  H  647  1  0.01288700  0.60186100  0.79621000  1
  H  648  1  0.91686100  0.46688200  0.80484200  1
  H  682  1  0.43244200  0.01875800  0.26438600  1
  H  683  1  0.45981300  0.98703100  0.22816500  1
  H  684  1  0.55923100  0.13190000  0.27042300  1
  H  685  1  0.58640800  0.10028900  0.23369600  1
  H  686  1  0.62610600  0.05481000  0.22816800  1
  H  687  1  0.65350900  0.02315800  0.26443100  1
  H  688  1  0.52671600  0.91004200  0.27059200  1
  H  689  1  0.49950900  0.94157600  0.23382600  1
  H  690  1  0.52407500  0.93926500  0.17627900  1
  H  691  1  0.47082900  0.89491100  0.13811900  1
  H  692  1  0.43173400  0.99085500  0.12969700  1
  H  693  1  0.48386900  0.03432600  0.16832500  1
  H  694  1  0.56185000  0.10242100  0.17612200  1
  H  695  1  0.60201800  0.00730800  0.16840200  1
  H  696  1  0.65409500  0.05060500  0.12969700  1
  H  697  1  0.61505300  0.14661300  0.13788400  1
  H  718  1  0.45718000  0.26751300  0.44876400  1
  H  719  1  0.48631100  0.30636800  0.33897500  1
  H  720  1  0.49380100  0.36128700  0.37593800  1
  H  721  1  0.48096700  0.21159100  0.27711500  1
  H  722  1  0.47681900  0.13165400  0.35280900  1
  H  723  1  0.46602700  0.17836500  0.38799100  1
  H  725  1  0.50828600  0.15957400  0.27272900  1
  H  727  1  0.46222700  0.34224100  0.45503600  1
  H  740  1  0.87478500  0.60609900  0.78220300  1
  H  741  1  0.88448900  0.57678700  0.67244900  1
  H  742  1  0.93153100  0.56880900  0.70949300  1
  H  743  1  0.79572800  0.58295100  0.61043600  1
  H  744  1  0.71996200  0.58755400  0.68597700  1
  H  745  1  0.77723500  0.59799900  0.72126200  1
  H  747  1  0.71651100  0.55593400  0.60592300  1
  H  749  1  0.94420800  0.60055800  0.78853800  1
  H  762  1  0.79621300  0.18879700  0.11555300  1
  H  763  1  0.75755700  0.17917900  0.00573100  1
  H  764  1  0.70251500  0.13184000  0.04265900  1
  H  765  1  0.85253700  0.26841000  0.94391980  1
  H  766  1  0.93259300  0.34404500  0.01962500  1
  H  767  1  0.88571500  0.28662400  0.05480300  1
  H  769  1  0.90468200  0.34764400  0.93950580  1
  H  771  1  0.72140600  0.11922100  0.12179100  1
  H  784  1  0.62847000  0.77397800  0.44870000  1
  H  785  1  0.59932200  0.73535200  0.33887900  1
  H  786  1  0.59173200  0.68032900  0.37577900  1
  H  787  1  0.60494900  0.83032800  0.27711800  1
  H  788  1  0.60920700  0.91023400  0.35286000  1
  H  789  1  0.61985100  0.86339500  0.38801500  1
  H  791  1  0.57771900  0.88239900  0.27277400  1
  H  793  1  0.62335500  0.69923700  0.45487300  1
  H  806  1  0.21056500  0.43530900  0.78207100  1
  H  807  1  0.20092000  0.46432900  0.67224700  1
  H  808  1  0.15340100  0.47176800  0.70915400  1
  H  809  1  0.29053700  0.45912700  0.61049500  1
  H  810  1  0.36628400  0.45513900  0.68628000  1
  H  811  1  0.30869500  0.44426300  0.72140100  1
  H  813  1  0.36987700  0.48651800  0.60615600  1
  H  815  1  0.14085700  0.44027400  0.78828400  1
  H  828  1  0.28949300  0.85273200  0.11554800  1
  H  829  1  0.32853300  0.86259600  0.00578900  1
  H  830  1  0.38351800  0.90964600  0.04284700  1
  H  831  1  0.23367700  0.77377600  0.94375080  1
  H  832  1  0.15332400  0.69793300  0.01927300  1
  H  833  1  0.20010800  0.75520400  0.05457000  1
  H  835  1  0.18152000  0.69453600  0.93922080  1
  H  837  1  0.36442200  0.92219900  0.12191100  1
  C  1  1  0.52738800  0.42234600  0.93435800  1
  C  2  1  0.49151600  0.42753100  0.94369100  1
  C  3  1  0.49702700  0.45874700  0.96654700  1
  C  4  1  0.53811400  0.48541500  0.98190100  1
  C  5  1  0.57433500  0.48131900  0.97116400  1
  C  6  1  0.56911400  0.45031300  0.94804100  1
  C  7  1  0.54298400  0.52092000  0.00504800  1
  C  8  1  0.54771900  0.55624000  0.98177100  1
  C  9  1  0.58872500  0.58279100  0.96628400  1
  C  10  1  0.59413000  0.61389500  0.94336600  1
  C  11  1  0.55824800  0.61912800  0.93414800  1
  C  12  1  0.51657900  0.59121700  0.94792400  1
  C  13  1  0.51145400  0.56029400  0.97108900  1
  C  14  1  0.50441500  0.50338200  0.02803800  1
  C  15  1  0.58169400  0.53867000  0.02792500  1
  C  16  1  0.60219000  0.58283700  0.03923400  1
  C  17  1  0.63686900  0.59915700  0.06110900  1
  C  18  1  0.65197200  0.57154600  0.07328100  1
  C  19  1  0.62958900  0.52663100  0.06422400  1
  C  20  1  0.59470300  0.51046700  0.04248200  1
  C  21  1  0.48397800  0.45930600  0.03952500  1
  C  22  1  0.44944000  0.44317600  0.06151100  1
  C  23  1  0.43440900  0.47089100  0.07360000  1
  C  24  1  0.45675800  0.51573500  0.06436700  1
  C  25  1  0.49151100  0.53171100  0.04252500  1
  C  42  1  0.68793900  0.58821000  0.09468300  1
  C  43  1  0.39852900  0.45441200  0.09507600  1
  C  44  1  0.56383200  0.65033600  0.91064600  1
  C  45  1  0.52174900  0.39115700  0.91082300  1
  C  50  1  0.95951500  0.53566400  0.26772100  1
  C  51  1  0.00059100  0.57165200  0.27687700  1
  C  52  1  0.02646600  0.56636700  0.29971100  1
  C  53  1  0.01219100  0.52541900  0.31523500  1
  C  54  1  0.97188800  0.48906100  0.30462000  1
  C  55  1  0.94593800  0.49404100  0.28150800  1
  C  56  1  0.04294500  0.52082900  0.33842700  1
  C  57  1  0.07354500  0.51601200  0.31521900  1
  C  58  1  0.05913900  0.47492900  0.29985500  1
  C  59  1  0.08478200  0.46946500  0.27692400  1
  C  60  1  0.12579800  0.50536000  0.26755500  1
  C  61  1  0.13952200  0.54708700  0.28122100  1
  C  62  1  0.11376800  0.55226900  0.30439400  1
  C  63  1  0.06394200  0.55958700  0.36125800  1
  C  64  1  0.02208300  0.48228100  0.36143900  1
  C  65  1  0.04581100  0.46190500  0.37286600  1
  C  66  1  0.02750200  0.42733400  0.39483300  1
  C  67  1  0.98478100  0.41223400  0.40698600  1
  C  68  1  0.96223100  0.43457400  0.39786700  1
  C  69  1  0.98090100  0.46933800  0.37602800  1
  C  70  1  0.04023200  0.58000700  0.37264000  1
  C  71  1  0.05859600  0.61470600  0.39449900  1
  C  72  1  0.10136700  0.62991600  0.40659100  1
  C  73  1  0.12394100  0.60759300  0.39748900  1
  C  74  1  0.10520700  0.57268600  0.37576400  1
  C  91  1  0.96544500  0.37629200  0.42840900  1
  C  92  1  0.12067900  0.66589600  0.42798600  1
  C  93  1  0.15135400  0.49973500  0.24401300  1
  C  94  1  0.93373400  0.54110600  0.24427600  1
  C  99  1  0.64121800  0.10394900  0.60096300  1
  C  100  1  0.63617000  0.06294600  0.61028100  1
  C  101  1  0.60503500  0.03719700  0.63317000  1
  C  102  1  0.57833600  0.05153100  0.64858500  1
  C  103  1  0.58223800  0.09175100  0.63780700  1
  C  104  1  0.61316400  0.11758500  0.61465800  1
  C  105  1  0.54295900  0.02088500  0.67179800  1
  C  106  1  0.50757800  0.99015400  0.64862000  1
  C  107  1  0.48086000  0.00442300  0.63315300  1
  C  108  1  0.44972600  0.97859500  0.61028800  1
  C  109  1  0.44464600  0.93753700  0.60108600  1
  C  110  1  0.47272600  0.92396600  0.61482000  1
  C  111  1  0.50367200  0.94989300  0.63793200  1
  C  112  1  0.56063700  0.99994700  0.69475200  1
  C  113  1  0.52527700  0.04188600  0.69468800  1
  C  114  1  0.48115500  0.01825200  0.70608900  1
  C  115  1  0.46492900  0.03664700  0.72801100  1
  C  116  1  0.49259100  0.07938600  0.74012900  1
  C  117  1  0.53747800  0.10187200  0.73100400  1
  C  118  1  0.55354200  0.08310100  0.70922700  1
  C  119  1  0.60476600  0.02361400  0.70613600  1
  C  120  1  0.62101100  0.00526800  0.72808600  1
  C  121  1  0.59335700  0.96255400  0.74024200  1
  C  122  1  0.54845900  0.94005300  0.73114900  1
  C  123  1  0.53237800  0.95877800  0.70934700  1
  C  140  1  0.47601300  0.09875900  0.76154300  1
  C  141  1  0.60996000  0.94318500  0.76163700  1
  C  142  1  0.41342900  0.91178500  0.57762900  1
  C  143  1  0.67241700  0.12961100  0.57746600  1
  C  148  1  0.47821800  0.16547100  0.78105900  1
  C  149  1  0.47329000  0.15669600  0.81371100  1
  C  150  1  0.46737200  0.18451400  0.83452100  1
  C  151  1  0.46739900  0.22240800  0.82284400  1
  C  153  1  0.47666100  0.20294000  0.77046600  1
  C  154  1  0.46752200  0.25489700  0.84295700  1
  C  155  1  0.47929800  0.29772400  0.83223900  1
  C  156  1  0.48428800  0.33015300  0.85395800  1
  C  157  1  0.47721900  0.32023800  0.88634200  1
  C  158  1  0.46269000  0.27640700  0.89573800  1
  C  170  1  0.75241300  0.58601800  0.11428100  1
  C  171  1  0.74847300  0.59086500  0.14693100  1
  C  172  1  0.78210400  0.59666000  0.16780000  1
  C  173  1  0.81988500  0.59639600  0.15620000  1
  C  175  1  0.79137300  0.58736200  0.10376400  1
  C  176  1  0.85201500  0.59591600  0.17636800  1
  C  177  1  0.88278100  0.58371400  0.16572200  1
  C  178  1  0.91002300  0.57848500  0.18748200  1
  C  179  1  0.90717400  0.58560800  0.21985800  1
  C  180  1  0.87805500  0.60038800  0.22919700  1
  C  192  1  0.89874800  0.31169900  0.44786100  1
  C  193  1  0.90745000  0.31554700  0.48052300  1
  C  194  1  0.87950100  0.28188900  0.50133400  1
  C  195  1  0.84157300  0.24406700  0.48965100  1
  C  197  1  0.86116300  0.27276000  0.43727400  1
  C  198  1  0.80899400  0.21177200  0.50974900  1
  C  199  1  0.76612400  0.18085100  0.49901600  1
  C  200  1  0.73363500  0.15344700  0.52071000  1
  C  201  1  0.74349600  0.15625900  0.55310400  1
  C  202  1  0.78731500  0.18553600  0.56253000  1
  C  214  1  0.60779700  0.87646600  0.78108400  1
  C  215  1  0.61261600  0.88512400  0.81375500  1
  C  216  1  0.61847400  0.85724600  0.83454200  1
  C  217  1  0.61839800  0.81934500  0.82283400  1
  C  219  1  0.60924900  0.83894500  0.77047300  1
  C  220  1  0.61819500  0.78678500  0.84290800  1
  C  221  1  0.60632500  0.74394700  0.83215200  1
  C  222  1  0.60126700  0.71145200  0.85383400  1
  C  223  1  0.60834200  0.72130600  0.88622500  1
  C  224  1  0.62287700  0.76511700  0.89567000  1
  C  236  1  0.33390500  0.45647400  0.11449000  1
  C  237  1  0.33771100  0.45156400  0.14715000  1
  C  238  1  0.30392200  0.44559400  0.16792500  1
  C  239  1  0.26603700  0.44555000  0.15620400  1
  C  241  1  0.29486100  0.45484300  0.10385300  1
  C  242  1  0.23361700  0.44562800  0.17627900  1
  C  243  1  0.20253400  0.45733900  0.16552000  1
  C  244  1  0.17504100  0.46229900  0.18720500  1
  C  245  1  0.17786500  0.45526500  0.21959900  1
  C  246  1  0.20719500  0.44079300  0.22903700  1
  C  258  1  0.18730200  0.73041900  0.44758400  1
  C  259  1  0.17850900  0.72645600  0.48023400  1
  C  260  1  0.20632100  0.76008600  0.50111000  1
  C  261  1  0.24435200  0.79789600  0.48952200  1
  C  263  1  0.22490400  0.76940100  0.43707900  1
  C  264  1  0.27693400  0.83003200  0.50970000  1
  C  265  1  0.31989000  0.86085400  0.49906300  1
  C  266  1  0.35234100  0.88810400  0.52083200  1
  C  267  1  0.34236700  0.88521000  0.55320800  1
  C  268  1  0.29847800  0.85603700  0.56254200  1
  C  280  1  0.52738800  0.42234600  0.69929300  1
  C  281  1  0.49151600  0.42753100  0.70862600  1
  C  282  1  0.49702700  0.45874700  0.73148200  1
  C  283  1  0.53811400  0.48541500  0.74683600  1
  C  284  1  0.57433500  0.48131900  0.73609900  1
  C  285  1  0.56911400  0.45031300  0.71297600  1
  C  286  1  0.54298400  0.52092000  0.76998300  1
  C  287  1  0.54771900  0.55624000  0.74670600  1
  C  288  1  0.58872500  0.58279100  0.73121900  1
  C  289  1  0.59413000  0.61389500  0.70830100  1
  C  290  1  0.55824800  0.61912800  0.69908300  1
  C  291  1  0.51657900  0.59121700  0.71285900  1
  C  292  1  0.51145400  0.56029400  0.73602400  1
  C  293  1  0.50441500  0.50338200  0.79297300  1
  C  294  1  0.58169400  0.53867000  0.79286000  1
  C  295  1  0.60219000  0.58283700  0.80416900  1
  C  296  1  0.63686900  0.59915700  0.82604400  1
  C  297  1  0.65197200  0.57154600  0.83821600  1
  C  298  1  0.62958900  0.52663100  0.82915900  1
  C  299  1  0.59470300  0.51046700  0.80741700  1
  C  300  1  0.48397800  0.45930600  0.80446000  1
  C  301  1  0.44944000  0.44317600  0.82644600  1
  C  302  1  0.43440900  0.47089100  0.83853500  1
  C  303  1  0.45675800  0.51573500  0.82930200  1
  C  304  1  0.49151100  0.53171100  0.80746000  1
  C  321  1  0.68793900  0.58821000  0.85961800  1
  C  322  1  0.39852900  0.45441200  0.86001100  1
  C  323  1  0.56383200  0.65033600  0.67558100  1
  C  324  1  0.52174900  0.39115700  0.67575800  1
  C  329  1  0.95951500  0.53566400  0.03265600  1
  C  330  1  0.00059100  0.57165200  0.04181200  1
  C  331  1  0.02646600  0.56636700  0.06464600  1
  C  332  1  0.01219100  0.52541900  0.08017000  1
  C  333  1  0.97188800  0.48906100  0.06955500  1
  C  334  1  0.94593800  0.49404100  0.04644300  1
  C  335  1  0.04294500  0.52082900  0.10336200  1
  C  336  1  0.07354500  0.51601200  0.08015400  1
  C  337  1  0.05913900  0.47492900  0.06479000  1
  C  338  1  0.08478200  0.46946500  0.04185900  1
  C  339  1  0.12579800  0.50536000  0.03249000  1
  C  340  1  0.13952200  0.54708700  0.04615600  1
  C  341  1  0.11376800  0.55226900  0.06932900  1
  C  342  1  0.06394200  0.55958700  0.12619300  1
  C  343  1  0.02208300  0.48228100  0.12637400  1
  C  344  1  0.04581100  0.46190500  0.13780100  1
  C  345  1  0.02750200  0.42733400  0.15976800  1
  C  346  1  0.98478100  0.41223400  0.17192100  1
  C  347  1  0.96223100  0.43457400  0.16280200  1
  C  348  1  0.98090100  0.46933800  0.14096300  1
  C  349  1  0.04023200  0.58000700  0.13757500  1
  C  350  1  0.05859600  0.61470600  0.15943400  1
  C  351  1  0.10136700  0.62991600  0.17152600  1
  C  352  1  0.12394100  0.60759300  0.16242400  1
  C  353  1  0.10520700  0.57268600  0.14069900  1
  C  370  1  0.96544500  0.37629200  0.19334400  1
  C  371  1  0.12067900  0.66589600  0.19292100  1
  C  372  1  0.15135400  0.49973500  0.00894800  1
  C  373  1  0.93373400  0.54110600  0.00921100  1
  C  378  1  0.64121800  0.10394900  0.36589800  1
  C  379  1  0.63617000  0.06294600  0.37521600  1
  C  380  1  0.60503500  0.03719700  0.39810500  1
  C  381  1  0.57833600  0.05153100  0.41352000  1
  C  382  1  0.58223800  0.09175100  0.40274200  1
  C  383  1  0.61316400  0.11758500  0.37959300  1
  C  384  1  0.54295900  0.02088500  0.43673300  1
  C  385  1  0.50757800  0.99015400  0.41355500  1
  C  386  1  0.48086000  0.00442300  0.39808800  1
  C  387  1  0.44972600  0.97859500  0.37522300  1
  C  388  1  0.44464600  0.93753700  0.36602100  1
  C  389  1  0.47272600  0.92396600  0.37975500  1
  C  390  1  0.50367200  0.94989300  0.40286700  1
  C  391  1  0.56063700  0.99994700  0.45968700  1
  C  392  1  0.52527700  0.04188600  0.45962300  1
  C  393  1  0.48115500  0.01825200  0.47102400  1
  C  394  1  0.46492900  0.03664700  0.49294600  1
  C  395  1  0.49259100  0.07938600  0.50506400  1
  C  396  1  0.53747800  0.10187200  0.49593900  1
  C  397  1  0.55354200  0.08310100  0.47416200  1
  C  398  1  0.60476600  0.02361400  0.47107100  1
  C  399  1  0.62101100  0.00526800  0.49302100  1
  C  400  1  0.59335700  0.96255400  0.50517700  1
  C  401  1  0.54845900  0.94005300  0.49608400  1
  C  402  1  0.53237800  0.95877800  0.47428200  1
  C  419  1  0.47601300  0.09875900  0.52647800  1
  C  420  1  0.60996000  0.94318500  0.52657200  1
  C  421  1  0.41342900  0.91178500  0.34256400  1
  C  422  1  0.67241700  0.12961100  0.34240100  1
  C  427  1  0.47821800  0.16547100  0.54599400  1
  C  428  1  0.47329000  0.15669600  0.57864600  1
  C  429  1  0.46737200  0.18451400  0.59945600  1
  C  430  1  0.46739900  0.22240800  0.58777900  1
  C  432  1  0.47666100  0.20294000  0.53540100  1
  C  433  1  0.46752200  0.25489700  0.60789200  1
  C  434  1  0.47929800  0.29772400  0.59717400  1
  C  435  1  0.48428800  0.33015300  0.61889300  1
  C  436  1  0.47721900  0.32023800  0.65127700  1
  C  437  1  0.46269000  0.27640700  0.66067300  1
  C  449  1  0.75241300  0.58601800  0.87921600  1
  C  450  1  0.74847300  0.59086500  0.91186640  1
  C  451  1  0.78210400  0.59666000  0.93273540  1
  C  452  1  0.81988500  0.59639600  0.92113540  1
  C  454  1  0.79137300  0.58736200  0.86869900  1
  C  455  1  0.85201500  0.59591600  0.94130340  1
  C  456  1  0.88278100  0.58371400  0.93065740  1
  C  457  1  0.91002300  0.57848500  0.95241740  1
  C  458  1  0.90717400  0.58560800  0.98479340  1
  C  459  1  0.87805500  0.60038800  0.99413242  1
  C  471  1  0.89874800  0.31169900  0.21279600  1
  C  472  1  0.90745000  0.31554700  0.24545800  1
  C  473  1  0.87950100  0.28188900  0.26626900  1
  C  474  1  0.84157300  0.24406700  0.25458600  1
  C  476  1  0.86116300  0.27276000  0.20220900  1
  C  477  1  0.80899400  0.21177200  0.27468400  1
  C  478  1  0.76612400  0.18085100  0.26395100  1
  C  479  1  0.73363500  0.15344700  0.28564500  1
  C  480  1  0.74349600  0.15625900  0.31803900  1
  C  481  1  0.78731500  0.18553600  0.32746500  1
  C  493  1  0.60779700  0.87646600  0.54601900  1
  C  494  1  0.61261600  0.88512400  0.57869000  1
  C  495  1  0.61847400  0.85724600  0.59947700  1
  C  496  1  0.61839800  0.81934500  0.58776900  1
  C  498  1  0.60924900  0.83894500  0.53540800  1
  C  499  1  0.61819500  0.78678500  0.60784300  1
  C  500  1  0.60632500  0.74394700  0.59708700  1
  C  501  1  0.60126700  0.71145200  0.61876900  1
  C  502  1  0.60834200  0.72130600  0.65116000  1
  C  503  1  0.62287700  0.76511700  0.66060500  1
  C  515  1  0.33390500  0.45647400  0.87942500  1
  C  516  1  0.33771100  0.45156400  0.91208540  1
  C  517  1  0.30392200  0.44559400  0.93286040  1
  C  518  1  0.26603700  0.44555000  0.92113940  1
  C  520  1  0.29486100  0.45484300  0.86878800  1
  C  521  1  0.23361700  0.44562800  0.94121440  1
  C  522  1  0.20253400  0.45733900  0.93045540  1
  C  523  1  0.17504100  0.46229900  0.95214040  1
  C  524  1  0.17786500  0.45526500  0.98453440  1
  C  525  1  0.20719500  0.44079300  0.99397242  1
  C  537  1  0.18730200  0.73041900  0.21251900  1
  C  538  1  0.17850900  0.72645600  0.24516900  1
  C  539  1  0.20632100  0.76008600  0.26604500  1
  C  540  1  0.24435200  0.79789600  0.25445700  1
  C  542  1  0.22490400  0.76940100  0.20201400  1
  C  543  1  0.27693400  0.83003200  0.27463500  1
  C  544  1  0.31989000  0.86085400  0.26399800  1
  C  545  1  0.35234100  0.88810400  0.28576700  1
  C  546  1  0.34236700  0.88521000  0.31814300  1
  C  547  1  0.29847800  0.85603700  0.32747700  1
  C  559  1  0.52738800  0.42234600  0.46422900  1
  C  560  1  0.49151600  0.42753100  0.47356200  1
  C  561  1  0.49702700  0.45874700  0.49641800  1
  C  562  1  0.53811400  0.48541500  0.51177200  1
  C  563  1  0.57433500  0.48131900  0.50103500  1
  C  564  1  0.56911400  0.45031300  0.47791200  1
  C  565  1  0.54298400  0.52092000  0.53491900  1
  C  566  1  0.54771900  0.55624000  0.51164200  1
  C  567  1  0.58872500  0.58279100  0.49615500  1
  C  568  1  0.59413000  0.61389500  0.47323700  1
  C  569  1  0.55824800  0.61912800  0.46401900  1
  C  570  1  0.51657900  0.59121700  0.47779500  1
  C  571  1  0.51145400  0.56029400  0.50096000  1
  C  572  1  0.50441500  0.50338200  0.55790900  1
  C  573  1  0.58169400  0.53867000  0.55779600  1
  C  574  1  0.60219000  0.58283700  0.56910500  1
  C  575  1  0.63686900  0.59915700  0.59098000  1
  C  576  1  0.65197200  0.57154600  0.60315200  1
  C  577  1  0.62958900  0.52663100  0.59409500  1
  C  578  1  0.59470300  0.51046700  0.57235300  1
  C  579  1  0.48397800  0.45930600  0.56939600  1
  C  580  1  0.44944000  0.44317600  0.59138200  1
  C  581  1  0.43440900  0.47089100  0.60347100  1
  C  582  1  0.45675800  0.51573500  0.59423800  1
  C  583  1  0.49151100  0.53171100  0.57239600  1
  C  600  1  0.68793900  0.58821000  0.62455400  1
  C  601  1  0.39852900  0.45441200  0.62494700  1
  C  602  1  0.56383200  0.65033600  0.44051700  1
  C  603  1  0.52174900  0.39115700  0.44069400  1
  C  608  1  0.95951500  0.53566400  0.79759200  1
  C  609  1  0.00059100  0.57165200  0.80674800  1
  C  610  1  0.02646600  0.56636700  0.82958200  1
  C  611  1  0.01219100  0.52541900  0.84510600  1
  C  612  1  0.97188800  0.48906100  0.83449100  1
  C  613  1  0.94593800  0.49404100  0.81137900  1
  C  614  1  0.04294500  0.52082900  0.86829800  1
  C  615  1  0.07354500  0.51601200  0.84509000  1
  C  616  1  0.05913900  0.47492900  0.82972600  1
  C  617  1  0.08478200  0.46946500  0.80679500  1
  C  618  1  0.12579800  0.50536000  0.79742600  1
  C  619  1  0.13952200  0.54708700  0.81109200  1
  C  620  1  0.11376800  0.55226900  0.83426500  1
  C  621  1  0.06394200  0.55958700  0.89112900  1
  C  622  1  0.02208300  0.48228100  0.89131000  1
  C  623  1  0.04581100  0.46190500  0.90273680  1
  C  624  1  0.02750200  0.42733400  0.92470380  1
  C  625  1  0.98478100  0.41223400  0.93685680  1
  C  626  1  0.96223100  0.43457400  0.92773780  1
  C  627  1  0.98090100  0.46933800  0.90589880  1
  C  628  1  0.04023200  0.58000700  0.90251080  1
  C  629  1  0.05859600  0.61470600  0.92436980  1
  C  630  1  0.10136700  0.62991600  0.93646180  1
  C  631  1  0.12394100  0.60759300  0.92735980  1
  C  632  1  0.10520700  0.57268600  0.90563480  1
  C  649  1  0.96544500  0.37629200  0.95827980  1
  C  650  1  0.12067900  0.66589600  0.95785680  1
  C  651  1  0.15135400  0.49973500  0.77388400  1
  C  652  1  0.93373400  0.54110600  0.77414700  1
  C  657  1  0.64121800  0.10394900  0.13083400  1
  C  658  1  0.63617000  0.06294600  0.14015200  1
  C  659  1  0.60503500  0.03719700  0.16304100  1
  C  660  1  0.57833600  0.05153100  0.17845600  1
  C  661  1  0.58223800  0.09175100  0.16767800  1
  C  662  1  0.61316400  0.11758500  0.14452900  1
  C  663  1  0.54295900  0.02088500  0.20166900  1
  C  664  1  0.50757800  0.99015400  0.17849100  1
  C  665  1  0.48086000  0.00442300  0.16302400  1
  C  666  1  0.44972600  0.97859500  0.14015900  1
  C  667  1  0.44464600  0.93753700  0.13095700  1
  C  668  1  0.47272600  0.92396600  0.14469100  1
  C  669  1  0.50367200  0.94989300  0.16780300  1
  C  670  1  0.56063700  0.99994700  0.22462300  1
  C  671  1  0.52527700  0.04188600  0.22455900  1
  C  672  1  0.48115500  0.01825200  0.23596000  1
  C  673  1  0.46492900  0.03664700  0.25788200  1
  C  674  1  0.49259100  0.07938600  0.27000000  1
  C  675  1  0.53747800  0.10187200  0.26087500  1
  C  676  1  0.55354200  0.08310100  0.23909800  1
  C  677  1  0.60476600  0.02361400  0.23600700  1
  C  678  1  0.62101100  0.00526800  0.25795700  1
  C  679  1  0.59335700  0.96255400  0.27011300  1
  C  680  1  0.54845900  0.94005300  0.26102000  1
  C  681  1  0.53237800  0.95877800  0.23921800  1
  C  698  1  0.47601300  0.09875900  0.29141400  1
  C  699  1  0.60996000  0.94318500  0.29150800  1
  C  700  1  0.41342900  0.91178500  0.10750000  1
  C  701  1  0.67241700  0.12961100  0.10733700  1
  C  706  1  0.47821800  0.16547100  0.31093000  1
  C  707  1  0.47329000  0.15669600  0.34358200  1
  C  708  1  0.46737200  0.18451400  0.36439200  1
  C  709  1  0.46739900  0.22240800  0.35271500  1
  C  711  1  0.47666100  0.20294000  0.30033700  1
  C  712  1  0.46752200  0.25489700  0.37282800  1
  C  713  1  0.47929800  0.29772400  0.36211000  1
  C  714  1  0.48428800  0.33015300  0.38382900  1
  C  715  1  0.47721900  0.32023800  0.41621300  1
  C  716  1  0.46269000  0.27640700  0.42560900  1
  C  728  1  0.75241300  0.58601800  0.64415200  1
  C  729  1  0.74847300  0.59086500  0.67680200  1
  C  730  1  0.78210400  0.59666000  0.69767100  1
  C  731  1  0.81988500  0.59639600  0.68607100  1
  C  733  1  0.79137300  0.58736200  0.63363500  1
  C  734  1  0.85201500  0.59591600  0.70623900  1
  C  735  1  0.88278100  0.58371400  0.69559300  1
  C  736  1  0.91002300  0.57848500  0.71735300  1
  C  737  1  0.90717400  0.58560800  0.74972900  1
  C  738  1  0.87805500  0.60038800  0.75906800  1
  C  750  1  0.89874800  0.31169900  0.97773180  1
  C  751  1  0.90745000  0.31554700  0.01039400  1
  C  752  1  0.87950100  0.28188900  0.03120500  1
  C  753  1  0.84157300  0.24406700  0.01952200  1
  C  755  1  0.86116300  0.27276000  0.96714480  1
  C  756  1  0.80899400  0.21177200  0.03962000  1
  C  757  1  0.76612400  0.18085100  0.02888700  1
  C  758  1  0.73363500  0.15344700  0.05058100  1
  C  759  1  0.74349600  0.15625900  0.08297500  1
  C  760  1  0.78731500  0.18553600  0.09240100  1
  C  772  1  0.60779700  0.87646600  0.31095500  1
  C  773  1  0.61261600  0.88512400  0.34362600  1
  C  774  1  0.61847400  0.85724600  0.36441300  1
  C  775  1  0.61839800  0.81934500  0.35270500  1
  C  777  1  0.60924900  0.83894500  0.30034400  1
  C  778  1  0.61819500  0.78678500  0.37277900  1
  C  779  1  0.60632500  0.74394700  0.36202300  1
  C  780  1  0.60126700  0.71145200  0.38370500  1
  C  781  1  0.60834200  0.72130600  0.41609600  1
  C  782  1  0.62287700  0.76511700  0.42554100  1
  C  794  1  0.33390500  0.45647400  0.64436100  1
  C  795  1  0.33771100  0.45156400  0.67702100  1
  C  796  1  0.30392200  0.44559400  0.69779600  1
  C  797  1  0.26603700  0.44555000  0.68607500  1
  C  799  1  0.29486100  0.45484300  0.63372400  1
  C  800  1  0.23361700  0.44562800  0.70615000  1
  C  801  1  0.20253400  0.45733900  0.69539100  1
  C  802  1  0.17504100  0.46229900  0.71707600  1
  C  803  1  0.17786500  0.45526500  0.74947000  1
  C  804  1  0.20719500  0.44079300  0.75890800  1
  C  816  1  0.18730200  0.73041900  0.97745480  1
  C  817  1  0.17850900  0.72645600  0.01010500  1
  C  818  1  0.20632100  0.76008600  0.03098100  1
  C  819  1  0.24435200  0.79789600  0.01939300  1
  C  821  1  0.22490400  0.76940100  0.96694980  1
  C  822  1  0.27693400  0.83003200  0.03957100  1
  C  823  1  0.31989000  0.86085400  0.02893400  1
  C  824  1  0.35234100  0.88810400  0.05070300  1
  C  825  1  0.34236700  0.88521000  0.08307900  1
  C  826  1  0.29847800  0.85603700  0.09241300  1
  N  152  1  0.47197200  0.22958600  0.79127800  1
  N  159  1  0.45955400  0.24639400  0.87424800  1
  N  166  1  0.48947800  0.14263200  0.76044100  1
  N  168  1  0.48369700  0.35154000  0.90810900  1
  N  174  1  0.82254400  0.59180100  0.12464000  1
  N  181  1  0.85145300  0.60389300  0.20765500  1
  N  188  1  0.71836800  0.57477000  0.09361400  1
  N  190  1  0.93181900  0.57898000  0.24168100  1
  N  196  1  0.83442800  0.24147200  0.45807900  1
  N  203  1  0.81742700  0.21230000  0.54105000  1
  N  210  1  0.92160700  0.34578800  0.42723600  1
  N  212  1  0.71218200  0.13146900  0.57486700  1
  N  218  1  0.61384600  0.81222000  0.79126200  1
  N  225  1  0.62612700  0.79521000  0.87420900  1
  N  232  1  0.59651300  0.89931800  0.76050000  1
  N  234  1  0.60187400  0.68996500  0.90795300  1
  N  240  1  0.26347400  0.45010700  0.12463300  1
  N  247  1  0.23412700  0.43768800  0.20757800  1
  N  254  1  0.36804000  0.46776600  0.09389800  1
  N  256  1  0.15299200  0.46171700  0.24133800  1
  N  262  1  0.25161400  0.80057500  0.45796400  1
  N  269  1  0.26839100  0.82943100  0.54098900  1
  N  276  1  0.16452800  0.69637800  0.42690700  1
  N  278  1  0.37363100  0.90985000  0.57504000  1
  N  431  1  0.47197200  0.22958600  0.55621300  1
  N  438  1  0.45955400  0.24639400  0.63918300  1
  N  445  1  0.48947800  0.14263200  0.52537600  1
  N  447  1  0.48369700  0.35154000  0.67304400  1
  N  453  1  0.82254400  0.59180100  0.88957500  1
  N  460  1  0.85145300  0.60389300  0.97259040  1
  N  467  1  0.71836800  0.57477000  0.85854900  1
  N  469  1  0.93181900  0.57898000  0.00661600  1
  N  475  1  0.83442800  0.24147200  0.22301400  1
  N  482  1  0.81742700  0.21230000  0.30598500  1
  N  489  1  0.92160700  0.34578800  0.19217100  1
  N  491  1  0.71218200  0.13146900  0.33980200  1
  N  497  1  0.61384600  0.81222000  0.55619700  1
  N  504  1  0.62612700  0.79521000  0.63914400  1
  N  511  1  0.59651300  0.89931800  0.52543500  1
  N  513  1  0.60187400  0.68996500  0.67288800  1
  N  519  1  0.26347400  0.45010700  0.88956800  1
  N  526  1  0.23412700  0.43768800  0.97251340  1
  N  533  1  0.36804000  0.46776600  0.85883300  1
  N  535  1  0.15299200  0.46171700  0.00627300  1
  N  541  1  0.25161400  0.80057500  0.22289900  1
  N  548  1  0.26839100  0.82943100  0.30592400  1
  N  555  1  0.16452800  0.69637800  0.19184200  1
  N  557  1  0.37363100  0.90985000  0.33997500  1
  N  710  1  0.47197200  0.22958600  0.32114900  1
  N  717  1  0.45955400  0.24639400  0.40411900  1
  N  724  1  0.48947800  0.14263200  0.29031200  1
  N  726  1  0.48369700  0.35154000  0.43798000  1
  N  732  1  0.82254400  0.59180100  0.65451100  1
  N  739  1  0.85145300  0.60389300  0.73752600  1
  N  746  1  0.71836800  0.57477000  0.62348500  1
  N  748  1  0.93181900  0.57898000  0.77155200  1
  N  754  1  0.83442800  0.24147200  0.98794980  1
  N  761  1  0.81742700  0.21230000  0.07092100  1
  N  768  1  0.92160700  0.34578800  0.95710680  1
  N  770  1  0.71218200  0.13146900  0.10473800  1
  N  776  1  0.61384600  0.81222000  0.32113300  1
  N  783  1  0.62612700  0.79521000  0.40408000  1
  N  790  1  0.59651300  0.89931800  0.29037100  1
  N  792  1  0.60187400  0.68996500  0.43782400  1
  N  798  1  0.26347400  0.45010700  0.65450400  1
  N  805  1  0.23412700  0.43768800  0.73744900  1
  N  812  1  0.36804000  0.46776600  0.62376900  1
  N  814  1  0.15299200  0.46171700  0.77120900  1
  N  820  1  0.25161400  0.80057500  0.98783480  1
  N  827  1  0.26839100  0.82943100  0.07086000  1
  N  834  1  0.16452800  0.69637800  0.95677780  1
  N  836  1  0.37363100  0.90985000  0.10491100  1
  O  46  1  0.39187800  0.42061700  0.11417700  1
  O  47  1  0.55672400  0.40054200  0.89208200  1
  O  48  1  0.69457600  0.62202900  0.11375200  1
  O  49  1  0.52883900  0.64094200  0.89192400  1
  O  95  1  0.09348300  0.67254800  0.44703400  1
  O  96  1  0.90821500  0.50609400  0.22554800  1
  O  97  1  0.99261800  0.36967300  0.44750400  1
  O  98  1  0.17689300  0.53469800  0.22525200  1
  O  144  1  0.64375600  0.97031100  0.78074300  1
  O  145  1  0.66290800  0.15506300  0.55867500  1
  O  146  1  0.44222200  0.07162500  0.78065000  1
  O  147  1  0.42294500  0.88631300  0.55886800  1
  O  325  1  0.39187800  0.42061700  0.87911200  1
  O  326  1  0.55672400  0.40054200  0.65701700  1
  O  327  1  0.69457600  0.62202900  0.87868700  1
  O  328  1  0.52883900  0.64094200  0.65685900  1
  O  374  1  0.09348300  0.67254800  0.21196900  1
  O  375  1  0.90821500  0.50609400  0.99048342  1
  O  376  1  0.99261800  0.36967300  0.21243900  1
  O  377  1  0.17689300  0.53469800  0.99018742  1
  O  423  1  0.64375600  0.97031100  0.54567800  1
  O  424  1  0.66290800  0.15506300  0.32361000  1
  O  425  1  0.44222200  0.07162500  0.54558500  1
  O  426  1  0.42294500  0.88631300  0.32380300  1
  O  604  1  0.39187800  0.42061700  0.64404800  1
  O  605  1  0.55672400  0.40054200  0.42195300  1
  O  606  1  0.69457600  0.62202900  0.64362300  1
  O  607  1  0.52883900  0.64094200  0.42179500  1
  O  653  1  0.09348300  0.67254800  0.97690480  1
  O  654  1  0.90821500  0.50609400  0.75541900  1
  O  655  1  0.99261800  0.36967300  0.97737480  1
  O  656  1  0.17689300  0.53469800  0.75512300  1
  O  702  1  0.64375600  0.97031100  0.31061400  1
  O  703  1  0.66290800  0.15506300  0.08854600  1
  O  704  1  0.44222200  0.07162500  0.31052100  1
  O  705  1  0.42294500  0.88631300  0.08873900  1
