# generated using pymatgen
data_H26C40N7
_symmetry_space_group_name_H-M   'P 1'
_cell_length_a   34.14770000
_cell_length_b   34.14770000
_cell_length_c   68.29540000
_cell_angle_alpha   90.00000000
_cell_angle_beta   90.00000000
_cell_angle_gamma   90.00000000
_symmetry_Int_Tables_number   1
_chemical_formula_structural   H26C40N7
_chemical_formula_sum   'H312 C480 N84'
_cell_volume   79636.90396340
_cell_formula_units_Z   12
loop_
 _symmetry_equiv_pos_site_id
 _symmetry_equiv_pos_as_xyz
  1  'x, y, z'
loop_
 _atom_site_type_symbol
 _atom_site_label
 _atom_site_symmetry_multiplicity
 _atom_site_fract_x
 _atom_site_fract_y
 _atom_site_fract_z
 _atom_site_occupancy
  H  73  1  0.06928100  0.95110300  0.84384400  1
  H  74  1  0.06248900  0.95534400  0.87834600  1
  H  75  1  0.99773300  0.05112200  0.83709100  1
  H  76  1  0.99139900  0.05568600  0.87189600  1
  H  77  1  0.96346400  0.01934700  0.90184700  1
  H  78  1  0.96087900  0.02209600  0.93688700  1
  H  79  1  0.08564800  0.00069400  0.90468300  1
  H  80  1  0.08282000  0.00295500  0.93958900  1
  H  81  1  0.02010000  0.93411500  0.94874000  1
  H  82  1  0.02068600  0.88196600  0.97510100  1
  H  83  1  0.01985000  0.98891600  0.00185200  1
  H  84  1  0.02067100  0.03789700  0.02582900  1
  H  85  1  0.02252300  0.09188900  0.94757600  1
  H  86  1  0.02287800  0.14495400  0.97366600  1
  H  87  1  0.96123000  0.16752900  0.01474700  1
  H  88  1  0.96387400  0.23749900  0.01391900  1
  H  89  1  0.08446000  0.16254600  0.01160400  1
  H  90  1  0.08737300  0.23236800  0.01126400  1
  H  91  1  0.02060500  0.14487900  0.05256100  1
  H  92  1  0.01995000  0.09274100  0.07893600  1
  H  93  1  0.02154300  0.88188600  0.05404900  1
  H  94  1  0.02156400  0.93499400  0.08011800  1
  H  95  1  0.08271600  0.02198300  0.08846400  1
  H  96  1  0.08492200  0.02305700  0.12337700  1
  H  97  1  0.96017600  0.00684700  0.09041300  1
  H  98  1  0.96207300  0.00874400  0.12543300  1
  H  99  1  0.98587600  0.97014700  0.15427800  1
  H  100  1  0.99180600  0.96962000  0.18916400  1
  H  101  1  0.07253700  0.06304200  0.18599200  1
  H  102  1  0.06574900  0.06443200  0.15131000  1
  H  103  1  0.96094000  0.85928500  0.01103000  1
  H  104  1  0.96333000  0.78930600  0.01205200  1
  H  105  1  0.06811800  0.73855000  0.03956500  1
  H  106  1  0.07345300  0.66913400  0.04010800  1
  H  107  1  0.99078100  0.66118900  0.99432400  1
  H  108  1  0.98621000  0.73088100  0.99341400  1
  H  109  1  0.08622900  0.79423200  0.01867300  1
  H  110  1  0.08352600  0.86404900  0.01807300  1
  H  111  1  0.07229900  0.28841500  0.99012500  1
  H  112  1  0.07755200  0.35782500  0.98989200  1
  H  113  1  0.98412500  0.29560100  0.03331700  1
  H  114  1  0.98863700  0.36527800  0.03268200  1
  H  119  1  0.06410900  0.60712700  0.02042300  1
  H  120  1  0.06605000  0.98565300  0.81265200  1
  H  121  1  0.06482600  0.41996100  0.00854600  1
  H  122  1  0.06723500  0.01233700  0.21528700  1
  H  195  1  0.08016800  0.06788900  0.34429300  1
  H  196  1  0.07497300  0.06170300  0.37876300  1
  H  197  1  0.98006600  0.99660000  0.33713800  1
  H  198  1  0.97459800  0.99081300  0.37193700  1
  H  199  1  0.01046300  0.96311300  0.40215700  1
  H  200  1  0.00738200  0.96081100  0.43719500  1
  H  201  1  0.02903700  0.08532500  0.40478100  1
  H  202  1  0.02643600  0.08278700  0.43969300  1
  H  203  1  0.09522500  0.02003200  0.44899900  1
  H  204  1  0.14730500  0.02073000  0.47539100  1
  H  205  1  0.04028500  0.02017400  0.50207500  1
  H  206  1  0.99125000  0.02179100  0.52600300  1
  H  207  1  0.93746300  0.02255500  0.44771700  1
  H  208  1  0.88431700  0.02306300  0.47376700  1
  H  209  1  0.86173600  0.96153200  0.51486800  1
  H  210  1  0.79176000  0.96405300  0.51403200  1
  H  211  1  0.86650300  0.08476500  0.51168700  1
  H  212  1  0.79668000  0.08755600  0.51133900  1
  H  213  1  0.88419700  0.02097600  0.55266400  1
  H  214  1  0.93625600  0.02083900  0.57907000  1
  H  215  1  0.14719100  0.02266400  0.55433300  1
  H  216  1  0.09402100  0.02333100  0.58036100  1
  H  217  1  0.00472000  0.08434200  0.58834400  1
  H  218  1  0.00209100  0.08697400  0.62327200  1
  H  219  1  0.02393900  0.96240400  0.59090600  1
  H  220  1  0.02077000  0.96476800  0.62589600  1
  H  221  1  0.05707800  0.99124400  0.65537500  1
  H  222  1  0.05223000  0.99439800  0.69010800  1
  H  223  1  0.95346400  0.06823400  0.68490500  1
  H  224  1  0.95800000  0.06446000  0.65025400  1
  H  225  1  0.16979100  0.96123000  0.51140500  1
  H  226  1  0.23977800  0.96351700  0.51241700  1
  H  227  1  0.29071700  0.06831500  0.53980300  1
  H  228  1  0.36014100  0.07360300  0.54029100  1
  H  229  1  0.36788700  0.99080400  0.49455300  1
  H  230  1  0.29819000  0.98627400  0.49370200  1
  H  231  1  0.23504700  0.08645800  0.51888000  1
  H  232  1  0.16522500  0.08386500  0.51827900  1
  H  233  1  0.74067300  0.07237400  0.49020400  1
  H  234  1  0.67126000  0.07756400  0.48998500  1
  H  235  1  0.73360100  0.98423600  0.53342100  1
  H  236  1  0.66392200  0.98868400  0.53279700  1
  H  241  1  0.42207800  0.06415100  0.52061000  1
  H  242  1  0.04752900  0.06392300  0.31301400  1
  H  243  1  0.60917400  0.06483200  0.50868900  1
  H  244  1  0.97954200  0.05362900  0.71707600  1
  H  252  1  0.08632900  0.94206300  0.74945400  1
  H  253  1  0.07033900  0.96019300  0.72838000  1
  H  254  1  0.06233000  0.96474400  0.78047400  1
  H  264  1  0.07332400  0.09963700  0.25007700  1
  H  265  1  0.05595300  0.08328500  0.22897700  1
  H  266  1  0.05791300  0.06948600  0.28054700  1
  H  276  1  0.91247700  0.48817300  0.01378700  1
  H  277  1  0.93540700  0.44531500  0.01366700  1
  H  278  1  0.94740800  0.54972100  0.01407100  1
  H  288  1  0.54093200  0.91247700  0.51380900  1
  H  289  1  0.58380200  0.93539200  0.51369900  1
  H  290  1  0.47940000  0.94743400  0.51414100  1
  H  365  1  0.30355700  0.15609500  0.90241300  1
  H  366  1  0.29676500  0.16033600  0.93691500  1
  H  367  1  0.23200900  0.25611400  0.89566000  1
  H  368  1  0.22567500  0.26067800  0.93046500  1
  H  369  1  0.19774000  0.22433900  0.96041600  1
  H  370  1  0.19515500  0.22708800  0.99545600  1
  H  371  1  0.31992400  0.20568600  0.96325200  1
  H  372  1  0.31709600  0.20794700  0.99815800  1
  H  373  1  0.25437600  0.13910700  0.00730910  1
  H  374  1  0.25496200  0.08695780  0.03367010  1
  H  375  1  0.25412600  0.19390800  0.06042110  1
  H  376  1  0.25494700  0.24288900  0.08439810  1
  H  377  1  0.25679900  0.29688100  0.00614510  1
  H  378  1  0.25715400  0.34994600  0.03223510  1
  H  379  1  0.19550600  0.37252100  0.07331610  1
  H  380  1  0.19815000  0.44249100  0.07248810  1
  H  381  1  0.31873600  0.36753800  0.07017310  1
  H  382  1  0.32164900  0.43736000  0.06983310  1
  H  383  1  0.25488100  0.34987100  0.11113000  1
  H  384  1  0.25422600  0.29773300  0.13750500  1
  H  385  1  0.25581900  0.08687780  0.11261800  1
  H  386  1  0.25584000  0.13998600  0.13868700  1
  H  387  1  0.31699200  0.22697500  0.14703300  1
  H  388  1  0.31919800  0.22804900  0.18194600  1
  H  389  1  0.19445200  0.21183900  0.14898200  1
  H  390  1  0.19634900  0.21373600  0.18400200  1
  H  391  1  0.22015200  0.17513900  0.21284700  1
  H  392  1  0.22608200  0.17461200  0.24773300  1
  H  393  1  0.30681300  0.26803400  0.24456100  1
  H  394  1  0.30002500  0.26942400  0.20987900  1
  H  395  1  0.19521600  0.06427680  0.06959910  1
  H  396  1  0.19760600  0.99429800  0.07062110  1
  H  397  1  0.30239400  0.94354200  0.09813410  1
  H  398  1  0.30772900  0.87412600  0.09867710  1
  H  399  1  0.22505700  0.86618100  0.05289310  1
  H  400  1  0.22048600  0.93587300  0.05198310  1
  H  401  1  0.32050500  0.99922400  0.07724210  1
  H  402  1  0.31780200  0.06904080  0.07664210  1
  H  403  1  0.30657500  0.49340700  0.04869410  1
  H  404  1  0.31182800  0.56281700  0.04846110  1
  H  405  1  0.21840100  0.50059300  0.09188610  1
  H  406  1  0.22291300  0.57027000  0.09125110  1
  H  411  1  0.29838500  0.81211900  0.07899210  1
  H  412  1  0.30032600  0.19064500  0.87122100  1
  H  413  1  0.29910200  0.62495300  0.06711510  1
  H  414  1  0.30151100  0.21732900  0.27385600  1
  H  487  1  0.31444400  0.27288100  0.40286200  1
  H  488  1  0.30924900  0.26669500  0.43733200  1
  H  489  1  0.21434200  0.20159200  0.39570700  1
  H  490  1  0.20887400  0.19580500  0.43050600  1
  H  491  1  0.24473900  0.16810500  0.46072600  1
  H  492  1  0.24165800  0.16580300  0.49576400  1
  H  493  1  0.26331300  0.29031700  0.46335000  1
  H  494  1  0.26071200  0.28777900  0.49826200  1
  H  495  1  0.32950100  0.22502400  0.50756800  1
  H  496  1  0.38158100  0.22572200  0.53396000  1
  H  497  1  0.27456100  0.22516600  0.56064400  1
  H  498  1  0.22552600  0.22678300  0.58457200  1
  H  499  1  0.17173900  0.22754700  0.50628600  1
  H  500  1  0.11859300  0.22805500  0.53233600  1
  H  501  1  0.09601240  0.16652400  0.57343700  1
  H  502  1  0.02603640  0.16904500  0.57260100  1
  H  503  1  0.10077900  0.28975700  0.57025600  1
  H  504  1  0.03095640  0.29254800  0.56990800  1
  H  505  1  0.11847300  0.22596800  0.61123300  1
  H  506  1  0.17053200  0.22583100  0.63763900  1
  H  507  1  0.38146700  0.22765600  0.61290200  1
  H  508  1  0.32829700  0.22832300  0.63893000  1
  H  509  1  0.23899600  0.28933400  0.64691300  1
  H  510  1  0.23636700  0.29196600  0.68184100  1
  H  511  1  0.25821500  0.16739600  0.64947500  1
  H  512  1  0.25504600  0.16976000  0.68446500  1
  H  513  1  0.29135400  0.19623600  0.71394400  1
  H  514  1  0.28650600  0.19939000  0.74867700  1
  H  515  1  0.18774000  0.27322600  0.74347400  1
  H  516  1  0.19227600  0.26945200  0.70882300  1
  H  517  1  0.40406700  0.16622200  0.56997400  1
  H  518  1  0.47405400  0.16850900  0.57098600  1
  H  519  1  0.52499300  0.27330700  0.59837200  1
  H  520  1  0.59441700  0.27859500  0.59886000  1
  H  521  1  0.60216300  0.19579600  0.55312200  1
  H  522  1  0.53246600  0.19126600  0.55227100  1
  H  523  1  0.46932300  0.29145000  0.57744900  1
  H  524  1  0.39950100  0.28885700  0.57684800  1
  H  525  1  0.97494900  0.27736600  0.54877300  1
  H  526  1  0.90553600  0.28255600  0.54855400  1
  H  527  1  0.96787700  0.18922800  0.59199000  1
  H  528  1  0.89819800  0.19367600  0.59136600  1
  H  533  1  0.65635400  0.26914300  0.57917900  1
  H  534  1  0.28180500  0.26891500  0.37158300  1
  H  535  1  0.84345000  0.26982400  0.56725800  1
  H  536  1  0.21381800  0.25862100  0.77564500  1
  H  544  1  0.32060500  0.14705500  0.80802300  1
  H  545  1  0.30461500  0.16518500  0.78694900  1
  H  546  1  0.29660600  0.16973600  0.83904300  1
  H  556  1  0.30760000  0.30462900  0.30864600  1
  H  557  1  0.29022900  0.28827700  0.28754600  1
  H  558  1  0.29218900  0.27447800  0.33911600  1
  H  568  1  0.14675300  0.69316500  0.07235610  1
  H  569  1  0.16968300  0.65030700  0.07223610  1
  H  570  1  0.18168400  0.75471300  0.07264010  1
  H  580  1  0.77520800  0.11746900  0.57237800  1
  H  581  1  0.81807800  0.14038400  0.57226800  1
  H  582  1  0.71367600  0.15242600  0.57271000  1
  H  657  1  0.53783400  0.36108700  0.96098200  1
  H  658  1  0.53104200  0.36532800  0.99548400  1
  H  659  1  0.46628600  0.46110600  0.95422900  1
  H  660  1  0.45995200  0.46567000  0.98903400  1
  H  661  1  0.43201700  0.42933100  0.01898520  1
  H  662  1  0.42943200  0.43208000  0.05402520  1
  H  663  1  0.55420100  0.41067800  0.02182120  1
  H  664  1  0.55137300  0.41293900  0.05672720  1
  H  665  1  0.48865300  0.34409900  0.06587820  1
  H  666  1  0.48923900  0.29195000  0.09223920  1
  H  667  1  0.48840300  0.39890000  0.11899000  1
  H  668  1  0.48922400  0.44788100  0.14296700  1
  H  669  1  0.49107600  0.50187300  0.06471420  1
  H  670  1  0.49143100  0.55493800  0.09080420  1
  H  671  1  0.42978300  0.57751300  0.13188500  1
  H  672  1  0.43242700  0.64748300  0.13105700  1
  H  673  1  0.55301300  0.57253000  0.12874200  1
  H  674  1  0.55592600  0.64235200  0.12840200  1
  H  675  1  0.48915800  0.55486300  0.16969900  1
  H  676  1  0.48850300  0.50272500  0.19607400  1
  H  677  1  0.49009600  0.29187000  0.17118700  1
  H  678  1  0.49011700  0.34497800  0.19725600  1
  H  679  1  0.55126900  0.43196700  0.20560200  1
  H  680  1  0.55347500  0.43304100  0.24051500  1
  H  681  1  0.42872900  0.41683100  0.20755100  1
  H  682  1  0.43062600  0.41872800  0.24257100  1
  H  683  1  0.45442900  0.38013100  0.27141600  1
  H  684  1  0.46035900  0.37960400  0.30630200  1
  H  685  1  0.54109000  0.47302600  0.30313000  1
  H  686  1  0.53430200  0.47441600  0.26844800  1
  H  687  1  0.42949300  0.26926900  0.12816800  1
  H  688  1  0.43188300  0.19929000  0.12919000  1
  H  689  1  0.53667100  0.14853400  0.15670300  1
  H  690  1  0.54200600  0.07911770  0.15724600  1
  H  691  1  0.45933400  0.07117270  0.11146200  1
  H  692  1  0.45476300  0.14086500  0.11055200  1
  H  693  1  0.55478200  0.20421600  0.13581100  1
  H  694  1  0.55207900  0.27403300  0.13521100  1
  H  695  1  0.54085200  0.69839900  0.10726300  1
  H  696  1  0.54610500  0.76780900  0.10703000  1
  H  697  1  0.45267800  0.70558500  0.15045500  1
  H  698  1  0.45719000  0.77526200  0.14982000  1
  H  703  1  0.53266200  0.01711070  0.13756100  1
  H  704  1  0.53460300  0.39563700  0.92979000  1
  H  705  1  0.53337900  0.82994500  0.12568400  1
  H  706  1  0.53578800  0.42232100  0.33242500  1
  H  779  1  0.54872100  0.47787300  0.46143100  1
  H  780  1  0.54352600  0.47168700  0.49590100  1
  H  781  1  0.44861900  0.40658400  0.45427600  1
  H  782  1  0.44315100  0.40079700  0.48907500  1
  H  783  1  0.47901600  0.37309700  0.51929500  1
  H  784  1  0.47593500  0.37079500  0.55433300  1
  H  785  1  0.49759000  0.49530900  0.52191900  1
  H  786  1  0.49498900  0.49277100  0.55683100  1
  H  787  1  0.56377800  0.43001600  0.56613700  1
  H  788  1  0.61585800  0.43071400  0.59252900  1
  H  789  1  0.50883800  0.43015800  0.61921300  1
  H  790  1  0.45980300  0.43177500  0.64314100  1
  H  791  1  0.40601600  0.43253900  0.56485500  1
  H  792  1  0.35287000  0.43304700  0.59090500  1
  H  793  1  0.33028900  0.37151600  0.63200600  1
  H  794  1  0.26031300  0.37403700  0.63117000  1
  H  795  1  0.33505600  0.49474900  0.62882500  1
  H  796  1  0.26523300  0.49754000  0.62847700  1
  H  797  1  0.35275000  0.43096000  0.66980200  1
  H  798  1  0.40480900  0.43082300  0.69620800  1
  H  799  1  0.61574400  0.43264800  0.67147100  1
  H  800  1  0.56257400  0.43331500  0.69749900  1
  H  801  1  0.47327300  0.49432600  0.70548200  1
  H  802  1  0.47064400  0.49695800  0.74041000  1
  H  803  1  0.49249200  0.37238800  0.70804400  1
  H  804  1  0.48932300  0.37475200  0.74303400  1
  H  805  1  0.52563100  0.40122800  0.77251300  1
  H  806  1  0.52078300  0.40438200  0.80724600  1
  H  807  1  0.42201700  0.47821800  0.80204300  1
  H  808  1  0.42655300  0.47444400  0.76739200  1
  H  809  1  0.63834400  0.37121400  0.62854300  1
  H  810  1  0.70833100  0.37350100  0.62955500  1
  H  811  1  0.75927000  0.47829900  0.65694100  1
  H  812  1  0.82869400  0.48358700  0.65742900  1
  H  813  1  0.83644000  0.40078800  0.61169100  1
  H  814  1  0.76674300  0.39625800  0.61084000  1
  H  815  1  0.70360000  0.49644200  0.63601800  1
  H  816  1  0.63377800  0.49384900  0.63541700  1
  H  817  1  0.20922600  0.48235800  0.60734200  1
  H  818  1  0.13981300  0.48754800  0.60712300  1
  H  819  1  0.20215400  0.39422000  0.65055900  1
  H  820  1  0.13247500  0.39866800  0.64993500  1
  H  825  1  0.89063100  0.47413500  0.63774800  1
  H  826  1  0.51608200  0.47390700  0.43015200  1
  H  827  1  0.07772680  0.47481600  0.62582700  1
  H  828  1  0.44809500  0.46361300  0.83421400  1
  H  836  1  0.55488200  0.35204700  0.86659200  1
  H  837  1  0.53889200  0.37017700  0.84551800  1
  H  838  1  0.53088300  0.37472800  0.89761200  1
  H  848  1  0.54187700  0.50962100  0.36721500  1
  H  849  1  0.52450600  0.49326900  0.34611500  1
  H  850  1  0.52646600  0.47947000  0.39768500  1
  H  860  1  0.38103000  0.89815700  0.13092500  1
  H  861  1  0.40396000  0.85529900  0.13080500  1
  H  862  1  0.41596100  0.95970500  0.13120900  1
  H  872  1  0.00948479  0.32246100  0.63094700  1
  H  873  1  0.05235480  0.34537600  0.63083700  1
  H  874  1  0.94795300  0.35741800  0.63127900  1
  C  1  1  0.01996500  0.93986100  0.96342600  1
  C  2  1  0.02028300  0.91140200  0.97779900  1
  C  3  1  0.02011400  0.92993700  0.99603900  1
  C  5  1  0.01993000  0.97657500  0.97248600  1
  C  6  1  0.02017100  0.01318400  0.96244100  1
  C  7  1  0.02048800  0.05043900  0.97173600  1
  C  9  1  0.02104600  0.09732900  0.99478100  1
  C  10  1  0.02198300  0.11557300  0.97648400  1
  C  11  1  0.02172800  0.08673300  0.96231100  1
  C  12  1  0.02110100  0.11654800  0.01324700  1
  C  13  1  0.02054800  0.09687000  0.03164100  1
  C  15  1  0.02020000  0.05028000  0.05519200  1
  C  16  1  0.02009000  0.08699300  0.06425000  1
  C  17  1  0.02043500  0.11543500  0.04987300  1
  C  18  1  0.02026000  0.01369000  0.06523400  1
  C  19  1  0.02036500  0.97642300  0.05594200  1
  C  21  1  0.02061800  0.92948300  0.03290000  1
  C  22  1  0.02112900  0.91127100  0.05121200  1
  C  23  1  0.02108300  0.94013000  0.06537800  1
  C  24  1  0.02060700  0.91022800  0.01443400  1
  C  25  1  0.02199200  0.86831600  0.01445200  1
  C  26  1  0.05801700  0.84852800  0.01671900  1
  C  27  1  0.05942800  0.80731300  0.01724900  1
  C  28  1  0.02502000  0.78428100  0.01552700  1
  C  29  1  0.98908000  0.80449300  0.01303000  1
  C  30  1  0.98751300  0.84576100  0.01257000  1
  C  31  1  0.02670700  0.74221700  0.01636800  1
  C  32  1  0.00410300  0.71836400  0.00366900  1
  C  33  1  0.00687600  0.67713800  0.00413900  1
  C  34  1  0.03236400  0.65805600  0.01740400  1
  C  35  1  0.05464200  0.68169400  0.03025500  1
  C  36  1  0.05170000  0.72282500  0.02980600  1
  C  37  1  0.02123900  0.01436400  0.08615700  1
  C  38  1  0.05710900  0.01920600  0.09613800  1
  C  39  1  0.05821900  0.02018500  0.11673600  1
  C  40  1  0.02366000  0.01632800  0.12810000  1
  C  41  1  0.98786400  0.01116300  0.11790600  1
  C  42  1  0.98659900  0.01030200  0.09727800  1
  C  43  1  0.02520000  0.01732000  0.14910500  1
  C  44  1  0.04985400  0.04421100  0.15899700  1
  C  45  1  0.05364300  0.04366600  0.17951300  1
  C  46  1  0.03244800  0.01649000  0.19096200  1
  C  47  1  0.00691700  0.99024500  0.18133400  1
  C  48  1  0.00336500  0.99074000  0.16075200  1
  C  49  1  0.02257900  0.15842800  0.01324700  1
  C  50  1  0.98796700  0.18101400  0.01405900  1
  C  51  1  0.98966800  0.22227200  0.01372500  1
  C  52  1  0.02590100  0.24242700  0.01245500  1
  C  53  1  0.06041700  0.21933600  0.01176800  1
  C  54  1  0.05886500  0.17812100  0.01215700  1
  C  55  1  0.02775200  0.28449600  0.01181000  1
  C  56  1  0.05455800  0.30402900  0.99933400  1
  C  57  1  0.05747500  0.34516800  0.99906600  1
  C  58  1  0.03340500  0.36868400  0.01114500  1
  C  59  1  0.00615800  0.34944400  0.02344800  1
  C  60  1  0.00340300  0.30821400  0.02374000  1
  C  61  1  0.02155700  0.01256600  0.94152000  1
  C  62  1  0.98733100  0.01775900  0.93018100  1
  C  63  1  0.05750300  0.00657700  0.93176200  1
  C  64  1  0.05899900  0.00501600  0.91118700  1
  C  65  1  0.02477500  0.00953500  0.89964800  1
  C  66  1  0.98898900  0.01645800  0.90955900  1
  C  67  1  0.02653000  0.00619100  0.87874300  1
  C  68  1  0.00721000  0.03296200  0.86616200  1
  C  69  1  0.01099900  0.03033600  0.84561000  1
  C  70  1  0.03408200  0.00062100  0.83690100  1
  C  71  1  0.05239400  0.97321000  0.84946600  1
  C  72  1  0.04862700  0.97589300  0.86991600  1
  C  115  1  0.03753700  0.61758800  0.01746900  1
  C  116  1  0.03947400  0.01438100  0.21089800  1
  C  117  1  0.03824600  0.40921300  0.01119200  1
  C  118  1  0.04123500  0.99839500  0.81684300  1
  C  123  1  0.08944100  0.01999000  0.46368100  1
  C  124  1  0.11786100  0.02035400  0.47807200  1
  C  125  1  0.09927900  0.02034400  0.49630000  1
  C  127  1  0.05270300  0.02005600  0.47271500  1
  C  128  1  0.01612200  0.02028100  0.46264600  1
  C  129  1  0.97883900  0.02064700  0.47191000  1
  C  131  1  0.93188100  0.02134300  0.49491900  1
  C  132  1  0.91368900  0.02214600  0.47660700  1
  C  133  1  0.94257300  0.02184500  0.46245700  1
  C  134  1  0.91261800  0.02150700  0.51337100  1
  C  135  1  0.93226200  0.02117800  0.53177500  1
  C  137  1  0.97879500  0.02133700  0.55535600  1
  C  138  1  0.94205400  0.02099500  0.56438800  1
  C  139  1  0.91364800  0.02103300  0.54999400  1
  C  140  1  0.01536100  0.02172400  0.56542900  1
  C  141  1  0.05265400  0.02162800  0.55616500  1
  C  143  1  0.09964800  0.02134400  0.53315700  1
  C  144  1  0.11781500  0.02219900  0.55147800  1
  C  145  1  0.08891800  0.02252200  0.56562200  1
  C  146  1  0.11894600  0.02100400  0.51470400  1
  C  147  1  0.16086100  0.02231800  0.51474200  1
  C  148  1  0.18070300  0.05832400  0.51696300  1
  C  149  1  0.22192000  0.05967000  0.51749400  1
  C  150  1  0.24489300  0.02521600  0.51581600  1
  C  151  1  0.22462700  0.98929000  0.51337900  1
  C  152  1  0.18335800  0.98779100  0.51290700  1
  C  153  1  0.28695700  0.02684800  0.51663600  1
  C  154  1  0.31075000  0.00419600  0.50393300  1
  C  155  1  0.35198000  0.00693700  0.50436900  1
  C  156  1  0.37111700  0.03245900  0.51759700  1
  C  157  1  0.34753700  0.05477000  0.53046200  1
  C  158  1  0.30640400  0.05185800  0.53004600  1
  C  159  1  0.01460000  0.02313500  0.58634700  1
  C  160  1  0.00830200  0.05899300  0.59614700  1
  C  161  1  0.00647500  0.06037600  0.61673000  1
  C  162  1  0.01104600  0.02611000  0.62822400  1
  C  163  1  0.01797000  0.99037700  0.61824400  1
  C  164  1  0.01954800  0.98882800  0.59763600  1
  C  165  1  0.00814400  0.02762100  0.64915900  1
  C  166  1  0.97842000  0.04982100  0.65842200  1
  C  167  1  0.97556800  0.05180200  0.67896200  1
  C  168  1  0.00233700  0.03170700  0.69119900  1
  C  169  1  0.03198500  0.00928900  0.68194800  1
  C  170  1  0.03473800  0.00721600  0.66137200  1
  C  171  1  0.87073200  0.02289400  0.51334500  1
  C  172  1  0.84820600  0.98824200  0.51417400  1
  C  173  1  0.80694100  0.98987300  0.51383100  1
  C  174  1  0.78672300  0.02606900  0.51255000  1
  C  175  1  0.80975600  0.06062300  0.51185900  1
  C  176  1  0.85097400  0.05914300  0.51224500  1
  C  177  1  0.74465300  0.02785200  0.51190100  1
  C  178  1  0.72508200  0.05462000  0.49941700  1
  C  179  1  0.68394100  0.05749900  0.49915700  1
  C  180  1  0.66045700  0.03341800  0.51124500  1
  C  181  1  0.67972900  0.00618200  0.52354200  1
  C  182  1  0.72096500  0.00349100  0.52384000  1
  C  183  1  0.01680800  0.02154000  0.44172400  1
  C  184  1  0.01171400  0.98722300  0.43044500  1
  C  185  1  0.02285800  0.05741300  0.43190900  1
  C  186  1  0.02461200  0.05874000  0.41133400  1
  C  187  1  0.02023700  0.02441000  0.39985700  1
  C  188  1  0.01324500  0.98870500  0.40982400  1
  C  189  1  0.02400300  0.02591700  0.37896700  1
  C  190  1  0.99751100  0.00647200  0.36628500  1
  C  191  1  0.00067900  0.00992400  0.34573500  1
  C  192  1  0.03072900  0.03272000  0.33712200  1
  C  193  1  0.05785500  0.05114000  0.34981400  1
  C  194  1  0.05460000  0.04776900  0.37025800  1
  C  237  1  0.41159100  0.03760300  0.51762800  1
  C  238  1  0.99887500  0.03482200  0.71154300  1
  C  239  1  0.61992700  0.03824500  0.51130800  1
  C  240  1  0.03342700  0.03980100  0.31705800  1
  C  245  1  0.02073900  0.01023800  0.78401900  1
  C  246  1  0.04509400  0.98452300  0.77327300  1
  C  247  1  0.04549200  0.98531100  0.75255700  1
  C  248  1  0.02044400  0.01237300  0.74299000  1
  C  257  1  0.01986600  0.02092500  0.28403700  1
  C  258  1  0.04125000  0.04926000  0.27334800  1
  C  259  1  0.03935500  0.05070900  0.25267000  1
  C  260  1  0.01647300  0.02179500  0.24300500  1
  C  269  1  0.00898400  0.55432100  0.01442400  1
  C  270  1  0.97302300  0.53412100  0.01408900  1
  C  271  1  0.97208900  0.49262200  0.01394900  1
  C  272  1  0.00836100  0.47226000  0.01391300  1
  C  281  1  0.47482500  0.00901400  0.51455100  1
  C  282  1  0.49501100  0.97304000  0.51417900  1
  C  283  1  0.53650700  0.97209200  0.51402900  1
  C  284  1  0.55688700  0.00835500  0.51402100  1
  C  293  1  0.25424100  0.14485300  0.02199510  1
  C  294  1  0.25455900  0.11639400  0.03636810  1
  C  295  1  0.25439000  0.13492900  0.05460810  1
  C  297  1  0.25420600  0.18156700  0.03105510  1
  C  298  1  0.25444700  0.21817600  0.02101010  1
  C  299  1  0.25476400  0.25543100  0.03030510  1
  C  301  1  0.25532200  0.30232100  0.05335010  1
  C  302  1  0.25625900  0.32056500  0.03505310  1
  C  303  1  0.25600400  0.29172500  0.02088010  1
  C  304  1  0.25537700  0.32154000  0.07181610  1
  C  305  1  0.25482400  0.30186200  0.09021010  1
  C  307  1  0.25447600  0.25527200  0.11376100  1
  C  308  1  0.25436600  0.29198500  0.12281900  1
  C  309  1  0.25471100  0.32042700  0.10844200  1
  C  310  1  0.25453600  0.21868200  0.12380300  1
  C  311  1  0.25464100  0.18141500  0.11451100  1
  C  313  1  0.25489400  0.13447500  0.09146910  1
  C  314  1  0.25540500  0.11626300  0.10978100  1
  C  315  1  0.25535900  0.14512200  0.12394700  1
  C  316  1  0.25488300  0.11522000  0.07300310  1
  C  317  1  0.25626800  0.07330780  0.07302110  1
  C  318  1  0.29229300  0.05351980  0.07528810  1
  C  319  1  0.29370400  0.01230480  0.07581810  1
  C  320  1  0.25929600  0.98927300  0.07409610  1
  C  321  1  0.22335600  0.00948484  0.07159910  1
  C  322  1  0.22178900  0.05075280  0.07113910  1
  C  323  1  0.26098300  0.94720900  0.07493710  1
  C  324  1  0.23837900  0.92335600  0.06223810  1
  C  325  1  0.24115200  0.88213000  0.06270810  1
  C  326  1  0.26664000  0.86304800  0.07597310  1
  C  327  1  0.28891800  0.88668600  0.08882410  1
  C  328  1  0.28597600  0.92781700  0.08837510  1
  C  329  1  0.25551500  0.21935600  0.14472600  1
  C  330  1  0.29138500  0.22419800  0.15470700  1
  C  331  1  0.29249500  0.22517700  0.17530500  1
  C  332  1  0.25793600  0.22132000  0.18666900  1
  C  333  1  0.22214000  0.21615500  0.17647500  1
  C  334  1  0.22087500  0.21529400  0.15584700  1
  C  335  1  0.25947600  0.22231200  0.20767400  1
  C  336  1  0.28413000  0.24920300  0.21756600  1
  C  337  1  0.28791900  0.24865800  0.23808200  1
  C  338  1  0.26672400  0.22148200  0.24953100  1
  C  339  1  0.24119300  0.19523700  0.23990300  1
  C  340  1  0.23764100  0.19573200  0.21932100  1
  C  341  1  0.25685500  0.36342000  0.07181610  1
  C  342  1  0.22224300  0.38600600  0.07262810  1
  C  343  1  0.22394400  0.42726400  0.07229410  1
  C  344  1  0.26017700  0.44741900  0.07102410  1
  C  345  1  0.29469300  0.42432800  0.07033710  1
  C  346  1  0.29314100  0.38311300  0.07072610  1
  C  347  1  0.26202800  0.48948800  0.07037910  1
  C  348  1  0.28883400  0.50902100  0.05790310  1
  C  349  1  0.29175100  0.55016000  0.05763510  1
  C  350  1  0.26768100  0.57367600  0.06971410  1
  C  351  1  0.24043400  0.55443600  0.08201710  1
  C  352  1  0.23767900  0.51320600  0.08230910  1
  C  353  1  0.25583300  0.21755800  0.00008910  1
  C  354  1  0.22160700  0.22275100  0.98875000  1
  C  355  1  0.29177900  0.21156900  0.99033100  1
  C  356  1  0.29327500  0.21000800  0.96975600  1
  C  357  1  0.25905100  0.21452700  0.95821700  1
  C  358  1  0.22326500  0.22145000  0.96812800  1
  C  359  1  0.26080600  0.21118300  0.93731200  1
  C  360  1  0.24148600  0.23795400  0.92473100  1
  C  361  1  0.24527500  0.23532800  0.90417900  1
  C  362  1  0.26835800  0.20561300  0.89547000  1
  C  363  1  0.28667000  0.17820200  0.90803500  1
  C  364  1  0.28290300  0.18088500  0.92848500  1
  C  407  1  0.27181300  0.82258000  0.07603810  1
  C  408  1  0.27375000  0.21937300  0.26946700  1
  C  409  1  0.27252200  0.61420500  0.06976110  1
  C  410  1  0.27551100  0.20338700  0.87541200  1
  C  415  1  0.32371700  0.22498200  0.52225000  1
  C  416  1  0.35213700  0.22534600  0.53664100  1
  C  417  1  0.33355500  0.22533600  0.55486900  1
  C  419  1  0.28697900  0.22504800  0.53128400  1
  C  420  1  0.25039800  0.22527300  0.52121500  1
  C  421  1  0.21311500  0.22563900  0.53047900  1
  C  423  1  0.16615700  0.22633500  0.55348800  1
  C  424  1  0.14796500  0.22713800  0.53517600  1
  C  425  1  0.17684900  0.22683700  0.52102600  1
  C  426  1  0.14689400  0.22649900  0.57194000  1
  C  427  1  0.16653800  0.22617000  0.59034400  1
  C  429  1  0.21307100  0.22632900  0.61392500  1
  C  430  1  0.17633000  0.22598700  0.62295700  1
  C  431  1  0.14792400  0.22602500  0.60856300  1
  C  432  1  0.24963700  0.22671600  0.62399800  1
  C  433  1  0.28693000  0.22662000  0.61473400  1
  C  435  1  0.33392400  0.22633600  0.59172600  1
  C  436  1  0.35209100  0.22719100  0.61004700  1
  C  437  1  0.32319400  0.22751400  0.62419100  1
  C  438  1  0.35322200  0.22599600  0.57327300  1
  C  439  1  0.39513700  0.22731000  0.57331100  1
  C  440  1  0.41497900  0.26331600  0.57553200  1
  C  441  1  0.45619600  0.26466200  0.57606300  1
  C  442  1  0.47916900  0.23020800  0.57438500  1
  C  443  1  0.45890300  0.19428200  0.57194800  1
  C  444  1  0.41763400  0.19278300  0.57147600  1
  C  445  1  0.52123300  0.23184000  0.57520500  1
  C  446  1  0.54502600  0.20918800  0.56250200  1
  C  447  1  0.58625600  0.21192900  0.56293800  1
  C  448  1  0.60539300  0.23745100  0.57616600  1
  C  449  1  0.58181300  0.25976200  0.58903100  1
  C  450  1  0.54068000  0.25685000  0.58861500  1
  C  451  1  0.24887600  0.22812700  0.64491600  1
  C  452  1  0.24257800  0.26398500  0.65471600  1
  C  453  1  0.24075100  0.26536800  0.67529900  1
  C  454  1  0.24532200  0.23110200  0.68679300  1
  C  455  1  0.25224600  0.19536900  0.67681300  1
  C  456  1  0.25382400  0.19382000  0.65620500  1
  C  457  1  0.24242000  0.23261300  0.70772800  1
  C  458  1  0.21269600  0.25481300  0.71699100  1
  C  459  1  0.20984400  0.25679400  0.73753100  1
  C  460  1  0.23661300  0.23669900  0.74976800  1
  C  461  1  0.26626100  0.21428100  0.74051700  1
  C  462  1  0.26901400  0.21220800  0.71994100  1
  C  463  1  0.10500800  0.22788600  0.57191400  1
  C  464  1  0.08248240  0.19323400  0.57274300  1
  C  465  1  0.04121740  0.19486500  0.57240000  1
  C  466  1  0.02099940  0.23106100  0.57111900  1
  C  467  1  0.04403240  0.26561500  0.57042800  1
  C  468  1  0.08525040  0.26413500  0.57081400  1
  C  469  1  0.97892900  0.23284400  0.57047000  1
  C  470  1  0.95935800  0.25961200  0.55798600  1
  C  471  1  0.91821700  0.26249100  0.55772600  1
  C  472  1  0.89473300  0.23841000  0.56981400  1
  C  473  1  0.91400500  0.21117400  0.58211100  1
  C  474  1  0.95524100  0.20848300  0.58240900  1
  C  475  1  0.25108400  0.22653200  0.50029300  1
  C  476  1  0.24599000  0.19221500  0.48901400  1
  C  477  1  0.25713400  0.26240500  0.49047800  1
  C  478  1  0.25888800  0.26373200  0.46990300  1
  C  479  1  0.25451300  0.22940200  0.45842600  1
  C  480  1  0.24752100  0.19369700  0.46839300  1
  C  481  1  0.25827900  0.23090900  0.43753600  1
  C  482  1  0.23178700  0.21146400  0.42485400  1
  C  483  1  0.23495500  0.21491600  0.40430400  1
  C  484  1  0.26500500  0.23771200  0.39569100  1
  C  485  1  0.29213100  0.25613200  0.40838300  1
  C  486  1  0.28887600  0.25276100  0.42882700  1
  C  529  1  0.64586700  0.24259500  0.57619700  1
  C  530  1  0.23315100  0.23981400  0.77011200  1
  C  531  1  0.85420300  0.24323700  0.56987700  1
  C  532  1  0.26770300  0.24479300  0.37562700  1
  C  537  1  0.25501500  0.21523000  0.84258800  1
  C  538  1  0.27937000  0.18951500  0.83184200  1
  C  539  1  0.27976800  0.19030300  0.81112600  1
  C  540  1  0.25472000  0.21736500  0.80155900  1
  C  549  1  0.25414200  0.22591700  0.34260600  1
  C  550  1  0.27552600  0.25425200  0.33191700  1
  C  551  1  0.27363100  0.25570100  0.31123900  1
  C  552  1  0.25074900  0.22678700  0.30157400  1
  C  561  1  0.24326000  0.75931300  0.07299310  1
  C  562  1  0.20729900  0.73911300  0.07265810  1
  C  563  1  0.20636500  0.69761400  0.07251810  1
  C  564  1  0.24263700  0.67725200  0.07248210  1
  C  573  1  0.70910100  0.21400600  0.57312000  1
  C  574  1  0.72928700  0.17803200  0.57274800  1
  C  575  1  0.77078300  0.17708400  0.57259800  1
  C  576  1  0.79116300  0.21334700  0.57259000  1
  C  585  1  0.48851800  0.34984500  0.08056420  1
  C  586  1  0.48883600  0.32138600  0.09493720  1
  C  587  1  0.48866700  0.33992100  0.11317700  1
  C  589  1  0.48848300  0.38655900  0.08962420  1
  C  590  1  0.48872400  0.42316800  0.07957920  1
  C  591  1  0.48904100  0.46042300  0.08887420  1
  C  593  1  0.48959900  0.50731300  0.11191900  1
  C  594  1  0.49053600  0.52555700  0.09362220  1
  C  595  1  0.49028100  0.49671700  0.07944920  1
  C  596  1  0.48965400  0.52653200  0.13038500  1
  C  597  1  0.48910100  0.50685400  0.14877900  1
  C  599  1  0.48875300  0.46026400  0.17233000  1
  C  600  1  0.48864300  0.49697700  0.18138800  1
  C  601  1  0.48898800  0.52541900  0.16701100  1
  C  602  1  0.48881300  0.42367400  0.18237200  1
  C  603  1  0.48891800  0.38640700  0.17308000  1
  C  605  1  0.48917100  0.33946700  0.15003800  1
  C  606  1  0.48968200  0.32125500  0.16835000  1
  C  607  1  0.48963600  0.35011400  0.18251600  1
  C  608  1  0.48916000  0.32021200  0.13157200  1
  C  609  1  0.49054500  0.27830000  0.13159000  1
  C  610  1  0.52657000  0.25851200  0.13385700  1
  C  611  1  0.52798100  0.21729700  0.13438700  1
  C  612  1  0.49357300  0.19426500  0.13266500  1
  C  613  1  0.45763300  0.21447700  0.13016800  1
  C  614  1  0.45606600  0.25574500  0.12970800  1
  C  615  1  0.49526000  0.15220100  0.13350600  1
  C  616  1  0.47265600  0.12834800  0.12080700  1
  C  617  1  0.47542900  0.08712170  0.12127700  1
  C  618  1  0.50091700  0.06803970  0.13454200  1
  C  619  1  0.52319500  0.09167770  0.14739300  1
  C  620  1  0.52025300  0.13280900  0.14694400  1
  C  621  1  0.48979200  0.42434800  0.20329500  1
  C  622  1  0.52566200  0.42919000  0.21327600  1
  C  623  1  0.52677200  0.43016900  0.23387400  1
  C  624  1  0.49221300  0.42631200  0.24523800  1
  C  625  1  0.45641700  0.42114700  0.23504400  1
  C  626  1  0.45515200  0.42028600  0.21441600  1
  C  627  1  0.49375300  0.42730400  0.26624300  1
  C  628  1  0.51840700  0.45419500  0.27613500  1
  C  629  1  0.52219600  0.45365000  0.29665100  1
  C  630  1  0.50100100  0.42647400  0.30810000  1
  C  631  1  0.47547000  0.40022900  0.29847200  1
  C  632  1  0.47191800  0.40072400  0.27789000  1
  C  633  1  0.49113200  0.56841200  0.13038500  1
  C  634  1  0.45652000  0.59099800  0.13119700  1
  C  635  1  0.45822100  0.63225600  0.13086300  1
  C  636  1  0.49445400  0.65241100  0.12959300  1
  C  637  1  0.52897000  0.62932000  0.12890600  1
  C  638  1  0.52741800  0.58810500  0.12929500  1
  C  639  1  0.49630500  0.69448000  0.12894800  1
  C  640  1  0.52311100  0.71401300  0.11647200  1
  C  641  1  0.52602800  0.75515200  0.11620400  1
  C  642  1  0.50195800  0.77866800  0.12828300  1
  C  643  1  0.47471100  0.75942800  0.14058600  1
  C  644  1  0.47195600  0.71819800  0.14087800  1
  C  645  1  0.49011000  0.42255000  0.05865820  1
  C  646  1  0.45588400  0.42774300  0.04731920  1
  C  647  1  0.52605600  0.41656100  0.04890020  1
  C  648  1  0.52755200  0.41500000  0.02832520  1
  C  649  1  0.49332800  0.41951900  0.01678620  1
  C  650  1  0.45754200  0.42644200  0.02669720  1
  C  651  1  0.49508300  0.41617500  0.99588100  1
  C  652  1  0.47576300  0.44294600  0.98330000  1
  C  653  1  0.47955200  0.44032000  0.96274800  1
  C  654  1  0.50263500  0.41060500  0.95403900  1
  C  655  1  0.52094700  0.38319400  0.96660400  1
  C  656  1  0.51718000  0.38587700  0.98705400  1
  C  699  1  0.50609000  0.02757170  0.13460700  1
  C  700  1  0.50802700  0.42436500  0.32803600  1
  C  701  1  0.50679900  0.81919700  0.12833000  1
  C  702  1  0.50978800  0.40837900  0.93398100  1
  C  707  1  0.55799400  0.42997400  0.58081900  1
  C  708  1  0.58641400  0.43033800  0.59521000  1
  C  709  1  0.56783200  0.43032800  0.61343800  1
  C  711  1  0.52125600  0.43004000  0.58985300  1
  C  712  1  0.48467500  0.43026500  0.57978400  1
  C  713  1  0.44739200  0.43063100  0.58904800  1
  C  715  1  0.40043400  0.43132700  0.61205700  1
  C  716  1  0.38224200  0.43213000  0.59374500  1
  C  717  1  0.41112600  0.43182900  0.57959500  1
  C  718  1  0.38117100  0.43149100  0.63050900  1
  C  719  1  0.40081500  0.43116200  0.64891300  1
  C  721  1  0.44734800  0.43132100  0.67249400  1
  C  722  1  0.41060700  0.43097900  0.68152600  1
  C  723  1  0.38220100  0.43101700  0.66713200  1
  C  724  1  0.48391400  0.43170800  0.68256700  1
  C  725  1  0.52120700  0.43161200  0.67330300  1
  C  727  1  0.56820100  0.43132800  0.65029500  1
  C  728  1  0.58636800  0.43218300  0.66861600  1
  C  729  1  0.55747100  0.43250600  0.68276000  1
  C  730  1  0.58749900  0.43098800  0.63184200  1
  C  731  1  0.62941400  0.43230200  0.63188000  1
  C  732  1  0.64925600  0.46830800  0.63410100  1
  C  733  1  0.69047300  0.46965400  0.63463200  1
  C  734  1  0.71344600  0.43520000  0.63295400  1
  C  735  1  0.69318000  0.39927400  0.63051700  1
  C  736  1  0.65191100  0.39777500  0.63004500  1
  C  737  1  0.75551000  0.43683200  0.63377400  1
  C  738  1  0.77930300  0.41418000  0.62107100  1
  C  739  1  0.82053300  0.41692100  0.62150700  1
  C  740  1  0.83967000  0.44244300  0.63473500  1
  C  741  1  0.81609000  0.46475400  0.64760000  1
  C  742  1  0.77495700  0.46184200  0.64718400  1
  C  743  1  0.48315300  0.43311900  0.70348500  1
  C  744  1  0.47685500  0.46897700  0.71328500  1
  C  745  1  0.47502800  0.47036000  0.73386800  1
  C  746  1  0.47959900  0.43609400  0.74536200  1
  C  747  1  0.48652300  0.40036100  0.73538200  1
  C  748  1  0.48810100  0.39881200  0.71477400  1
  C  749  1  0.47669700  0.43760500  0.76629700  1
  C  750  1  0.44697300  0.45980500  0.77556000  1
  C  751  1  0.44412100  0.46178600  0.79610000  1
  C  752  1  0.47089000  0.44169100  0.80833700  1
  C  753  1  0.50053800  0.41927300  0.79908600  1
  C  754  1  0.50329100  0.41720000  0.77851000  1
  C  755  1  0.33928500  0.43287800  0.63048300  1
  C  756  1  0.31675900  0.39822600  0.63131200  1
  C  757  1  0.27549400  0.39985700  0.63096900  1
  C  758  1  0.25527600  0.43605300  0.62968800  1
  C  759  1  0.27830900  0.47060700  0.62899700  1
  C  760  1  0.31952700  0.46912700  0.62938300  1
  C  761  1  0.21320600  0.43783600  0.62903900  1
  C  762  1  0.19363500  0.46460400  0.61655500  1
  C  763  1  0.15249400  0.46748300  0.61629500  1
  C  764  1  0.12901000  0.44340200  0.62838300  1
  C  765  1  0.14828200  0.41616600  0.64068000  1
  C  766  1  0.18951800  0.41347500  0.64097800  1
  C  767  1  0.48536100  0.43152400  0.55886200  1
  C  768  1  0.48026700  0.39720700  0.54758300  1
  C  769  1  0.49141100  0.46739700  0.54904700  1
  C  770  1  0.49316500  0.46872400  0.52847200  1
  C  771  1  0.48879000  0.43439400  0.51699500  1
  C  772  1  0.48179800  0.39868900  0.52696200  1
  C  773  1  0.49255600  0.43590100  0.49610500  1
  C  774  1  0.46606400  0.41645600  0.48342300  1
  C  775  1  0.46923200  0.41990800  0.46287300  1
  C  776  1  0.49928200  0.44270400  0.45426000  1
  C  777  1  0.52640800  0.46112400  0.46695200  1
  C  778  1  0.52315300  0.45775300  0.48739600  1
  C  821  1  0.88014400  0.44758700  0.63476600  1
  C  822  1  0.46742800  0.44480600  0.82868100  1
  C  823  1  0.08847980  0.44822900  0.62844600  1
  C  824  1  0.50198000  0.44978500  0.43419600  1
  C  829  1  0.48929200  0.42022200  0.90115700  1
  C  830  1  0.51364700  0.39450700  0.89041100  1
  C  831  1  0.51404500  0.39529500  0.86969500  1
  C  832  1  0.48899700  0.42235700  0.86012800  1
  C  841  1  0.48841900  0.43090900  0.40117500  1
  C  842  1  0.50980300  0.45924400  0.39048600  1
  C  843  1  0.50790800  0.46069300  0.36980800  1
  C  844  1  0.48502600  0.43177900  0.36014300  1
  C  853  1  0.47753700  0.96430500  0.13156200  1
  C  854  1  0.44157600  0.94410500  0.13122700  1
  C  855  1  0.44064200  0.90260600  0.13108700  1
  C  856  1  0.47691400  0.88224400  0.13105100  1
  C  865  1  0.94337800  0.41899800  0.63168900  1
  C  866  1  0.96356400  0.38302400  0.63131700  1
  C  867  1  0.00505979  0.38207600  0.63116700  1
  C  868  1  0.02543980  0.41833900  0.63115900  1
  N  4  1  0.01977000  0.96888200  0.99198600  1
  N  8  1  0.02011200  0.05838500  0.99114000  1
  N  14  1  0.02029500  0.05793400  0.03569200  1
  N  20  1  0.02009500  0.96844300  0.03653700  1
  N  126  1  0.06034400  0.02001400  0.49222200  1
  N  130  1  0.97083500  0.02038900  0.49130800  1
  N  136  1  0.97119000  0.02123800  0.53585100  1
  N  142  1  0.06068100  0.02092800  0.53677000  1
  N  249  1  0.99753700  0.03587300  0.75433600  1
  N  250  1  0.99764200  0.03482500  0.77351200  1
  N  251  1  0.06932800  0.96039000  0.74260200  1
  N  255  1  0.01781000  0.01135900  0.80353600  1
  N  256  1  0.01934200  0.01411800  0.72350400  1
  N  261  1  0.99660900  0.99559800  0.25422900  1
  N  262  1  0.99823400  0.99519100  0.27341100  1
  N  263  1  0.05860900  0.07972700  0.24301200  1
  N  267  1  0.01907700  0.01756800  0.30357800  1
  N  268  1  0.01216500  0.01947900  0.22364500  1
  N  273  1  0.04182600  0.49398900  0.01419300  1
  N  274  1  0.04219300  0.53232600  0.01444000  1
  N  275  1  0.93705600  0.47373300  0.01376900  1
  N  279  1  0.00920100  0.59338100  0.01458600  1
  N  280  1  0.00955200  0.43315400  0.01372500  1
  N  285  1  0.53516900  0.04182800  0.51433500  1
  N  286  1  0.49683600  0.04221000  0.51459100  1
  N  287  1  0.55538400  0.93705300  0.51381000  1
  N  291  1  0.43576900  0.00924800  0.51472600  1
  N  292  1  0.59599600  0.00953800  0.51382400  1
  N  296  1  0.25404600  0.17387400  0.05055510  1
  N  300  1  0.25438800  0.26337700  0.04970910  1
  N  306  1  0.25457100  0.26292600  0.09426110  1
  N  312  1  0.25437100  0.17343500  0.09510610  1
  N  418  1  0.29462000  0.22500600  0.55079100  1
  N  422  1  0.20511100  0.22538100  0.54987700  1
  N  428  1  0.20546600  0.22623000  0.59442000  1
  N  434  1  0.29495700  0.22592000  0.59533900  1
  N  541  1  0.23181300  0.24086500  0.81290500  1
  N  542  1  0.23191800  0.23981700  0.83208100  1
  N  543  1  0.30360400  0.16538200  0.80117100  1
  N  547  1  0.25208600  0.21635100  0.86210500  1
  N  548  1  0.25361800  0.21911000  0.78207300  1
  N  553  1  0.23088500  0.20059000  0.31279800  1
  N  554  1  0.23251000  0.20018300  0.33198000  1
  N  555  1  0.29288500  0.28471900  0.30158100  1
  N  559  1  0.25335300  0.22256000  0.36214700  1
  N  560  1  0.24644100  0.22447100  0.28221400  1
  N  565  1  0.27610200  0.69898100  0.07276210  1
  N  566  1  0.27646900  0.73731800  0.07300910  1
  N  567  1  0.17133200  0.67872500  0.07233810  1
  N  571  1  0.24347700  0.79837300  0.07315510  1
  N  572  1  0.24382800  0.63814600  0.07229410  1
  N  577  1  0.76944500  0.24682000  0.57290400  1
  N  578  1  0.73111200  0.24720200  0.57316000  1
  N  579  1  0.78966000  0.14204500  0.57237900  1
  N  583  1  0.67004500  0.21424000  0.57329500  1
  N  584  1  0.83027200  0.21453000  0.57239300  1
  N  588  1  0.48832300  0.37886600  0.10912400  1
  N  592  1  0.48866500  0.46836900  0.10827800  1
  N  598  1  0.48884800  0.46791800  0.15283000  1
  N  604  1  0.48864800  0.37842700  0.15367500  1
  N  710  1  0.52889700  0.42999800  0.60936000  1
  N  714  1  0.43938800  0.43037300  0.60844600  1
  N  720  1  0.43974300  0.43122200  0.65298900  1
  N  726  1  0.52923400  0.43091200  0.65390800  1
  N  833  1  0.46609000  0.44585700  0.87147400  1
  N  834  1  0.46619500  0.44480900  0.89065000  1
  N  835  1  0.53788100  0.37037400  0.85974000  1
  N  839  1  0.48636300  0.42134300  0.92067400  1
  N  840  1  0.48789500  0.42410200  0.84064200  1
  N  845  1  0.46516200  0.40558200  0.37136700  1
  N  846  1  0.46678700  0.40517500  0.39054900  1
  N  847  1  0.52716200  0.48971100  0.36015000  1
  N  851  1  0.48763000  0.42755200  0.42071600  1
  N  852  1  0.48071800  0.42946300  0.34078300  1
  N  857  1  0.51037900  0.90397300  0.13133100  1
  N  858  1  0.51074600  0.94231000  0.13157800  1
  N  859  1  0.40560900  0.88371700  0.13090700  1
  N  863  1  0.47775400  0.00336469  0.13172400  1
  N  864  1  0.47810500  0.84313800  0.13086300  1
  N  869  1  0.00372179  0.45181200  0.63147300  1
  N  870  1  0.96538900  0.45219400  0.63172900  1
  N  871  1  0.02393680  0.34703700  0.63094800  1
  N  875  1  0.90432200  0.41923200  0.63186400  1
  N  876  1  0.06454880  0.41952200  0.63096200  1
