# generated using pymatgen
data_H28C43N4
_symmetry_space_group_name_H-M   'P 1'
_cell_length_a   33.32140000
_cell_length_b   39.88860000
_cell_length_c   55.68000000
_cell_angle_alpha   90.00000000
_cell_angle_beta   90.00000000
_cell_angle_gamma   89.99830000
_symmetry_Int_Tables_number   1
_chemical_formula_structural   H28C43N4
_chemical_formula_sum   'H448 C688 N64'
_cell_volume   74006.73766693
_cell_formula_units_Z   16
loop_
 _symmetry_equiv_pos_site_id
 _symmetry_equiv_pos_as_xyz
  1  'x, y, z'
loop_
 _atom_site_type_symbol
 _atom_site_label
 _atom_site_symmetry_multiplicity
 _atom_site_fract_x
 _atom_site_fract_y
 _atom_site_fract_z
 _atom_site_occupancy
  H  25  1  0.09460100  0.46981600  0.67245300  1
  H  26  1  0.02459800  0.46540600  0.68076300  1
  H  27  1  0.95079400  0.46580900  0.68070200  1
  H  28  1  0.88095600  0.47070900  0.67215000  1
  H  29  1  0.90305500  0.55971900  0.63251200  1
  H  30  1  0.07379700  0.55905500  0.63287200  1
  H  31  1  0.98692200  0.59214700  0.68498200  1
  H  32  1  0.99163100  0.68891100  0.65374800  1
  H  33  1  0.99303200  0.66419200  0.61455800  1
  H  34  1  0.98591200  0.51055300  0.60055700  1
  H  35  1  0.99292100  0.62785400  0.57677800  1
  H  36  1  0.99054200  0.58510500  0.54644600  1
  H  42  1  0.14070300  0.53100000  0.63228100  1
  H  43  1  0.83576200  0.53194300  0.63167900  1
  H  44  1  0.97533800  0.49572400  0.55784500  1
  H  45  1  0.98316000  0.64303900  0.71075800  1
  H  70  1  0.09646400  0.49894500  0.30510200  1
  H  71  1  0.02649100  0.50364700  0.29682100  1
  H  72  1  0.95268600  0.50374200  0.29702600  1
  H  73  1  0.88281600  0.49918900  0.30556900  1
  H  74  1  0.90433100  0.41028300  0.34543300  1
  H  75  1  0.07510300  0.41010300  0.34505500  1
  H  76  1  0.98844500  0.37727100  0.29304700  1
  H  77  1  0.99033700  0.28056900  0.32447500  1
  H  78  1  0.99145700  0.30541100  0.36363500  1
  H  79  1  0.98913400  0.45921200  0.37725900  1
  H  80  1  0.99171200  0.34196000  0.40138100  1
  H  81  1  0.99107000  0.38489700  0.43159800  1
  H  87  1  0.14216800  0.43807900  0.34563600  1
  H  88  1  0.83728400  0.43851100  0.34626800  1
  H  89  1  0.98405100  0.47543000  0.41956300  1
  H  90  1  0.98395700  0.32636000  0.26734000  1
  H  115  1  0.38298300  0.46989700  0.30564100  1
  H  116  1  0.45319000  0.46440000  0.29841700  1
  H  117  1  0.52717800  0.46480400  0.29854000  1
  H  118  1  0.59718700  0.47085200  0.30607600  1
  H  119  1  0.57490100  0.56100100  0.34437700  1
  H  120  1  0.40377100  0.56024800  0.34396300  1
  H  121  1  0.49095800  0.59212700  0.29289100  1
  H  122  1  0.48599700  0.68894700  0.32403700  1
  H  123  1  0.48450000  0.66429800  0.36324500  1
  H  124  1  0.49198200  0.51071800  0.37737600  1
  H  125  1  0.48461700  0.62802000  0.40109000  1
  H  126  1  0.48711100  0.58528800  0.43145100  1
  H  132  1  0.33509200  0.53689500  0.34084400  1
  H  133  1  0.64393200  0.53784200  0.34175600  1
  H  134  1  0.50299000  0.49602400  0.42006300  1
  H  135  1  0.49497400  0.64302900  0.26709400  1
  H  160  1  0.38115500  0.49893800  0.67182600  1
  H  161  1  0.45129900  0.50471200  0.67907100  1
  H  162  1  0.52518800  0.50481800  0.67882000  1
  H  163  1  0.59524500  0.49916800  0.67126100  1
  H  164  1  0.57366500  0.40880200  0.63309400  1
  H  165  1  0.40249000  0.40865100  0.63352700  1
  H  166  1  0.48936800  0.37710600  0.68458900  1
  H  167  1  0.48752200  0.28028600  0.65333100  1
  H  168  1  0.48639700  0.30498300  0.61413100  1
  H  169  1  0.48856300  0.45871300  0.60023300  1
  H  170  1  0.48608700  0.34138900  0.57629300  1
  H  171  1  0.48663400  0.38424800  0.54600900  1
  H  177  1  0.33368400  0.43198200  0.63642600  1
  H  178  1  0.64249100  0.43235600  0.63565400  1
  H  179  1  0.49312800  0.47487500  0.55796300  1
  H  180  1  0.49393800  0.32623900  0.71038200  1
  H  205  1  0.09475100  0.96952800  0.17204200  1
  H  206  1  0.02474800  0.96495800  0.18031400  1
  H  207  1  0.95093300  0.96523000  0.18021300  1
  H  208  1  0.88105200  0.97026800  0.17185000  1
  H  209  1  0.90299900  0.05961400  0.13257300  1
  H  210  1  0.07378200  0.05898300  0.13271000  1
  H  211  1  0.98751000  0.09113500  0.18494900  1
  H  212  1  0.99122300  0.18853600  0.15475500  1
  H  213  1  0.99217700  0.16446900  0.11522600  1
  H  214  1  0.98585400  0.01076400  0.10029600  1
  H  215  1  0.99180800  0.12827800  0.07695900  1
  H  216  1  0.98941000  0.08570400  0.04645400  1
  H  222  1  0.14076300  0.03105300  0.13207000  1
  H  223  1  0.83573200  0.03182800  0.13171800  1
  H  224  1  0.97470000  0.99621300  0.05766300  1
  H  225  1  0.98241400  0.14068300  0.21078500  1
  H  250  1  0.09649400  0.99942600  0.80576000  1
  H  251  1  0.02653900  0.00419900  0.79743000  1
  H  252  1  0.95275500  0.00417400  0.79739200  1
  H  253  1  0.88283200  0.99953200  0.80581900  1
  H  254  1  0.90423900  0.91038300  0.84543700  1
  H  255  1  0.07501900  0.91025700  0.84531500  1
  H  256  1  0.98887600  0.87831800  0.79311800  1
  H  257  1  0.98984800  0.78096200  0.82344900  1
  H  258  1  0.99058100  0.80512300  0.86296000  1
  H  259  1  0.98915800  0.95897400  0.87758800  1
  H  260  1  0.99064700  0.84150800  0.90121500  1
  H  261  1  0.99003700  0.88424200  0.93162300  1
  H  267  1  0.14207200  0.93827100  0.84607100  1
  H  268  1  0.83717400  0.93848900  0.84621200  1
  H  269  1  0.98347600  0.97488500  0.91985200  1
  H  270  1  0.98307800  0.82881300  0.76732400  1
  H  295  1  0.38285100  0.96946500  0.80633300  1
  H  296  1  0.45303700  0.96380700  0.79912000  1
  H  297  1  0.52695900  0.96410400  0.79921500  1
  H  298  1  0.59701900  0.97024300  0.80654600  1
  H  299  1  0.57497000  0.06085100  0.84434000  1
  H  300  1  0.40382200  0.06017800  0.84418900  1
  H  301  1  0.49038500  0.09113700  0.79294000  1
  H  302  1  0.48651700  0.18859100  0.82305500  1
  H  303  1  0.48547800  0.16458900  0.86260100  1
  H  304  1  0.49202100  0.01093100  0.87764100  1
  H  305  1  0.48583500  0.12844900  0.90093000  1
  H  306  1  0.48832000  0.08588500  0.93145700  1
  H  312  1  0.33513400  0.03682200  0.84125800  1
  H  313  1  0.64395300  0.03764400  0.84173400  1
  H  314  1  0.50361700  0.99650300  0.92024900  1
  H  315  1  0.49570000  0.14069700  0.76708000  1
  H  340  1  0.38107400  0.99924100  0.17138600  1
  H  341  1  0.45121200  0.00517600  0.17858300  1
  H  342  1  0.52510700  0.00523200  0.17850900  1
  H  343  1  0.59521500  0.99944400  0.17117800  1
  H  344  1  0.57379100  0.90890100  0.13318600  1
  H  345  1  0.40257100  0.90874500  0.13335100  1
  H  346  1  0.48890600  0.87812700  0.18454000  1
  H  347  1  0.48795400  0.78068200  0.15433700  1
  H  348  1  0.48724300  0.80472800  0.11479800  1
  H  349  1  0.48858400  0.95849700  0.09993500  1
  H  350  1  0.48716800  0.84097500  0.07647200  1
  H  351  1  0.48769000  0.88363500  0.04600400  1
  H  357  1  0.33371700  0.93196400  0.13623700  1
  H  358  1  0.64263200  0.93230300  0.13595000  1
  H  359  1  0.49368900  0.97438400  0.05770800  1
  H  360  1  0.49471300  0.82860500  0.21042000  1
  H  366  1  0.03728600  0.53342000  0.49375700  1
  H  368  1  0.95002600  0.43715700  0.48469400  1
  H  369  1  0.94950000  0.46844400  0.52137400  1
  H  371  1  0.06927200  0.52437600  0.45670100  1
  H  372  1  0.03262000  0.51438700  0.43510600  1
  H  373  1  0.06660400  0.48319700  0.44541100  1
  H  381  1  0.43894700  0.53212400  0.48373500  1
  H  383  1  0.52907500  0.43778100  0.49318800  1
  H  384  1  0.52953100  0.46941700  0.45665600  1
  H  386  1  0.40640000  0.52207200  0.52049900  1
  H  387  1  0.44275500  0.51252200  0.54237900  1
  H  388  1  0.40998000  0.48079900  0.53153000  1
  H  396  1  0.03735200  0.03306400  0.99368700  1
  H  398  1  0.94911100  0.93738400  0.98483000  1
  H  399  1  0.94848100  0.96912800  0.02130300  1
  H  401  1  0.06962300  0.02335400  0.95679900  1
  H  402  1  0.03313000  0.01330900  0.93511800  1
  H  403  1  0.06668800  0.98203900  0.94578800  1
  H  411  1  0.43892000  0.03177100  0.98380000  1
  H  413  1  0.53002900  0.93805000  0.99309000  1
  H  414  1  0.53056600  0.97012000  0.95675800  1
  H  416  1  0.40611500  0.02107200  0.02039100  1
  H  417  1  0.44230800  0.01147600  0.04236000  1
  H  418  1  0.40997700  0.97967900  0.03116000  1
  H  426  1  0.20457500  0.50409900  0.61816400  1
  H  428  1  0.27067400  0.46401600  0.69033800  1
  H  429  1  0.20047000  0.47669300  0.69111900  1
  H  431  1  0.26479100  0.50316500  0.59538600  1
  H  432  1  0.29542900  0.46896900  0.60355900  1
  H  433  1  0.30800400  0.51017800  0.61300500  1
  H  441  1  0.20590700  0.46577700  0.35965100  1
  H  443  1  0.27261200  0.50319000  0.28694300  1
  H  444  1  0.20241100  0.49051600  0.28619900  1
  H  446  1  0.26594400  0.46745500  0.38257000  1
  H  447  1  0.29653700  0.50143400  0.37389900  1
  H  448  1  0.30935700  0.45994100  0.36524000  1
  H  456  1  0.77337900  0.46617900  0.36025100  1
  H  458  1  0.70709800  0.50455000  0.28766700  1
  H  459  1  0.77715700  0.49139400  0.28689300  1
  H  461  1  0.71332000  0.46807900  0.38314600  1
  H  462  1  0.68300600  0.50230000  0.37460300  1
  H  463  1  0.66989400  0.46095200  0.36574300  1
  H  471  1  0.77141700  0.50520300  0.61757700  1
  H  473  1  0.70574400  0.46424300  0.68963700  1
  H  474  1  0.77582900  0.47732300  0.69042900  1
  H  476  1  0.71114900  0.50407100  0.59483300  1
  H  477  1  0.68079700  0.46964600  0.60289900  1
  H  478  1  0.66792500  0.51071300  0.61251600  1
  H  486  1  0.20457500  0.00413900  0.11784400  1
  H  488  1  0.27075200  0.96397300  0.18997800  1
  H  489  1  0.20052400  0.97657500  0.19077700  1
  H  491  1  0.26480600  0.00331600  0.09506200  1
  H  492  1  0.29551900  0.96915100  0.10321300  1
  H  493  1  0.30799200  0.01036200  0.11269900  1
  H  501  1  0.20579600  0.96586700  0.86009200  1
  H  503  1  0.27266600  0.00316000  0.78740100  1
  H  504  1  0.20244400  0.99056200  0.78662300  1
  H  506  1  0.26581500  0.96746400  0.88303500  1
  H  507  1  0.29648600  0.00140000  0.87437200  1
  H  508  1  0.30922500  0.95988700  0.86571600  1
  H  516  1  0.77346600  0.96627600  0.86032400  1
  H  518  1  0.70690900  0.00431300  0.78773000  1
  H  519  1  0.77704300  0.99138500  0.78693600  1
  H  521  1  0.71343400  0.96803400  0.88325300  1
  H  522  1  0.68294300  0.00212700  0.87467800  1
  H  523  1  0.67001700  0.96071400  0.86588300  1
  H  531  1  0.77158300  0.00487700  0.11756100  1
  H  533  1  0.70558300  0.96463700  0.18973000  1
  H  534  1  0.77572900  0.97754100  0.19052900  1
  H  536  1  0.71137000  0.00370300  0.09475900  1
  H  537  1  0.68086300  0.96943300  0.10295600  1
  H  538  1  0.66812600  0.01061900  0.11237200  1
  H  546  1  0.01037900  0.75084900  0.69718400  1
  H  548  1  0.97253700  0.72023700  0.77804800  1
  H  549  1  0.97223300  0.67882600  0.74698100  1
  H  551  1  0.02854400  0.80519700  0.70765800  1
  H  552  1  0.03977100  0.81239300  0.73806600  1
  H  553  1  0.99097400  0.82124400  0.72656200  1
  H  561  1  0.01016000  0.21842300  0.28100700  1
  H  563  1  0.97293700  0.24925000  0.20008000  1
  H  564  1  0.97266200  0.29063100  0.23116500  1
  H  566  1  0.02819300  0.16402600  0.27051000  1
  H  567  1  0.03946800  0.15682100  0.24010900  1
  H  568  1  0.99059900  0.14812800  0.25155700  1
  H  576  1  0.46608800  0.75059200  0.28038200  1
  H  578  1  0.50635400  0.72025100  0.19988100  1
  H  579  1  0.50660000  0.67890800  0.23099600  1
  H  581  1  0.44711300  0.80468400  0.26962600  1
  H  582  1  0.43666900  0.81168500  0.23909100  1
  H  583  1  0.48495300  0.82115100  0.25109500  1
  H  591  1  0.46750500  0.21830400  0.69683400  1
  H  593  1  0.50499100  0.24921400  0.77770300  1
  H  594  1  0.50524900  0.29054900  0.74658400  1
  H  596  1  0.44932700  0.16395800  0.70741900  1
  H  597  1  0.43820200  0.15681600  0.73785000  1
  H  598  1  0.48698500  0.14802300  0.72631600  1
  H  625  1  0.97455800  0.06869900  0.67245300  1
  H  626  1  0.90455500  0.06428900  0.68076300  1
  H  627  1  0.83075100  0.06469200  0.68070200  1
  H  628  1  0.76091300  0.06959200  0.67215000  1
  H  629  1  0.78301200  0.15860200  0.63251200  1
  H  630  1  0.95375400  0.15793800  0.63287200  1
  H  631  1  0.86687900  0.19103000  0.68498200  1
  H  632  1  0.87158800  0.28779400  0.65374800  1
  H  633  1  0.87298900  0.26307500  0.61455800  1
  H  634  1  0.86586900  0.10943600  0.60055700  1
  H  635  1  0.87287800  0.22673700  0.57677800  1
  H  636  1  0.87049900  0.18398800  0.54644600  1
  H  642  1  0.02066000  0.12988300  0.63228100  1
  H  643  1  0.71571900  0.13082600  0.63167900  1
  H  644  1  0.85529500  0.09460700  0.55784500  1
  H  645  1  0.86311700  0.24192200  0.71075800  1
  H  670  1  0.97642100  0.09782800  0.30510200  1
  H  671  1  0.90644800  0.10253000  0.29682100  1
  H  672  1  0.83264300  0.10262500  0.29702600  1
  H  673  1  0.76277300  0.09807200  0.30556900  1
  H  674  1  0.78428800  0.00916600  0.34543300  1
  H  675  1  0.95506000  0.00898600  0.34505500  1
  H  676  1  0.86840200  0.97615390  0.29304700  1
  H  677  1  0.87029400  0.87945200  0.32447500  1
  H  678  1  0.87141400  0.90429390  0.36363500  1
  H  679  1  0.86909100  0.05809500  0.37725900  1
  H  680  1  0.87166900  0.94084290  0.40138100  1
  H  681  1  0.87102700  0.98377990  0.43159800  1
  H  687  1  0.02212500  0.03696200  0.34563600  1
  H  688  1  0.71724100  0.03739400  0.34626800  1
  H  689  1  0.86400800  0.07431300  0.41956300  1
  H  690  1  0.86391400  0.92524290  0.26734000  1
  H  715  1  0.26294000  0.06878000  0.30564100  1
  H  716  1  0.33314700  0.06328300  0.29841700  1
  H  717  1  0.40713500  0.06368700  0.29854000  1
  H  718  1  0.47714400  0.06973500  0.30607600  1
  H  719  1  0.45485800  0.15988400  0.34437700  1
  H  720  1  0.28372800  0.15913100  0.34396300  1
  H  721  1  0.37091500  0.19101000  0.29289100  1
  H  722  1  0.36595400  0.28783000  0.32403700  1
  H  723  1  0.36445700  0.26318100  0.36324500  1
  H  724  1  0.37193900  0.10960100  0.37737600  1
  H  725  1  0.36457400  0.22690300  0.40109000  1
  H  726  1  0.36706800  0.18417100  0.43145100  1
  H  732  1  0.21504900  0.13577800  0.34084400  1
  H  733  1  0.52388900  0.13672500  0.34175600  1
  H  734  1  0.38294700  0.09490700  0.42006300  1
  H  735  1  0.37493100  0.24191200  0.26709400  1
  H  760  1  0.26111200  0.09782100  0.67182600  1
  H  761  1  0.33125600  0.10359500  0.67907100  1
  H  762  1  0.40514500  0.10370100  0.67882000  1
  H  763  1  0.47520200  0.09805100  0.67126100  1
  H  764  1  0.45362200  0.00768500  0.63309400  1
  H  765  1  0.28244700  0.00753400  0.63352700  1
  H  766  1  0.36932500  0.97598890  0.68458900  1
  H  767  1  0.36747900  0.87916900  0.65333100  1
  H  768  1  0.36635400  0.90386590  0.61413100  1
  H  769  1  0.36852000  0.05759600  0.60023300  1
  H  770  1  0.36604400  0.94027190  0.57629300  1
  H  771  1  0.36659100  0.98313090  0.54600900  1
  H  777  1  0.21364100  0.03086500  0.63642600  1
  H  778  1  0.52244800  0.03123900  0.63565400  1
  H  779  1  0.37308500  0.07375800  0.55796300  1
  H  780  1  0.37389500  0.92512190  0.71038200  1
  H  805  1  0.97470800  0.56841100  0.17204200  1
  H  806  1  0.90470500  0.56384100  0.18031400  1
  H  807  1  0.83089000  0.56411300  0.18021300  1
  H  808  1  0.76100900  0.56915100  0.17185000  1
  H  809  1  0.78295600  0.65849700  0.13257300  1
  H  810  1  0.95373900  0.65786600  0.13271000  1
  H  811  1  0.86746700  0.69001800  0.18494900  1
  H  812  1  0.87118000  0.78741900  0.15475500  1
  H  813  1  0.87213400  0.76335200  0.11522600  1
  H  814  1  0.86581100  0.60964700  0.10029600  1
  H  815  1  0.87176500  0.72716100  0.07695900  1
  H  816  1  0.86936700  0.68458700  0.04645400  1
  H  822  1  0.02072000  0.62993600  0.13207000  1
  H  823  1  0.71568900  0.63071100  0.13171800  1
  H  824  1  0.85465700  0.59509600  0.05766300  1
  H  825  1  0.86237100  0.73956600  0.21078500  1
  H  850  1  0.97645100  0.59830900  0.80576000  1
  H  851  1  0.90649600  0.60308200  0.79743000  1
  H  852  1  0.83271200  0.60305700  0.79739200  1
  H  853  1  0.76278900  0.59841500  0.80581900  1
  H  854  1  0.78419600  0.50926600  0.84543700  1
  H  855  1  0.95497600  0.50914000  0.84531500  1
  H  856  1  0.86883300  0.47720100  0.79311800  1
  H  857  1  0.86980500  0.37984500  0.82344900  1
  H  858  1  0.87053800  0.40400600  0.86296000  1
  H  859  1  0.86911500  0.55785700  0.87758800  1
  H  860  1  0.87060400  0.44039100  0.90121500  1
  H  861  1  0.86999400  0.48312500  0.93162300  1
  H  867  1  0.02202900  0.53715400  0.84607100  1
  H  868  1  0.71713100  0.53737200  0.84621200  1
  H  869  1  0.86343300  0.57376800  0.91985200  1
  H  870  1  0.86303500  0.42769600  0.76732400  1
  H  895  1  0.26280800  0.56834800  0.80633300  1
  H  896  1  0.33299400  0.56269000  0.79912000  1
  H  897  1  0.40691600  0.56298700  0.79921500  1
  H  898  1  0.47697600  0.56912600  0.80654600  1
  H  899  1  0.45492700  0.65973400  0.84434000  1
  H  900  1  0.28377900  0.65906100  0.84418900  1
  H  901  1  0.37034200  0.69002000  0.79294000  1
  H  902  1  0.36647400  0.78747400  0.82305500  1
  H  903  1  0.36543500  0.76347200  0.86260100  1
  H  904  1  0.37197800  0.60981400  0.87764100  1
  H  905  1  0.36579200  0.72733200  0.90093000  1
  H  906  1  0.36827700  0.68476800  0.93145700  1
  H  912  1  0.21509100  0.63570500  0.84125800  1
  H  913  1  0.52391000  0.63652700  0.84173400  1
  H  914  1  0.38357400  0.59538600  0.92024900  1
  H  915  1  0.37565700  0.73958000  0.76708000  1
  H  940  1  0.26103100  0.59812400  0.17138600  1
  H  941  1  0.33116900  0.60405900  0.17858300  1
  H  942  1  0.40506400  0.60411500  0.17850900  1
  H  943  1  0.47517200  0.59832700  0.17117800  1
  H  944  1  0.45374800  0.50778400  0.13318600  1
  H  945  1  0.28252800  0.50762800  0.13335100  1
  H  946  1  0.36886300  0.47701000  0.18454000  1
  H  947  1  0.36791100  0.37956500  0.15433700  1
  H  948  1  0.36720000  0.40361100  0.11479800  1
  H  949  1  0.36854100  0.55738000  0.09993500  1
  H  950  1  0.36712500  0.43985800  0.07647200  1
  H  951  1  0.36764700  0.48251800  0.04600400  1
  H  957  1  0.21367400  0.53084700  0.13623700  1
  H  958  1  0.52258900  0.53118600  0.13595000  1
  H  959  1  0.37364600  0.57326700  0.05770800  1
  H  960  1  0.37467000  0.42748800  0.21042000  1
  H  966  1  0.91724300  0.13230300  0.49375700  1
  H  968  1  0.82998300  0.03604000  0.48469400  1
  H  969  1  0.82945700  0.06732700  0.52137400  1
  H  971  1  0.94922900  0.12325900  0.45670100  1
  H  972  1  0.91257700  0.11327000  0.43510600  1
  H  973  1  0.94656100  0.08208000  0.44541100  1
  H  981  1  0.31890400  0.13100700  0.48373500  1
  H  983  1  0.40903200  0.03666400  0.49318800  1
  H  984  1  0.40948800  0.06830000  0.45665600  1
  H  986  1  0.28635700  0.12095500  0.52049900  1
  H  987  1  0.32271200  0.11140500  0.54237900  1
  H  988  1  0.28993700  0.07968200  0.53153000  1
  H  996  1  0.91730900  0.63194700  0.99368700  1
  H  998  1  0.82906800  0.53626700  0.98483000  1
  H  999  1  0.82843800  0.56801100  0.02130300  1
  H  1001  1  0.94958000  0.62223700  0.95679900  1
  H  1002  1  0.91308700  0.61219200  0.93511800  1
  H  1003  1  0.94664500  0.58092200  0.94578800  1
  H  1011  1  0.31887700  0.63065400  0.98380000  1
  H  1013  1  0.40998600  0.53693300  0.99309000  1
  H  1014  1  0.41052300  0.56900300  0.95675800  1
  H  1016  1  0.28607200  0.61995500  0.02039100  1
  H  1017  1  0.32226500  0.61035900  0.04236000  1
  H  1018  1  0.28993400  0.57856200  0.03116000  1
  H  1026  1  0.08453200  0.10298200  0.61816400  1
  H  1028  1  0.15063100  0.06289900  0.69033800  1
  H  1029  1  0.08042700  0.07557600  0.69111900  1
  H  1031  1  0.14474800  0.10204800  0.59538600  1
  H  1032  1  0.17538600  0.06785200  0.60355900  1
  H  1033  1  0.18796100  0.10906100  0.61300500  1
  H  1041  1  0.08586400  0.06466000  0.35965100  1
  H  1043  1  0.15256900  0.10207300  0.28694300  1
  H  1044  1  0.08236800  0.08939900  0.28619900  1
  H  1046  1  0.14590100  0.06633800  0.38257000  1
  H  1047  1  0.17649400  0.10031700  0.37389900  1
  H  1048  1  0.18931400  0.05882400  0.36524000  1
  H  1056  1  0.65333600  0.06506200  0.36025100  1
  H  1058  1  0.58705500  0.10343300  0.28766700  1
  H  1059  1  0.65711400  0.09027700  0.28689300  1
  H  1061  1  0.59327700  0.06696200  0.38314600  1
  H  1062  1  0.56296300  0.10118300  0.37460300  1
  H  1063  1  0.54985100  0.05983500  0.36574300  1
  H  1071  1  0.65137400  0.10408600  0.61757700  1
  H  1073  1  0.58570100  0.06312600  0.68963700  1
  H  1074  1  0.65578600  0.07620600  0.69042900  1
  H  1076  1  0.59110600  0.10295400  0.59483300  1
  H  1077  1  0.56075400  0.06852900  0.60289900  1
  H  1078  1  0.54788200  0.10959600  0.61251600  1
  H  1086  1  0.08453200  0.60302200  0.11784400  1
  H  1088  1  0.15070900  0.56285600  0.18997800  1
  H  1089  1  0.08048100  0.57545800  0.19077700  1
  H  1091  1  0.14476300  0.60219900  0.09506200  1
  H  1092  1  0.17547600  0.56803400  0.10321300  1
  H  1093  1  0.18794900  0.60924500  0.11269900  1
  H  1101  1  0.08575300  0.56475000  0.86009200  1
  H  1103  1  0.15262300  0.60204300  0.78740100  1
  H  1104  1  0.08240100  0.58944500  0.78662300  1
  H  1106  1  0.14577200  0.56634700  0.88303500  1
  H  1107  1  0.17644300  0.60028300  0.87437200  1
  H  1108  1  0.18918200  0.55877000  0.86571600  1
  H  1116  1  0.65342300  0.56515900  0.86032400  1
  H  1118  1  0.58686600  0.60319600  0.78773000  1
  H  1119  1  0.65700000  0.59026800  0.78693600  1
  H  1121  1  0.59339100  0.56691700  0.88325300  1
  H  1122  1  0.56290000  0.60101000  0.87467800  1
  H  1123  1  0.54997400  0.55959700  0.86588300  1
  H  1131  1  0.65154000  0.60376000  0.11756100  1
  H  1133  1  0.58554000  0.56352000  0.18973000  1
  H  1134  1  0.65568600  0.57642400  0.19052900  1
  H  1136  1  0.59132700  0.60258600  0.09475900  1
  H  1137  1  0.56082000  0.56831600  0.10295600  1
  H  1138  1  0.54808300  0.60950200  0.11237200  1
  H  1146  1  0.89033600  0.34973200  0.69718400  1
  H  1148  1  0.85249400  0.31912000  0.77804800  1
  H  1149  1  0.85219000  0.27770900  0.74698100  1
  H  1151  1  0.90850100  0.40408000  0.70765800  1
  H  1152  1  0.91972800  0.41127600  0.73806600  1
  H  1153  1  0.87093100  0.42012700  0.72656200  1
  H  1161  1  0.89011700  0.81730600  0.28100700  1
  H  1163  1  0.85289400  0.84813300  0.20008000  1
  H  1164  1  0.85261900  0.88951400  0.23116500  1
  H  1166  1  0.90815000  0.76290900  0.27051000  1
  H  1167  1  0.91942500  0.75570400  0.24010900  1
  H  1168  1  0.87055600  0.74701100  0.25155700  1
  H  1176  1  0.34604500  0.34947500  0.28038200  1
  H  1178  1  0.38631100  0.31913400  0.19988100  1
  H  1179  1  0.38655700  0.27779100  0.23099600  1
  H  1181  1  0.32707000  0.40356700  0.26962600  1
  H  1182  1  0.31662600  0.41056800  0.23909100  1
  H  1183  1  0.36491000  0.42003400  0.25109500  1
  H  1191  1  0.34746200  0.81718700  0.69683400  1
  H  1193  1  0.38494800  0.84809700  0.77770300  1
  H  1194  1  0.38520600  0.88943200  0.74658400  1
  H  1196  1  0.32928400  0.76284100  0.70741900  1
  H  1197  1  0.31815900  0.75569900  0.73785000  1
  H  1198  1  0.36694200  0.74690600  0.72631600  1
  C  1  1  0.98889100  0.56045100  0.61293100  1
  C  2  1  0.99074000  0.59417800  0.60617800  1
  C  3  1  0.99082700  0.61399000  0.62687500  1
  C  4  1  0.98908600  0.59320700  0.64711400  1
  C  5  1  0.98831300  0.60770800  0.67039300  1
  C  6  1  0.98922400  0.64321400  0.67358600  1
  C  7  1  0.99111500  0.66331500  0.65251600  1
  C  8  1  0.99191300  0.64905300  0.62935900  1
  C  9  1  0.99175100  0.60320800  0.58176200  1
  C  10  1  0.99047300  0.57790200  0.56408900  1
  C  11  1  0.98822500  0.54339900  0.57035500  1
  C  12  1  0.98761200  0.53506100  0.59519200  1
  C  13  1  0.02269800  0.53717800  0.64881300  1
  C  14  1  0.00879100  0.51010300  0.66242100  1
  C  15  1  0.96723800  0.51029500  0.66230200  1
  C  16  1  0.95376400  0.53756100  0.64870700  1
  C  17  1  0.94060800  0.48617300  0.67136800  1
  C  18  1  0.89961200  0.48927300  0.66610400  1
  C  19  1  0.88472500  0.51613300  0.65184600  1
  C  20  1  0.91242700  0.54055000  0.64337600  1
  C  21  1  0.06412800  0.53995700  0.64370300  1
  C  22  1  0.09148300  0.51534100  0.65224500  1
  C  23  1  0.07618300  0.48853600  0.66639900  1
  C  24  1  0.03509200  0.48574700  0.67152800  1
  C  37  1  0.98844200  0.55730800  0.63955100  1
  C  38  1  0.84442100  0.51728700  0.64515400  1
  C  39  1  0.13184100  0.51632000  0.64569800  1
  C  40  1  0.98509100  0.51824200  0.55289900  1
  C  41  1  0.98763000  0.65780300  0.69664700  1
  C  46  1  0.99002500  0.40921800  0.36504500  1
  C  47  1  0.99073700  0.37549900  0.37188200  1
  C  48  1  0.99060500  0.35559300  0.35122300  1
  C  49  1  0.98980600  0.37631600  0.33093000  1
  C  50  1  0.98917600  0.36174500  0.30767200  1
  C  51  1  0.98938600  0.32622200  0.30454400  1
  C  52  1  0.99034900  0.30617300  0.32566200  1
  C  53  1  0.99095300  0.32050800  0.34880200  1
  C  54  1  0.99127400  0.36659400  0.39633100  1
  C  55  1  0.99095300  0.39202000  0.41393800  1
  C  56  1  0.99006400  0.42654300  0.40760200  1
  C  57  1  0.98972500  0.43471100  0.38272200  1
  C  58  1  0.02412400  0.43213300  0.32907800  1
  C  59  1  0.01038500  0.45926400  0.31546300  1
  C  60  1  0.96884300  0.45926000  0.31552800  1
  C  61  1  0.95518800  0.43214800  0.32920800  1
  C  62  1  0.94236200  0.48342600  0.30635900  1
  C  63  1  0.90134200  0.48054100  0.31162500  1
  C  64  1  0.88628800  0.45382500  0.32595500  1
  C  65  1  0.91382300  0.42933300  0.33450200  1
  C  66  1  0.06554400  0.42917900  0.33416800  1
  C  67  1  0.09305200  0.45361400  0.32552400  1
  C  68  1  0.07792400  0.48037900  0.31126800  1
  C  69  1  0.03684200  0.48337300  0.30619200  1
  C  82  1  0.98970700  0.41225100  0.33841200  1
  C  83  1  0.84598800  0.45289100  0.33264900  1
  C  84  1  0.13340200  0.45254700  0.33207900  1
  C  85  1  0.98900800  0.45202400  0.42494900  1
  C  86  1  0.98800700  0.31158600  0.28149200  1
  C  91  1  0.48884800  0.56059900  0.36498200  1
  C  92  1  0.48689200  0.59432800  0.37170200  1
  C  93  1  0.48682300  0.61407800  0.35097300  1
  C  94  1  0.48865600  0.59325300  0.33075400  1
  C  95  1  0.48948200  0.60771000  0.30746200  1
  C  96  1  0.48853300  0.64321400  0.30424000  1
  C  97  1  0.48653800  0.66335300  0.32528900  1
  C  98  1  0.48568800  0.64913300  0.34845700  1
  C  99  1  0.48585900  0.60337300  0.39611900  1
  C  100  1  0.48719200  0.57808300  0.41380700  1
  C  101  1  0.48955400  0.54358200  0.40755500  1
  C  102  1  0.49019600  0.53522900  0.38273000  1
  C  103  1  0.45509200  0.53706700  0.32929700  1
  C  104  1  0.46904400  0.50943700  0.31630200  1
  C  105  1  0.51058500  0.50965400  0.31642000  1
  C  106  1  0.52403600  0.53747900  0.32942000  1
  C  107  1  0.53730100  0.48546400  0.30756100  1
  C  108  1  0.57840900  0.48923800  0.31225000  1
  C  109  1  0.59337600  0.51683200  0.32575900  1
  C  110  1  0.56549900  0.54118800  0.33413800  1
  C  111  1  0.41352800  0.54049500  0.33378000  1
  C  112  1  0.38603800  0.51593000  0.32529100  1
  C  113  1  0.40148700  0.48842800  0.31188500  1
  C  114  1  0.44271300  0.48498000  0.30738700  1
  C  127  1  0.48933200  0.55737800  0.33837800  1
  C  128  1  0.63413000  0.51938800  0.33126900  1
  C  129  1  0.34519900  0.51831000  0.33057800  1
  C  130  1  0.49283400  0.51842400  0.42499400  1
  C  131  1  0.49022900  0.65778200  0.28118000  1
  C  136  1  0.48776200  0.40874900  0.61251800  1
  C  137  1  0.48707500  0.37501000  0.60574300  1
  C  138  1  0.48721300  0.35520700  0.62645500  1
  C  139  1  0.48800200  0.37601500  0.64671000  1
  C  140  1  0.48863800  0.36152700  0.66999400  1
  C  141  1  0.48843400  0.32601100  0.67318200  1
  C  142  1  0.48748000  0.30588500  0.65210100  1
  C  143  1  0.48687700  0.32013200  0.62893700  1
  C  144  1  0.48652600  0.36604000  0.58130700  1
  C  145  1  0.48679900  0.39141600  0.56365600  1
  C  146  1  0.48764500  0.42595900  0.56994200  1
  C  147  1  0.48800800  0.43419200  0.59480600  1
  C  148  1  0.45366100  0.43196400  0.64827200  1
  C  149  1  0.46743300  0.45975400  0.66116900  1
  C  150  1  0.50897400  0.45971500  0.66113900  1
  C  151  1  0.52263800  0.43197500  0.64812800  1
  C  152  1  0.53548500  0.48415500  0.66987200  1
  C  153  1  0.57661800  0.48062900  0.66515300  1
  C  154  1  0.59180300  0.45308000  0.65169000  1
  C  155  1  0.56411800  0.42854700  0.64335100  1
  C  156  1  0.41212900  0.42844100  0.64371200  1
  C  157  1  0.38448600  0.45290400  0.65218700  1
  C  158  1  0.39975900  0.48044600  0.66562300  1
  C  159  1  0.44094800  0.48404700  0.67015100  1
  C  172  1  0.48809200  0.41191300  0.63913400  1
  C  173  1  0.63258200  0.45071200  0.64619400  1
  C  174  1  0.34366900  0.45045100  0.64684100  1
  C  175  1  0.48856000  0.45142000  0.55257900  1
  C  176  1  0.48983600  0.31143800  0.69625200  1
  C  181  1  0.98865000  0.06058200  0.11283000  1
  C  182  1  0.99019900  0.09439900  0.10624400  1
  C  183  1  0.99039800  0.11402600  0.12706300  1
  C  184  1  0.98907700  0.09291700  0.14713500  1
  C  185  1  0.98860300  0.10700400  0.17051700  1
  C  186  1  0.98934100  0.14245200  0.17405000  1
  C  187  1  0.99084800  0.16297400  0.15320500  1
  C  188  1  0.99134900  0.14907600  0.12989700  1
  C  189  1  0.99085700  0.10358900  0.08184900  1
  C  190  1  0.98960200  0.07839400  0.06407500  1
  C  191  1  0.98764600  0.04383300  0.07021300  1
  C  192  1  0.98734500  0.03531900  0.09501000  1
  C  193  1  0.02270400  0.03686300  0.14850200  1
  C  194  1  0.00884500  0.00962500  0.16195500  1
  C  195  1  0.96731000  0.00987400  0.16198200  1
  C  196  1  0.95378100  0.03728300  0.14855400  1
  C  197  1  0.94071400  0.98569300  0.17100000  1
  C  198  1  0.89968100  0.98890000  0.16588500  1
  C  199  1  0.88475000  0.01589300  0.15177200  1
  C  200  1  0.91241000  0.04038000  0.14336400  1
  C  201  1  0.06412200  0.03972400  0.14340100  1
  C  202  1  0.09152200  0.01511300  0.15189400  1
  C  203  1  0.07628200  0.98820900  0.16597500  1
  C  204  1  0.03518800  0.98528900  0.17104300  1
  C  217  1  0.98841400  0.05710800  0.13941100  1
  C  218  1  0.84442700  0.01712000  0.14515800  1
  C  219  1  0.13188900  0.01623200  0.14540600  1
  C  220  1  0.98449100  0.01872600  0.05272200  1
  C  221  1  0.98780300  0.15623900  0.19733100  1
  C  226  1  0.98981800  0.90907200  0.86519000  1
  C  227  1  0.99020500  0.87526200  0.87184600  1
  C  228  1  0.99015700  0.85555400  0.85105500  1
  C  229  1  0.98971000  0.87661200  0.83094100  1
  C  230  1  0.98933800  0.86247400  0.80757500  1
  C  231  1  0.98938900  0.82701200  0.80408900  1
  C  232  1  0.98999200  0.80652900  0.82496800  1
  C  233  1  0.99034600  0.82048500  0.84826400  1
  C  234  1  0.99044300  0.86618800  0.89626800  1
  C  235  1  0.99014800  0.89148600  0.91399100  1
  C  236  1  0.98959300  0.92606900  0.90780000  1
  C  237  1  0.98953900  0.93442800  0.88295900  1
  C  238  1  0.02408800  0.93241300  0.82938000  1
  C  239  1  0.01040300  0.95959500  0.81578500  1
  C  240  1  0.96886900  0.95965700  0.81587100  1
  C  241  1  0.95518600  0.93249900  0.82948900  1
  C  242  1  0.94242200  0.98388200  0.80675100  1
  C  243  1  0.90137500  0.98092000  0.81191300  1
  C  244  1  0.88627800  0.95407800  0.82610800  1
  C  245  1  0.91379000  0.92956600  0.83464500  1
  C  246  1  0.06548700  0.92941400  0.83449100  1
  C  247  1  0.09301300  0.95390300  0.82595700  1
  C  248  1  0.07793600  0.98079700  0.81180800  1
  C  249  1  0.03687800  0.98382400  0.80669400  1
  C  262  1  0.98964700  0.91245100  0.83859800  1
  C  263  1  0.84593900  0.95300200  0.83268100  1
  C  264  1  0.13334800  0.95274200  0.83250600  1
  C  265  1  0.98851500  0.95147900  0.92520300  1
  C  266  1  0.98803900  0.81320800  0.78080600  1
  C  271  1  0.48911900  0.06074300  0.86509400  1
  C  272  1  0.48751000  0.09455700  0.87165400  1
  C  273  1  0.48732400  0.11413100  0.85080500  1
  C  274  1  0.48871000  0.09298200  0.83074800  1
  C  275  1  0.48923600  0.10702600  0.80735600  1
  C  276  1  0.48848200  0.14247300  0.80380000  1
  C  277  1  0.48690400  0.16303000  0.82462400  1
  C  278  1  0.48635500  0.14917400  0.84794200  1
  C  279  1  0.48682300  0.10375700  0.89604900  1
  C  280  1  0.48812800  0.07857500  0.91383700  1
  C  281  1  0.49016000  0.04401600  0.90770700  1
  C  282  1  0.49046300  0.03549000  0.88291700  1
  C  283  1  0.45508300  0.03682700  0.82959300  1
  C  284  1  0.46897200  0.00897100  0.81681900  1
  C  285  1  0.51050400  0.00921100  0.81681000  1
  C  286  1  0.52403300  0.03723400  0.82956200  1
  C  287  1  0.53715400  0.98490400  0.80804100  1
  C  288  1  0.57828600  0.98873300  0.81261300  1
  C  289  1  0.59332500  0.01647400  0.82593400  1
  C  290  1  0.56551100  0.04094800  0.83421100  1
  C  291  1  0.41354300  0.04030700  0.83411000  1
  C  292  1  0.38601700  0.01568200  0.82576000  1
  C  293  1  0.40139400  0.98803200  0.81248000  1
  C  294  1  0.44259900  0.98450800  0.80796100  1
  C  307  1  0.48938000  0.05719800  0.83852700  1
  C  308  1  0.63410000  0.01910000  0.83134700  1
  C  309  1  0.34519300  0.01817300  0.83103400  1
  C  310  1  0.49344000  0.01890300  0.92517900  1
  C  311  1  0.49011200  0.15624100  0.78051500  1
  C  316  1  0.48800200  0.90862400  0.11239500  1
  C  317  1  0.48762400  0.87480200  0.10579900  1
  C  318  1  0.48766600  0.85518900  0.12663600  1
  C  319  1  0.48809200  0.87631900  0.14671800  1
  C  320  1  0.48845200  0.86224500  0.17010600  1
  C  321  1  0.48840100  0.82678800  0.17363700  1
  C  322  1  0.48780400  0.80624700  0.15278700  1
  C  323  1  0.48746800  0.82013200  0.12947300  1
  C  324  1  0.48737800  0.86566700  0.08138600  1
  C  325  1  0.48762700  0.89092000  0.06362600  1
  C  326  1  0.48815200  0.92552000  0.06977000  1
  C  327  1  0.48823600  0.93393500  0.09459600  1
  C  328  1  0.45370000  0.93226000  0.14797900  1
  C  329  1  0.46741800  0.96015300  0.16078400  1
  C  330  1  0.50894400  0.96016500  0.16075900  1
  C  331  1  0.52265600  0.93231800  0.14789100  1
  C  332  1  0.53543100  0.98455500  0.16959000  1
  C  333  1  0.57659700  0.98093200  0.16502500  1
  C  334  1  0.59183300  0.95329100  0.15167700  1
  C  335  1  0.56418100  0.92873900  0.14333100  1
  C  336  1  0.41217700  0.92863400  0.14344600  1
  C  337  1  0.38450100  0.95311200  0.15185800  1
  C  338  1  0.39972000  0.98077300  0.16519200  1
  C  339  1  0.44090300  0.98448300  0.16967600  1
  C  352  1  0.48816400  0.91212500  0.13897100  1
  C  353  1  0.63264500  0.95082700  0.14631300  1
  C  354  1  0.34368700  0.95053200  0.14656800  1
  C  355  1  0.48907700  0.95091600  0.05235200  1
  C  356  1  0.48974000  0.81300900  0.19692900  1
  C  361  1  0.99372000  0.50384100  0.51096600  1
  C  362  1  0.01873700  0.51314900  0.49162700  1
  C  363  1  0.01954100  0.49495600  0.46971200  1
  C  364  1  0.99331800  0.46702600  0.46675400  1
  C  365  1  0.96850900  0.45756800  0.48620300  1
  C  367  1  0.96840700  0.47576600  0.50789000  1
  C  370  1  0.04863900  0.50482500  0.45072900  1
  C  376  1  0.48389700  0.50369300  0.46680500  1
  C  377  1  0.45809400  0.51226000  0.48594800  1
  C  378  1  0.45731900  0.49384900  0.50776700  1
  C  379  1  0.48436500  0.46650000  0.51084200  1
  C  380  1  0.50997600  0.45778000  0.49159100  1
  C  382  1  0.51003600  0.47617400  0.46999100  1
  C  385  1  0.42744100  0.50286300  0.52653500  1
  C  391  1  0.99323400  0.00405400  0.01088700  1
  C  392  1  0.01858700  0.01292300  0.99159800  1
  C  393  1  0.01946000  0.99444500  0.96980600  1
  C  394  1  0.99297200  0.96667600  0.96690400  1
  C  395  1  0.96780800  0.95766400  0.98629600  1
  C  397  1  0.96764500  0.97613800  0.00786400  1
  C  400  1  0.04887300  0.00386000  0.95087700  1
  C  406  1  0.48438900  0.00390200  0.96688900  1
  C  407  1  0.45827700  0.01204300  0.98598000  1
  C  408  1  0.45745400  0.99336300  0.00768300  1
  C  409  1  0.48475500  0.96618000  0.01071100  1
  C  410  1  0.51071100  0.95790600  0.99152800  1
  C  412  1  0.51082200  0.97656400  0.97004100  1
  C  415  1  0.42727200  0.00192500  0.02638600  1
  C  421  1  0.19664300  0.49204800  0.65473200  1
  C  422  1  0.21882100  0.49556700  0.63324900  1
  C  423  1  0.26026000  0.48760700  0.63233500  1
  C  424  1  0.27925100  0.47531700  0.65344600  1
  C  425  1  0.25702500  0.47188800  0.67484400  1
  C  427  1  0.21596100  0.47957000  0.67535700  1
  C  430  1  0.28327800  0.49282600  0.60977500  1
  C  436  1  0.19830600  0.47645500  0.32284300  1
  C  437  1  0.22030100  0.47371400  0.34444800  1
  C  438  1  0.26173000  0.48170500  0.34533900  1
  C  439  1  0.28090100  0.49320400  0.32405500  1
  C  440  1  0.25884600  0.49586000  0.30253700  1
  C  442  1  0.21778600  0.48818400  0.30204900  1
  C  445  1  0.28453900  0.47733700  0.36806700  1
  C  451  1  0.78112800  0.47710700  0.32349500  1
  C  452  1  0.75908700  0.47436700  0.34508200  1
  C  453  1  0.71773200  0.48264200  0.34598800  1
  C  454  1  0.69869500  0.49452000  0.32476600  1
  C  455  1  0.72078500  0.49706700  0.30325000  1
  C  457  1  0.76176800  0.48910300  0.30274000  1
  C  460  1  0.69483600  0.47819000  0.36867300  1
  C  466  1  0.77949700  0.49290600  0.65408600  1
  C  467  1  0.75726200  0.49646200  0.63263300  1
  C  468  1  0.71588900  0.48825200  0.63171300  1
  C  469  1  0.69703000  0.47562200  0.65276600  1
  C  470  1  0.71930700  0.47227000  0.67415400  1
  C  472  1  0.76030400  0.48018600  0.67467700  1
  C  475  1  0.69277700  0.49352000  0.60919700  1
  C  481  1  0.19669100  0.99201300  0.15440700  1
  C  482  1  0.21883900  0.99559300  0.13292000  1
  C  483  1  0.26028400  0.98768200  0.13199300  1
  C  484  1  0.27926600  0.97532000  0.15308200  1
  C  485  1  0.25707900  0.97184600  0.17449000  1
  C  487  1  0.21601200  0.97949500  0.17501800  1
  C  490  1  0.28330800  0.99297900  0.10944600  1
  C  496  1  0.19827900  0.97652500  0.82327100  1
  C  497  1  0.22022300  0.97378400  0.84489500  1
  C  498  1  0.26166100  0.98172000  0.84580400  1
  C  499  1  0.28085000  0.99323000  0.82453400  1
  C  500  1  0.25886100  0.99585800  0.80299000  1
  C  502  1  0.21779200  0.98823600  0.80248400  1
  C  505  1  0.28444200  0.97731900  0.86853700  1
  C  511  1  0.78109400  0.97713000  0.82354400  1
  C  512  1  0.75911000  0.97437200  0.84515200  1
  C  513  1  0.71772300  0.98250700  0.84607200  1
  C  514  1  0.69862600  0.99425500  0.82483700  1
  C  515  1  0.72065500  0.99688100  0.80330600  1
  C  517  1  0.76167700  0.98906600  0.80278900  1
  C  520  1  0.69488100  0.97804300  0.86877500  1
  C  526  1  0.77951000  0.99288100  0.15413600  1
  C  527  1  0.75735300  0.99631100  0.13264200  1
  C  528  1  0.71595700  0.98820600  0.13171500  1
  C  529  1  0.69702400  0.97581600  0.15281200  1
  C  530  1  0.71921600  0.97253100  0.17423500  1
  C  532  1  0.76023800  0.98034600  0.17475900  1
  C  535  1  0.69292100  0.99333200  0.10915400  1
  C  541  1  0.99139400  0.71102300  0.71900300  1
  C  542  1  0.00229700  0.74461100  0.71437100  1
  C  543  1  0.00275000  0.76972100  0.73252700  1
  C  544  1  0.99111800  0.76123800  0.75647800  1
  C  545  1  0.98053600  0.72741200  0.76104200  1
  C  547  1  0.98045500  0.70281800  0.74277800  1
  C  550  1  0.01628800  0.80398300  0.72581900  1
  C  556  1  0.99150800  0.25834500  0.25916800  1
  C  557  1  0.00221000  0.22471100  0.26380700  1
  C  558  1  0.00264800  0.19961900  0.24563700  1
  C  559  1  0.99117500  0.20816500  0.22167400  1
  C  560  1  0.98080400  0.24203300  0.21709900  1
  C  562  1  0.98075100  0.26660900  0.23537300  1
  C  565  1  0.01599400  0.16530000  0.25233600  1
  C  571  1  0.48626200  0.71094300  0.25877100  1
  C  572  1  0.47469500  0.74441400  0.26327400  1
  C  573  1  0.47425100  0.76947200  0.24508400  1
  C  574  1  0.48667600  0.76108900  0.22126200  1
  C  575  1  0.49784600  0.72736600  0.21681200  1
  C  577  1  0.49788500  0.70281200  0.23510000  1
  C  580  1  0.45992400  0.80358400  0.25159800  1
  C  586  1  0.48631300  0.25823000  0.71862100  1
  C  587  1  0.47552400  0.22460700  0.71402100  1
  C  588  1  0.47509200  0.19954700  0.73221100  1
  C  589  1  0.48670900  0.20810800  0.75614400  1
  C  590  1  0.49708600  0.24197900  0.76069300  1
  C  592  1  0.49712800  0.26652500  0.74240100  1
  C  595  1  0.46162600  0.16523900  0.72556900  1
  C  601  1  0.86884800  0.15933400  0.61293100  1
  C  602  1  0.87069700  0.19306100  0.60617800  1
  C  603  1  0.87078400  0.21287300  0.62687500  1
  C  604  1  0.86904300  0.19209000  0.64711400  1
  C  605  1  0.86827000  0.20659100  0.67039300  1
  C  606  1  0.86918100  0.24209700  0.67358600  1
  C  607  1  0.87107200  0.26219800  0.65251600  1
  C  608  1  0.87187000  0.24793600  0.62935900  1
  C  609  1  0.87170800  0.20209100  0.58176200  1
  C  610  1  0.87043000  0.17678500  0.56408900  1
  C  611  1  0.86818200  0.14228200  0.57035500  1
  C  612  1  0.86756900  0.13394400  0.59519200  1
  C  613  1  0.90265500  0.13606100  0.64881300  1
  C  614  1  0.88874800  0.10898600  0.66242100  1
  C  615  1  0.84719500  0.10917800  0.66230200  1
  C  616  1  0.83372100  0.13644400  0.64870700  1
  C  617  1  0.82056500  0.08505600  0.67136800  1
  C  618  1  0.77956900  0.08815600  0.66610400  1
  C  619  1  0.76468200  0.11501600  0.65184600  1
  C  620  1  0.79238400  0.13943300  0.64337600  1
  C  621  1  0.94408500  0.13884000  0.64370300  1
  C  622  1  0.97144000  0.11422400  0.65224500  1
  C  623  1  0.95614000  0.08741900  0.66639900  1
  C  624  1  0.91504900  0.08463000  0.67152800  1
  C  637  1  0.86839900  0.15619100  0.63955100  1
  C  638  1  0.72437800  0.11617000  0.64515400  1
  C  639  1  0.01179800  0.11520300  0.64569800  1
  C  640  1  0.86504800  0.11712500  0.55289900  1
  C  641  1  0.86758700  0.25668600  0.69664700  1
  C  646  1  0.86998200  0.00810100  0.36504500  1
  C  647  1  0.87069400  0.97438190  0.37188200  1
  C  648  1  0.87056200  0.95447590  0.35122300  1
  C  649  1  0.86976300  0.97519890  0.33093000  1
  C  650  1  0.86913300  0.96062790  0.30767200  1
  C  651  1  0.86934300  0.92510490  0.30454400  1
  C  652  1  0.87030600  0.90505590  0.32566200  1
  C  653  1  0.87091000  0.91939090  0.34880200  1
  C  654  1  0.87123100  0.96547690  0.39633100  1
  C  655  1  0.87091000  0.99090289  0.41393800  1
  C  656  1  0.87002100  0.02542600  0.40760200  1
  C  657  1  0.86968200  0.03359400  0.38272200  1
  C  658  1  0.90408100  0.03101600  0.32907800  1
  C  659  1  0.89034200  0.05814700  0.31546300  1
  C  660  1  0.84880000  0.05814300  0.31552800  1
  C  661  1  0.83514500  0.03103100  0.32920800  1
  C  662  1  0.82231900  0.08230900  0.30635900  1
  C  663  1  0.78129900  0.07942400  0.31162500  1
  C  664  1  0.76624500  0.05270800  0.32595500  1
  C  665  1  0.79378000  0.02821600  0.33450200  1
  C  666  1  0.94550100  0.02806200  0.33416800  1
  C  667  1  0.97300900  0.05249700  0.32552400  1
  C  668  1  0.95788100  0.07926200  0.31126800  1
  C  669  1  0.91679900  0.08225600  0.30619200  1
  C  682  1  0.86966400  0.01113400  0.33841200  1
  C  683  1  0.72594500  0.05177400  0.33264900  1
  C  684  1  0.01335900  0.05143000  0.33207900  1
  C  685  1  0.86896500  0.05090700  0.42494900  1
  C  686  1  0.86796400  0.91046890  0.28149200  1
  C  691  1  0.36880500  0.15948200  0.36498200  1
  C  692  1  0.36684900  0.19321100  0.37170200  1
  C  693  1  0.36678000  0.21296100  0.35097300  1
  C  694  1  0.36861300  0.19213600  0.33075400  1
  C  695  1  0.36943900  0.20659300  0.30746200  1
  C  696  1  0.36849000  0.24209700  0.30424000  1
  C  697  1  0.36649500  0.26223600  0.32528900  1
  C  698  1  0.36564500  0.24801600  0.34845700  1
  C  699  1  0.36581600  0.20225600  0.39611900  1
  C  700  1  0.36714900  0.17696600  0.41380700  1
  C  701  1  0.36951100  0.14246500  0.40755500  1
  C  702  1  0.37015300  0.13411200  0.38273000  1
  C  703  1  0.33504900  0.13595000  0.32929700  1
  C  704  1  0.34900100  0.10832000  0.31630200  1
  C  705  1  0.39054200  0.10853700  0.31642000  1
  C  706  1  0.40399300  0.13636200  0.32942000  1
  C  707  1  0.41725800  0.08434700  0.30756100  1
  C  708  1  0.45836600  0.08812100  0.31225000  1
  C  709  1  0.47333300  0.11571500  0.32575900  1
  C  710  1  0.44545600  0.14007100  0.33413800  1
  C  711  1  0.29348500  0.13937800  0.33378000  1
  C  712  1  0.26599500  0.11481300  0.32529100  1
  C  713  1  0.28144400  0.08731100  0.31188500  1
  C  714  1  0.32267000  0.08386300  0.30738700  1
  C  727  1  0.36928900  0.15626100  0.33837800  1
  C  728  1  0.51408700  0.11827100  0.33126900  1
  C  729  1  0.22515600  0.11719300  0.33057800  1
  C  730  1  0.37279100  0.11730700  0.42499400  1
  C  731  1  0.37018600  0.25666500  0.28118000  1
  C  736  1  0.36771900  0.00763200  0.61251800  1
  C  737  1  0.36703200  0.97389290  0.60574300  1
  C  738  1  0.36717000  0.95408990  0.62645500  1
  C  739  1  0.36795900  0.97489790  0.64671000  1
  C  740  1  0.36859500  0.96040990  0.66999400  1
  C  741  1  0.36839100  0.92489390  0.67318200  1
  C  742  1  0.36743700  0.90476790  0.65210100  1
  C  743  1  0.36683400  0.91901490  0.62893700  1
  C  744  1  0.36648300  0.96492290  0.58130700  1
  C  745  1  0.36675600  0.99029889  0.56365600  1
  C  746  1  0.36760200  0.02484200  0.56994200  1
  C  747  1  0.36796500  0.03307500  0.59480600  1
  C  748  1  0.33361800  0.03084700  0.64827200  1
  C  749  1  0.34739000  0.05863700  0.66116900  1
  C  750  1  0.38893100  0.05859800  0.66113900  1
  C  751  1  0.40259500  0.03085800  0.64812800  1
  C  752  1  0.41544200  0.08303800  0.66987200  1
  C  753  1  0.45657500  0.07951200  0.66515300  1
  C  754  1  0.47176000  0.05196300  0.65169000  1
  C  755  1  0.44407500  0.02743000  0.64335100  1
  C  756  1  0.29208600  0.02732400  0.64371200  1
  C  757  1  0.26444300  0.05178700  0.65218700  1
  C  758  1  0.27971600  0.07932900  0.66562300  1
  C  759  1  0.32090500  0.08293000  0.67015100  1
  C  772  1  0.36804900  0.01079600  0.63913400  1
  C  773  1  0.51253900  0.04959500  0.64619400  1
  C  774  1  0.22362600  0.04933400  0.64684100  1
  C  775  1  0.36851700  0.05030300  0.55257900  1
  C  776  1  0.36979300  0.91032090  0.69625200  1
  C  781  1  0.86860700  0.65946500  0.11283000  1
  C  782  1  0.87015600  0.69328200  0.10624400  1
  C  783  1  0.87035500  0.71290900  0.12706300  1
  C  784  1  0.86903400  0.69180000  0.14713500  1
  C  785  1  0.86856000  0.70588700  0.17051700  1
  C  786  1  0.86929800  0.74133500  0.17405000  1
  C  787  1  0.87080500  0.76185700  0.15320500  1
  C  788  1  0.87130600  0.74795900  0.12989700  1
  C  789  1  0.87081400  0.70247200  0.08184900  1
  C  790  1  0.86955900  0.67727700  0.06407500  1
  C  791  1  0.86760300  0.64271600  0.07021300  1
  C  792  1  0.86730200  0.63420200  0.09501000  1
  C  793  1  0.90266100  0.63574600  0.14850200  1
  C  794  1  0.88880200  0.60850800  0.16195500  1
  C  795  1  0.84726700  0.60875700  0.16198200  1
  C  796  1  0.83373800  0.63616600  0.14855400  1
  C  797  1  0.82067100  0.58457600  0.17100000  1
  C  798  1  0.77963800  0.58778300  0.16588500  1
  C  799  1  0.76470700  0.61477600  0.15177200  1
  C  800  1  0.79236700  0.63926300  0.14336400  1
  C  801  1  0.94407900  0.63860700  0.14340100  1
  C  802  1  0.97147900  0.61399600  0.15189400  1
  C  803  1  0.95623900  0.58709200  0.16597500  1
  C  804  1  0.91514500  0.58417200  0.17104300  1
  C  817  1  0.86837100  0.65599100  0.13941100  1
  C  818  1  0.72438400  0.61600300  0.14515800  1
  C  819  1  0.01184600  0.61511500  0.14540600  1
  C  820  1  0.86444800  0.61760900  0.05272200  1
  C  821  1  0.86776000  0.75512200  0.19733100  1
  C  826  1  0.86977500  0.50795500  0.86519000  1
  C  827  1  0.87016200  0.47414500  0.87184600  1
  C  828  1  0.87011400  0.45443700  0.85105500  1
  C  829  1  0.86966700  0.47549500  0.83094100  1
  C  830  1  0.86929500  0.46135700  0.80757500  1
  C  831  1  0.86934600  0.42589500  0.80408900  1
  C  832  1  0.86994900  0.40541200  0.82496800  1
  C  833  1  0.87030300  0.41936800  0.84826400  1
  C  834  1  0.87040000  0.46507100  0.89626800  1
  C  835  1  0.87010500  0.49036900  0.91399100  1
  C  836  1  0.86955000  0.52495200  0.90780000  1
  C  837  1  0.86949600  0.53331100  0.88295900  1
  C  838  1  0.90404500  0.53129600  0.82938000  1
  C  839  1  0.89036000  0.55847800  0.81578500  1
  C  840  1  0.84882600  0.55854000  0.81587100  1
  C  841  1  0.83514300  0.53138200  0.82948900  1
  C  842  1  0.82237900  0.58276500  0.80675100  1
  C  843  1  0.78133200  0.57980300  0.81191300  1
  C  844  1  0.76623500  0.55296100  0.82610800  1
  C  845  1  0.79374700  0.52844900  0.83464500  1
  C  846  1  0.94544400  0.52829700  0.83449100  1
  C  847  1  0.97297000  0.55278600  0.82595700  1
  C  848  1  0.95789300  0.57968000  0.81180800  1
  C  849  1  0.91683500  0.58270700  0.80669400  1
  C  862  1  0.86960400  0.51133400  0.83859800  1
  C  863  1  0.72589600  0.55188500  0.83268100  1
  C  864  1  0.01330500  0.55162500  0.83250600  1
  C  865  1  0.86847200  0.55036200  0.92520300  1
  C  866  1  0.86799600  0.41209100  0.78080600  1
  C  871  1  0.36907600  0.65962600  0.86509400  1
  C  872  1  0.36746700  0.69344000  0.87165400  1
  C  873  1  0.36728100  0.71301400  0.85080500  1
  C  874  1  0.36866700  0.69186500  0.83074800  1
  C  875  1  0.36919300  0.70590900  0.80735600  1
  C  876  1  0.36843900  0.74135600  0.80380000  1
  C  877  1  0.36686100  0.76191300  0.82462400  1
  C  878  1  0.36631200  0.74805700  0.84794200  1
  C  879  1  0.36678000  0.70264000  0.89604900  1
  C  880  1  0.36808500  0.67745800  0.91383700  1
  C  881  1  0.37011700  0.64289900  0.90770700  1
  C  882  1  0.37042000  0.63437300  0.88291700  1
  C  883  1  0.33504000  0.63571000  0.82959300  1
  C  884  1  0.34892900  0.60785400  0.81681900  1
  C  885  1  0.39046100  0.60809400  0.81681000  1
  C  886  1  0.40399000  0.63611700  0.82956200  1
  C  887  1  0.41711100  0.58378700  0.80804100  1
  C  888  1  0.45824300  0.58761600  0.81261300  1
  C  889  1  0.47328200  0.61535700  0.82593400  1
  C  890  1  0.44546800  0.63983100  0.83421100  1
  C  891  1  0.29350000  0.63919000  0.83411000  1
  C  892  1  0.26597400  0.61456500  0.82576000  1
  C  893  1  0.28135100  0.58691500  0.81248000  1
  C  894  1  0.32255600  0.58339100  0.80796100  1
  C  907  1  0.36933700  0.65608100  0.83852700  1
  C  908  1  0.51405700  0.61798300  0.83134700  1
  C  909  1  0.22515000  0.61705600  0.83103400  1
  C  910  1  0.37339700  0.61778600  0.92517900  1
  C  911  1  0.37006900  0.75512400  0.78051500  1
  C  916  1  0.36795900  0.50750700  0.11239500  1
  C  917  1  0.36758100  0.47368500  0.10579900  1
  C  918  1  0.36762300  0.45407200  0.12663600  1
  C  919  1  0.36804900  0.47520200  0.14671800  1
  C  920  1  0.36840900  0.46112800  0.17010600  1
  C  921  1  0.36835800  0.42567100  0.17363700  1
  C  922  1  0.36776100  0.40513000  0.15278700  1
  C  923  1  0.36742500  0.41901500  0.12947300  1
  C  924  1  0.36733500  0.46455000  0.08138600  1
  C  925  1  0.36758400  0.48980300  0.06362600  1
  C  926  1  0.36810900  0.52440300  0.06977000  1
  C  927  1  0.36819300  0.53281800  0.09459600  1
  C  928  1  0.33365700  0.53114300  0.14797900  1
  C  929  1  0.34737500  0.55903600  0.16078400  1
  C  930  1  0.38890100  0.55904800  0.16075900  1
  C  931  1  0.40261300  0.53120100  0.14789100  1
  C  932  1  0.41538800  0.58343800  0.16959000  1
  C  933  1  0.45655400  0.57981500  0.16502500  1
  C  934  1  0.47179000  0.55217400  0.15167700  1
  C  935  1  0.44413800  0.52762200  0.14333100  1
  C  936  1  0.29213400  0.52751700  0.14344600  1
  C  937  1  0.26445800  0.55199500  0.15185800  1
  C  938  1  0.27967700  0.57965600  0.16519200  1
  C  939  1  0.32086000  0.58336600  0.16967600  1
  C  952  1  0.36812100  0.51100800  0.13897100  1
  C  953  1  0.51260200  0.54971000  0.14631300  1
  C  954  1  0.22364400  0.54941500  0.14656800  1
  C  955  1  0.36903400  0.54979900  0.05235200  1
  C  956  1  0.36969700  0.41189200  0.19692900  1
  C  961  1  0.87367700  0.10272400  0.51096600  1
  C  962  1  0.89869400  0.11203200  0.49162700  1
  C  963  1  0.89949800  0.09383900  0.46971200  1
  C  964  1  0.87327500  0.06590900  0.46675400  1
  C  965  1  0.84846600  0.05645100  0.48620300  1
  C  967  1  0.84836400  0.07464900  0.50789000  1
  C  970  1  0.92859600  0.10370800  0.45072900  1
  C  976  1  0.36385400  0.10257600  0.46680500  1
  C  977  1  0.33805100  0.11114300  0.48594800  1
  C  978  1  0.33727600  0.09273200  0.50776700  1
  C  979  1  0.36432200  0.06538300  0.51084200  1
  C  980  1  0.38993300  0.05666300  0.49159100  1
  C  982  1  0.38999300  0.07505700  0.46999100  1
  C  985  1  0.30739800  0.10174600  0.52653500  1
  C  991  1  0.87319100  0.60293700  0.01088700  1
  C  992  1  0.89854400  0.61180600  0.99159800  1
  C  993  1  0.89941700  0.59332800  0.96980600  1
  C  994  1  0.87292900  0.56555900  0.96690400  1
  C  995  1  0.84776500  0.55654700  0.98629600  1
  C  997  1  0.84760200  0.57502100  0.00786400  1
  C  1000  1  0.92883000  0.60274300  0.95087700  1
  C  1006  1  0.36434600  0.60278500  0.96688900  1
  C  1007  1  0.33823400  0.61092600  0.98598000  1
  C  1008  1  0.33741100  0.59224600  0.00768300  1
  C  1009  1  0.36471200  0.56506300  0.01071100  1
  C  1010  1  0.39066800  0.55678900  0.99152800  1
  C  1012  1  0.39077900  0.57544700  0.97004100  1
  C  1015  1  0.30722900  0.60080800  0.02638600  1
  C  1021  1  0.07660000  0.09093100  0.65473200  1
  C  1022  1  0.09877800  0.09445000  0.63324900  1
  C  1023  1  0.14021700  0.08649000  0.63233500  1
  C  1024  1  0.15920800  0.07420000  0.65344600  1
  C  1025  1  0.13698200  0.07077100  0.67484400  1
  C  1027  1  0.09591800  0.07845300  0.67535700  1
  C  1030  1  0.16323500  0.09170900  0.60977500  1
  C  1036  1  0.07826300  0.07533800  0.32284300  1
  C  1037  1  0.10025800  0.07259700  0.34444800  1
  C  1038  1  0.14168700  0.08058800  0.34533900  1
  C  1039  1  0.16085800  0.09208700  0.32405500  1
  C  1040  1  0.13880300  0.09474300  0.30253700  1
  C  1042  1  0.09774300  0.08706700  0.30204900  1
  C  1045  1  0.16449600  0.07622000  0.36806700  1
  C  1051  1  0.66108500  0.07599000  0.32349500  1
  C  1052  1  0.63904400  0.07325000  0.34508200  1
  C  1053  1  0.59768900  0.08152500  0.34598800  1
  C  1054  1  0.57865200  0.09340300  0.32476600  1
  C  1055  1  0.60074200  0.09595000  0.30325000  1
  C  1057  1  0.64172500  0.08798600  0.30274000  1
  C  1060  1  0.57479300  0.07707300  0.36867300  1
  C  1066  1  0.65945400  0.09178900  0.65408600  1
  C  1067  1  0.63721900  0.09534500  0.63263300  1
  C  1068  1  0.59584600  0.08713500  0.63171300  1
  C  1069  1  0.57698700  0.07450500  0.65276600  1
  C  1070  1  0.59926400  0.07115300  0.67415400  1
  C  1072  1  0.64026100  0.07906900  0.67467700  1
  C  1075  1  0.57273400  0.09240300  0.60919700  1
  C  1081  1  0.07664800  0.59089600  0.15440700  1
  C  1082  1  0.09879600  0.59447600  0.13292000  1
  C  1083  1  0.14024100  0.58656500  0.13199300  1
  C  1084  1  0.15922300  0.57420300  0.15308200  1
  C  1085  1  0.13703600  0.57072900  0.17449000  1
  C  1087  1  0.09596900  0.57837800  0.17501800  1
  C  1090  1  0.16326500  0.59186200  0.10944600  1
  C  1096  1  0.07823600  0.57540800  0.82327100  1
  C  1097  1  0.10018000  0.57266700  0.84489500  1
  C  1098  1  0.14161800  0.58060300  0.84580400  1
  C  1099  1  0.16080700  0.59211300  0.82453400  1
  C  1100  1  0.13881800  0.59474100  0.80299000  1
  C  1102  1  0.09774900  0.58711900  0.80248400  1
  C  1105  1  0.16439900  0.57620200  0.86853700  1
  C  1111  1  0.66105100  0.57601300  0.82354400  1
  C  1112  1  0.63906700  0.57325500  0.84515200  1
  C  1113  1  0.59768000  0.58139000  0.84607200  1
  C  1114  1  0.57858300  0.59313800  0.82483700  1
  C  1115  1  0.60061200  0.59576400  0.80330600  1
  C  1117  1  0.64163400  0.58794900  0.80278900  1
  C  1120  1  0.57483800  0.57692600  0.86877500  1
  C  1126  1  0.65946700  0.59176400  0.15413600  1
  C  1127  1  0.63731000  0.59519400  0.13264200  1
  C  1128  1  0.59591400  0.58708900  0.13171500  1
  C  1129  1  0.57698100  0.57469900  0.15281200  1
  C  1130  1  0.59917300  0.57141400  0.17423500  1
  C  1132  1  0.64019500  0.57922900  0.17475900  1
  C  1135  1  0.57287800  0.59221500  0.10915400  1
  C  1141  1  0.87135100  0.30990600  0.71900300  1
  C  1142  1  0.88225400  0.34349400  0.71437100  1
  C  1143  1  0.88270700  0.36860400  0.73252700  1
  C  1144  1  0.87107500  0.36012100  0.75647800  1
  C  1145  1  0.86049300  0.32629500  0.76104200  1
  C  1147  1  0.86041200  0.30170100  0.74277800  1
  C  1150  1  0.89624500  0.40286600  0.72581900  1
  C  1156  1  0.87146500  0.85722800  0.25916800  1
  C  1157  1  0.88216700  0.82359400  0.26380700  1
  C  1158  1  0.88260500  0.79850200  0.24563700  1
  C  1159  1  0.87113200  0.80704800  0.22167400  1
  C  1160  1  0.86076100  0.84091600  0.21709900  1
  C  1162  1  0.86070800  0.86549200  0.23537300  1
  C  1165  1  0.89595100  0.76418300  0.25233600  1
  C  1171  1  0.36621900  0.30982600  0.25877100  1
  C  1172  1  0.35465200  0.34329700  0.26327400  1
  C  1173  1  0.35420800  0.36835500  0.24508400  1
  C  1174  1  0.36663300  0.35997200  0.22126200  1
  C  1175  1  0.37780300  0.32624900  0.21681200  1
  C  1177  1  0.37784200  0.30169500  0.23510000  1
  C  1180  1  0.33988100  0.40246700  0.25159800  1
  C  1186  1  0.36627000  0.85711300  0.71862100  1
  C  1187  1  0.35548100  0.82349000  0.71402100  1
  C  1188  1  0.35504900  0.79843000  0.73221100  1
  C  1189  1  0.36666600  0.80699100  0.75614400  1
  C  1190  1  0.37704300  0.84086200  0.76069300  1
  C  1192  1  0.37708500  0.86540800  0.74240100  1
  C  1195  1  0.34158300  0.76412200  0.72556900  1
  N  374  1  0.99453000  0.52298200  0.53069800  1
  N  375  1  0.99329400  0.44660400  0.44764300  1
  N  389  1  0.48300500  0.52299200  0.44715100  1
  N  390  1  0.48450900  0.44595000  0.52987600  1
  N  404  1  0.99405600  0.02340100  0.03053300  1
  N  405  1  0.99295400  0.94606400  0.94788800  1
  N  419  1  0.48349800  0.02340600  0.94732500  1
  N  420  1  0.48490200  0.94545000  0.02965700  1
  N  434  1  0.15771900  0.49795800  0.65664100  1
  N  435  1  0.31853500  0.47171800  0.65546100  1
  N  449  1  0.15937000  0.47062400  0.32097100  1
  N  450  1  0.32018500  0.49686100  0.32207000  1
  N  464  1  0.82000400  0.47102200  0.32159600  1
  N  465  1  0.65942900  0.49821600  0.32269900  1
  N  479  1  0.81838100  0.49896200  0.65599800  1
  N  480  1  0.65776700  0.47190800  0.65485100  1
  N  494  1  0.15776100  0.99782100  0.15630500  1
  N  495  1  0.31855000  0.97185000  0.15510900  1
  N  509  1  0.15934300  0.97077500  0.82139000  1
  N  510  1  0.32013400  0.99675400  0.82254200  1
  N  524  1  0.81999700  0.97119900  0.82165100  1
  N  525  1  0.65935100  0.99786600  0.82281200  1
  N  539  1  0.81841400  0.99881200  0.15603400  1
  N  540  1  0.65775200  0.97217700  0.15484900  1
  N  554  1  0.99164300  0.68961600  0.70034800  1
  N  555  1  0.99136400  0.78161000  0.77591900  1
  N  569  1  0.99171500  0.27973700  0.27783900  1
  N  570  1  0.99146300  0.18780600  0.20223200  1
  N  584  1  0.48597600  0.68956600  0.27744600  1
  N  585  1  0.48641500  0.78140600  0.20179700  1
  N  599  1  0.48609300  0.27959900  0.69994100  1
  N  600  1  0.48634000  0.18779400  0.77560700  1
  N  974  1  0.87448700  0.12186500  0.53069800  1
  N  975  1  0.87325100  0.04548700  0.44764300  1
  N  989  1  0.36296200  0.12187500  0.44715100  1
  N  990  1  0.36446600  0.04483300  0.52987600  1
  N  1004  1  0.87401300  0.62228400  0.03053300  1
  N  1005  1  0.87291100  0.54494700  0.94788800  1
  N  1019  1  0.36345500  0.62228900  0.94732500  1
  N  1020  1  0.36485900  0.54433300  0.02965700  1
  N  1034  1  0.03767600  0.09684100  0.65664100  1
  N  1035  1  0.19849200  0.07060100  0.65546100  1
  N  1049  1  0.03932700  0.06950700  0.32097100  1
  N  1050  1  0.20014200  0.09574400  0.32207000  1
  N  1064  1  0.69996100  0.06990500  0.32159600  1
  N  1065  1  0.53938600  0.09709900  0.32269900  1
  N  1079  1  0.69833800  0.09784500  0.65599800  1
  N  1080  1  0.53772400  0.07079100  0.65485100  1
  N  1094  1  0.03771800  0.59670400  0.15630500  1
  N  1095  1  0.19850700  0.57073300  0.15510900  1
  N  1109  1  0.03930000  0.56965800  0.82139000  1
  N  1110  1  0.20009100  0.59563700  0.82254200  1
  N  1124  1  0.69995400  0.57008200  0.82165100  1
  N  1125  1  0.53930800  0.59674900  0.82281200  1
  N  1139  1  0.69837100  0.59769500  0.15603400  1
  N  1140  1  0.53770900  0.57106000  0.15484900  1
  N  1154  1  0.87160000  0.28849900  0.70034800  1
  N  1155  1  0.87132100  0.38049300  0.77591900  1
  N  1169  1  0.87167200  0.87862000  0.27783900  1
  N  1170  1  0.87142000  0.78668900  0.20223200  1
  N  1184  1  0.36593300  0.28844900  0.27744600  1
  N  1185  1  0.36637200  0.38028900  0.20179700  1
  N  1199  1  0.36605000  0.87848200  0.69994100  1
  N  1200  1  0.36629700  0.78667700  0.77560700  1
