# generated using pymatgen
data_H21C41N3
_symmetry_space_group_name_H-M   'P 1'
_cell_length_a   33.85260000
_cell_length_b   85.41852325
_cell_length_c   85.41760000
_cell_angle_alpha   120.00492726
_cell_angle_beta   90.00000000
_cell_angle_gamma   90.00000000
_symmetry_Int_Tables_number   1
_chemical_formula_structural   H21C41N3
_chemical_formula_sum   'H252 C492 N36'
_cell_volume   213894.94454051
_cell_formula_units_Z   12
loop_
 _symmetry_equiv_pos_site_id
 _symmetry_equiv_pos_as_xyz
  1  'x, y, z'
loop_
 _atom_site_type_symbol
 _atom_site_label
 _atom_site_symmetry_multiplicity
 _atom_site_fract_x
 _atom_site_fract_y
 _atom_site_fract_z
 _atom_site_occupancy
  H  18  1  0.71892900  0.40702700  0.76574700  1
  H  19  1  0.72418500  0.38786300  0.73383900  1
  H  20  1  0.75093800  0.36339300  0.77331500  1
  H  21  1  0.72207400  0.33346700  0.60218600  1
  H  22  1  0.75793000  0.38423300  0.64543900  1
  H  23  1  0.75237600  0.39704400  0.62622800  1
  H  24  1  0.71668200  0.34622800  0.58304700  1
  H  25  1  0.75794300  0.24848900  0.60556800  1
  H  26  1  0.71664400  0.22410300  0.64356300  1
  H  27  1  0.72205800  0.25600600  0.65633000  1
  H  28  1  0.75236500  0.21646700  0.59275100  1
  H  35  1  0.74406600  0.35864700  0.67989400  1
  H  36  1  0.74401100  0.30853300  0.63115900  1
  H  37  1  0.74407100  0.30991500  0.68127200  1
  H  38  1  0.75635900  0.34415700  0.74128700  1
  H  49  1  0.71523800  0.41020400  0.79551000  1
  H  50  1  0.71434200  0.37274700  0.57976400  1
  H  51  1  0.71429000  0.19430300  0.61704100  1
  H  69  1  0.21891700  0.57768700  0.22914900  1
  H  70  1  0.22414500  0.59685500  0.26105800  1
  H  71  1  0.25098800  0.62131200  0.22157800  1
  H  72  1  0.22214200  0.65125500  0.39271500  1
  H  73  1  0.25787400  0.60047500  0.34944400  1
  H  74  1  0.25230200  0.58766000  0.36865200  1
  H  75  1  0.21673600  0.63849000  0.41185200  1
  H  76  1  0.25794800  0.73622700  0.38932500  1
  H  77  1  0.21666300  0.76061300  0.35132700  1
  H  78  1  0.22205700  0.72870900  0.33856300  1
  H  79  1  0.25239100  0.76825000  0.40213900  1
  H  86  1  0.24405800  0.62606900  0.31500000  1
  H  87  1  0.24400800  0.67618200  0.36373600  1
  H  88  1  0.24406100  0.67480100  0.31362300  1
  H  89  1  0.25637900  0.64055300  0.25360500  1
  H  100  1  0.21528000  0.57450000  0.19938100  1
  H  101  1  0.21427000  0.61195400  0.41510900  1
  H  102  1  0.21430200  0.79041300  0.37785200  1
  H  121  1  0.69187300  0.39203500  0.56934200  1
  H  122  1  0.69324400  0.40837700  0.55341700  1
  H  123  1  0.79496100  0.41912200  0.59784100  1
  H  124  1  0.64501400  0.48624700  0.49591900  1
  H  125  1  0.57507800  0.46836900  0.52503400  1
  H  126  1  0.51660100  0.47666000  0.51507900  1
  H  127  1  0.58636300  0.49449200  0.48602900  1
  H  128  1  0.85014900  0.49423900  0.50487600  1
  H  129  1  0.97729900  0.47107000  0.51045600  1
  H  130  1  0.91846700  0.46184100  0.51928500  1
  H  131  1  0.90914200  0.50334700  0.49607800  1
  H  138  1  0.68388800  0.45090000  0.53913700  1
  H  139  1  0.74725800  0.47540000  0.51447700  1
  H  140  1  0.80866100  0.45046900  0.53922600  1
  H  141  1  0.79638300  0.43573800  0.58204500  1
  H  169  1  0.69183700  0.16459100  0.59774300  1
  H  170  1  0.69322900  0.13231900  0.58139900  1
  H  171  1  0.79498400  0.16601200  0.57069700  1
  H  172  1  0.64522100  0.99665900  0.49876900  1
  H  173  1  0.57509900  0.04403100  0.52377700  1
  H  174  1  0.51659200  0.02577800  0.51447700  1
  H  175  1  0.58650400  0.97855100  0.48952600  1
  H  176  1  0.85015200  0.99789800  0.49558500  1
  H  177  1  0.97731200  0.02665900  0.51870700  1
  H  178  1  0.91848100  0.04471900  0.52793600  1
  H  179  1  0.90914400  0.97999000  0.48647700  1
  H  186  1  0.68393900  0.07554400  0.53898900  1
  H  187  1  0.74725700  0.02636700  0.51448200  1
  H  188  1  0.80871700  0.07603300  0.53927600  1
  H  189  1  0.79642900  0.13359800  0.55408100  1
  H  217  1  0.69229200  0.42059500  0.82518400  1
  H  218  1  0.69362200  0.43653200  0.85745900  1
  H  219  1  0.79474200  0.39174800  0.82381100  1
  H  220  1  0.64520300  0.48928500  0.99313700  1
  H  221  1  0.57509000  0.46710400  0.94576800  1
  H  222  1  0.51658100  0.47605400  0.96402100  1
  H  223  1  0.58648700  0.49814900  0.01124600  1
  H  224  1  0.85013200  0.48497800  0.99191400  1
  H  225  1  0.97730400  0.47930300  0.96314900  1
  H  226  1  0.91847300  0.47047300  0.94508700  1
  H  227  1  0.90912300  0.49377600  0.00982000  1
  H  234  1  0.68393300  0.45071500  0.91425600  1
  H  235  1  0.74724200  0.47538800  0.96343700  1
  H  236  1  0.80871200  0.45051700  0.91377200  1
  H  237  1  0.79612200  0.40755500  0.85622600  1
  H  265  1  0.19185200  0.59266600  0.42553600  1
  H  266  1  0.19323200  0.57632000  0.44145900  1
  H  267  1  0.29499900  0.56561700  0.39706600  1
  H  268  1  0.14521800  0.49363700  0.49442300  1
  H  269  1  0.07510200  0.51873600  0.47215500  1
  H  270  1  0.01659200  0.50943300  0.48110600  1
  H  271  1  0.08650100  0.48439200  0.50328600  1
  H  272  1  0.35015000  0.49063500  0.49018000  1
  H  273  1  0.47750500  0.51350300  0.48437800  1
  H  274  1  0.41867700  0.52289500  0.47567000  1
  H  275  1  0.40907900  0.48141800  0.49889700  1
  H  282  1  0.18397400  0.53390400  0.45582300  1
  H  283  1  0.24729200  0.50938700  0.48048000  1
  H  284  1  0.30875000  0.53418500  0.45561600  1
  H  285  1  0.29642900  0.54900000  0.41286100  1
  H  313  1  0.19185500  0.82012400  0.39714600  1
  H  314  1  0.19323800  0.85239500  0.41349100  1
  H  315  1  0.29499900  0.81870700  0.42419800  1
  H  316  1  0.14521800  0.98805500  0.49621500  1
  H  317  1  0.07510500  0.94068700  0.47103000  1
  H  318  1  0.01659500  0.95894000  0.48033200  1
  H  319  1  0.08650100  0.00616400  0.50545900  1
  H  320  1  0.35016500  0.98680900  0.49936100  1
  H  321  1  0.47729900  0.95806700  0.47613500  1
  H  322  1  0.41846700  0.94000700  0.46690600  1
  H  323  1  0.40915900  0.00471600  0.50846600  1
  H  330  1  0.18393800  0.90917300  0.45590500  1
  H  331  1  0.24725700  0.95835000  0.48041200  1
  H  332  1  0.30871800  0.90868300  0.45561700  1
  H  333  1  0.29643200  0.85112000  0.44081500  1
  H  361  1  0.19231300  0.56411100  0.16971000  1
  H  362  1  0.19363900  0.54817500  0.13743500  1
  H  363  1  0.29473100  0.59297500  0.17108100  1
  H  364  1  0.14520300  0.49545800  0.00175800  1
  H  365  1  0.07509000  0.51758500  0.04912300  1
  H  366  1  0.01658000  0.50863600  0.03087100  1
  H  367  1  0.08648600  0.48659400  0.98364900  1
  H  368  1  0.35013500  0.49975400  0.00298300  1
  H  369  1  0.47730100  0.50539500  0.03174200  1
  H  370  1  0.41847000  0.51422400  0.04980300  1
  H  371  1  0.40912600  0.49095600  0.98507500  1
  H  378  1  0.18393300  0.53400000  0.08063800  1
  H  379  1  0.24724200  0.50932700  0.03145700  1
  H  380  1  0.30871200  0.53419900  0.08112200  1
  H  381  1  0.29610700  0.57717100  0.13866800  1
  H  408  1  0.51215000  0.40702700  0.87111200  1
  H  409  1  0.51740600  0.38786300  0.83920400  1
  H  410  1  0.54415900  0.36339300  0.87868000  1
  H  411  1  0.51529500  0.33346700  0.70755100  1
  H  412  1  0.55115100  0.38423300  0.75080400  1
  H  413  1  0.54559700  0.39704400  0.73159300  1
  H  414  1  0.50990300  0.34622800  0.68841200  1
  H  415  1  0.55116400  0.24848900  0.71093300  1
  H  416  1  0.50986500  0.22410300  0.74892800  1
  H  417  1  0.51527900  0.25600600  0.76169500  1
  H  418  1  0.54558600  0.21646700  0.69811600  1
  H  425  1  0.53728700  0.35864700  0.78525900  1
  H  426  1  0.53723200  0.30853300  0.73652400  1
  H  427  1  0.53729200  0.30991500  0.78663700  1
  H  428  1  0.54958000  0.34415700  0.84665200  1
  H  439  1  0.50845900  0.41020400  0.90087500  1
  H  440  1  0.50756300  0.37274700  0.68512900  1
  H  441  1  0.50751100  0.19430300  0.72240600  1
  H  459  1  0.01213800  0.57768700  0.33451400  1
  H  460  1  0.01736600  0.59685500  0.36642300  1
  H  461  1  0.04420900  0.62131200  0.32694300  1
  H  462  1  0.01536300  0.65125500  0.49808000  1
  H  463  1  0.05109500  0.60047500  0.45480900  1
  H  464  1  0.04552300  0.58766000  0.47401700  1
  H  465  1  0.00995700  0.63849000  0.51721700  1
  H  466  1  0.05116900  0.73622700  0.49469000  1
  H  467  1  0.00988400  0.76061300  0.45669200  1
  H  468  1  0.01527800  0.72870900  0.44392800  1
  H  469  1  0.04561200  0.76825000  0.50750400  1
  H  476  1  0.03727900  0.62606900  0.42036500  1
  H  477  1  0.03722900  0.67618200  0.46910100  1
  H  478  1  0.03728200  0.67480100  0.41898800  1
  H  479  1  0.04960000  0.64055300  0.35897000  1
  H  490  1  0.00850100  0.57450000  0.30474600  1
  H  491  1  0.00749100  0.61195400  0.52047400  1
  H  492  1  0.00752300  0.79041300  0.48321700  1
  H  511  1  0.48509400  0.39203500  0.67470700  1
  H  512  1  0.48646500  0.40837700  0.65878200  1
  H  513  1  0.58818200  0.41912200  0.70320600  1
  H  514  1  0.43823500  0.48624700  0.60128400  1
  H  515  1  0.36829900  0.46836900  0.63039900  1
  H  516  1  0.30982200  0.47666000  0.62044400  1
  H  517  1  0.37958400  0.49449200  0.59139370  1
  H  518  1  0.64337000  0.49423900  0.61024100  1
  H  519  1  0.77052000  0.47107000  0.61582100  1
  H  520  1  0.71168800  0.46184100  0.62465000  1
  H  521  1  0.70236300  0.50334700  0.60144270  1
  H  528  1  0.47710900  0.45090000  0.64450200  1
  H  529  1  0.54047900  0.47540000  0.61984200  1
  H  530  1  0.60188200  0.45046900  0.64459100  1
  H  531  1  0.58960400  0.43573800  0.68741000  1
  H  559  1  0.48505800  0.16459100  0.70310800  1
  H  560  1  0.48645000  0.13231900  0.68676400  1
  H  561  1  0.58820500  0.16601200  0.67606200  1
  H  562  1  0.43844200  0.99665900  0.60413400  1
  H  563  1  0.36832000  0.04403100  0.62914200  1
  H  564  1  0.30981300  0.02577800  0.61984200  1
  H  565  1  0.37972500  0.97855100  0.59489100  1
  H  566  1  0.64337300  0.99789800  0.60095000  1
  H  567  1  0.77053300  0.02665900  0.62407200  1
  H  568  1  0.71170200  0.04471900  0.63330100  1
  H  569  1  0.70236500  0.97999000  0.59184200  1
  H  576  1  0.47716000  0.07554400  0.64435400  1
  H  577  1  0.54047800  0.02636700  0.61984700  1
  H  578  1  0.60193800  0.07603300  0.64464100  1
  H  579  1  0.58965000  0.13359800  0.65944600  1
  H  607  1  0.48551300  0.42059500  0.93054900  1
  H  608  1  0.48684300  0.43653200  0.96282400  1
  H  609  1  0.58796300  0.39174800  0.92917600  1
  H  610  1  0.43842400  0.48928500  0.09850200  1
  H  611  1  0.36831100  0.46710400  0.05113300  1
  H  612  1  0.30980200  0.47605400  0.06938600  1
  H  613  1  0.37970800  0.49814900  0.11661100  1
  H  614  1  0.64335300  0.48497800  0.09727900  1
  H  615  1  0.77052500  0.47930300  0.06851400  1
  H  616  1  0.71169400  0.47047300  0.05045200  1
  H  617  1  0.70234400  0.49377600  0.11518500  1
  H  624  1  0.47715400  0.45071500  0.01962100  1
  H  625  1  0.54046300  0.47538800  0.06880200  1
  H  626  1  0.60193300  0.45051700  0.01913700  1
  H  627  1  0.58934300  0.40755500  0.96159100  1
  H  655  1  0.98507320  0.59266600  0.53090100  1
  H  656  1  0.98645320  0.57632000  0.54682400  1
  H  657  1  0.08822000  0.56561700  0.50243100  1
  H  658  1  0.93843920  0.49363700  0.59978800  1
  H  659  1  0.86832300  0.51873600  0.57751970  1
  H  660  1  0.80981300  0.50943300  0.58647070  1
  H  661  1  0.87972200  0.48439200  0.60865100  1
  H  662  1  0.14337100  0.49063500  0.59554500  1
  H  663  1  0.27072600  0.51350300  0.58974270  1
  H  664  1  0.21189800  0.52289500  0.58103470  1
  H  665  1  0.20230000  0.48141800  0.60426200  1
  H  672  1  0.97719520  0.53390400  0.56118770  1
  H  673  1  0.04051300  0.50938700  0.58584470  1
  H  674  1  0.10197100  0.53418500  0.56098070  1
  H  675  1  0.08965000  0.54900000  0.51822600  1
  H  703  1  0.98507620  0.82012400  0.50251100  1
  H  704  1  0.98645920  0.85239500  0.51885600  1
  H  705  1  0.08822000  0.81870700  0.52956300  1
  H  706  1  0.93843920  0.98805500  0.60158000  1
  H  707  1  0.86832600  0.94068700  0.57639500  1
  H  708  1  0.80981600  0.95894000  0.58569700  1
  H  709  1  0.87972200  0.00616400  0.61082400  1
  H  710  1  0.14338600  0.98680900  0.60472600  1
  H  711  1  0.27052000  0.95806700  0.58150000  1
  H  712  1  0.21168800  0.94000700  0.57227100  1
  H  713  1  0.20238000  0.00471600  0.61383100  1
  H  720  1  0.97715920  0.90917300  0.56127000  1
  H  721  1  0.04047800  0.95835000  0.58577700  1
  H  722  1  0.10193900  0.90868300  0.56098200  1
  H  723  1  0.08965300  0.85112000  0.54618000  1
  H  751  1  0.98553420  0.56411100  0.27507500  1
  H  752  1  0.98686020  0.54817500  0.24280000  1
  H  753  1  0.08795200  0.59297500  0.27644600  1
  H  754  1  0.93842420  0.49545800  0.10712300  1
  H  755  1  0.86831100  0.51758500  0.15448800  1
  H  756  1  0.80980100  0.50863600  0.13623600  1
  H  757  1  0.87970700  0.48659400  0.08901400  1
  H  758  1  0.14335600  0.49975400  0.10834800  1
  H  759  1  0.27052200  0.50539500  0.13710700  1
  H  760  1  0.21169100  0.51422400  0.15516800  1
  H  761  1  0.20234700  0.49095600  0.09044000  1
  H  768  1  0.97715420  0.53400000  0.18600300  1
  H  769  1  0.04046300  0.50932700  0.13682200  1
  H  770  1  0.10193300  0.53419900  0.18648700  1
  H  771  1  0.08932800  0.57717100  0.24403300  1
  C  1  1  0.74064300  0.35765100  0.62559000  1
  C  2  1  0.74091300  0.36423100  0.73458700  1
  C  3  1  0.74064400  0.25522300  0.63214800  1
  C  4  1  0.74870300  0.35743200  0.74632000  1
  C  5  1  0.73464300  0.38721100  0.77281400  1
  C  6  1  0.72705300  0.39383200  0.76085200  1
  C  7  1  0.73016800  0.38254700  0.74200900  1
  C  8  1  0.74944900  0.37607600  0.63226300  1
  C  9  1  0.74625500  0.38359300  0.62090600  1
  C  10  1  0.73420000  0.37292200  0.60263600  1
  C  11  1  0.72560000  0.35444300  0.59613900  1
  C  12  1  0.72878800  0.34687600  0.60741200  1
  C  13  1  0.74946400  0.24347100  0.61372500  1
  C  14  1  0.74626600  0.22459600  0.60620500  1
  C  15  1  0.73418000  0.21699700  0.61687100  1
  C  16  1  0.72557600  0.22898000  0.63535100  1
  C  17  1  0.72878200  0.24782100  0.64292300  1
  C  29  1  0.74426600  0.30655600  0.65492800  1
  C  30  1  0.74421800  0.31577300  0.64504900  1
  C  31  1  0.74426100  0.33487600  0.65414600  1
  C  32  1  0.74424600  0.34475800  0.67324400  1
  C  33  1  0.74429000  0.33566200  0.68325000  1
  C  34  1  0.74424700  0.31656400  0.67403200  1
  C  39  1  0.74274900  0.27275700  0.63927300  1
  C  40  1  0.74378800  0.28889100  0.64650400  1
  C  41  1  0.74289500  0.35381100  0.71705000  1
  C  42  1  0.74386000  0.34490400  0.70091700  1
  C  43  1  0.74378200  0.34330000  0.64490400  1
  C  44  1  0.74274400  0.35052900  0.63600100  1
  C  45  1  0.72947600  0.19845600  0.60981900  1
  C  46  1  0.72952700  0.37996900  0.59114000  1
  C  47  1  0.73000900  0.39872300  0.79135400  1
  C  48  1  0.74561700  0.36880400  0.76519700  1
  C  52  1  0.24066100  0.62706500  0.36930400  1
  C  53  1  0.24089400  0.62048500  0.26030800  1
  C  54  1  0.24064600  0.72949200  0.36274400  1
  C  55  1  0.24872200  0.62727800  0.24857200  1
  C  56  1  0.23465200  0.59749800  0.22208000  1
  C  57  1  0.22703700  0.59088200  0.23404400  1
  C  58  1  0.23013300  0.60217000  0.25288600  1
  C  59  1  0.24941900  0.60863400  0.36262400  1
  C  60  1  0.24623800  0.60111700  0.37398100  1
  C  61  1  0.23420900  0.61179200  0.39225500  1
  C  62  1  0.22564300  0.63027500  0.39875800  1
  C  63  1  0.22884800  0.63784500  0.38748900  1
  C  64  1  0.24945800  0.74124500  0.38117000  1
  C  65  1  0.24626500  0.76012000  0.38868800  1
  C  66  1  0.23420600  0.76771800  0.37801700  1
  C  67  1  0.22558700  0.75573400  0.35954000  1
  C  68  1  0.22878300  0.73689500  0.35197100  1
  C  80  1  0.24425300  0.67816000  0.33996600  1
  C  81  1  0.24420600  0.66894200  0.34984600  1
  C  82  1  0.24425000  0.64983900  0.34074900  1
  C  83  1  0.24423500  0.63995800  0.32165000  1
  C  84  1  0.24427900  0.64905400  0.31164400  1
  C  85  1  0.24423800  0.66815300  0.32086300  1
  C  90  1  0.24274600  0.71195800  0.35562000  1
  C  91  1  0.24378000  0.69582400  0.34839100  1
  C  92  1  0.24287900  0.63090500  0.27784400  1
  C  93  1  0.24384800  0.63981300  0.29397900  1
  C  94  1  0.24378000  0.64141500  0.34998900  1
  C  95  1  0.24275200  0.63418700  0.35889300  1
  C  96  1  0.22951500  0.78626000  0.38506700  1
  C  97  1  0.22949800  0.60474100  0.40374400  1
  C  98  1  0.23005300  0.58598100  0.20353900  1
  C  99  1  0.24563500  0.61590500  0.22969600  1
  C  103  1  0.61549500  0.47663400  0.51146100  1
  C  104  1  0.74508300  0.42351100  0.56617500  1
  C  105  1  0.87887000  0.47720800  0.51291700  1
  C  106  1  0.77427800  0.42649300  0.57919000  1
  C  107  1  0.77343200  0.41675000  0.58849100  1
  C  108  1  0.74378700  0.40375300  0.58491200  1
  C  109  1  0.71433600  0.40101800  0.57200200  1
  C  110  1  0.71499900  0.41073200  0.56269100  1
  C  111  1  0.57787300  0.47379000  0.51674000  1
  C  112  1  0.54347700  0.47859600  0.51085300  1
  C  113  1  0.54599600  0.48634700  0.49960200  1
  C  114  1  0.58368000  0.48888000  0.49416700  1
  C  115  1  0.61816200  0.48408500  0.49999900  1
  C  116  1  0.87676600  0.48925700  0.50614600  1
  C  117  1  0.91139800  0.49461100  0.50096600  1
  C  118  1  0.94870900  0.48812000  0.50247600  1
  C  119  1  0.95067300  0.47604300  0.50927000  1
  C  120  1  0.91609200  0.47062000  0.51444000  1
  C  132  1  0.78301100  0.46356000  0.52617300  1
  C  133  1  0.74697700  0.46845800  0.52143100  1
  C  134  1  0.71056100  0.46388600  0.52619200  1
  C  135  1  0.71032100  0.45429000  0.53569900  1
  C  136  1  0.74622200  0.44934500  0.54051500  1
  C  137  1  0.78249800  0.45401700  0.53572800  1
  C  142  1  0.84663900  0.47223100  0.51763500  1
  C  143  1  0.81651600  0.46794300  0.52178900  1
  C  144  1  0.74567400  0.43246600  0.55747200  1
  C  145  1  0.74592800  0.44054400  0.54938200  1
  C  146  1  0.67740700  0.46836300  0.52162000  1
  C  147  1  0.64754800  0.47235900  0.51698300  1
  C  151  1  0.61558600  0.02203200  0.51214700  1
  C  152  1  0.74510300  0.12995200  0.56629100  1
  C  153  1  0.87887800  0.02297700  0.51259400  1
  C  154  1  0.77430600  0.13998700  0.56331700  1
  C  155  1  0.77344700  0.15903100  0.57306100  1
  C  156  1  0.74377900  0.16844500  0.58604600  1
  C  157  1  0.71431500  0.15826800  0.58877000  1
  C  158  1  0.71499200  0.13924100  0.57905400  1
  C  159  1  0.57793200  0.03024100  0.51658200  1
  C  160  1  0.54353600  0.01952600  0.51113500  1
  C  161  1  0.54608500  0.00042900  0.50115300  1
  C  162  1  0.58381600  0.99233300  0.49674600  1
  C  163  1  0.61828600  0.00298600  0.50218800  1
  C  164  1  0.87677000  0.00415200  0.50055900  1
  C  165  1  0.91140300  0.99361700  0.49520200  1
  C  166  1  0.94871600  0.00162200  0.50168300  1
  C  167  1  0.95068400  0.02049800  0.51374700  1
  C  168  1  0.91610300  0.03109100  0.51916800  1
  C  180  1  0.78303500  0.04989400  0.52624500  1
  C  181  1  0.74698900  0.04026300  0.52142600  1
  C  182  1  0.71058000  0.04960400  0.52607300  1
  C  183  1  0.71036300  0.06870800  0.53559700  1
  C  184  1  0.74627900  0.07846000  0.54046400  1
  C  185  1  0.78254500  0.06899300  0.53576600  1
  C  190  1  0.84664800  0.03267200  0.51756000  1
  C  191  1  0.81652900  0.04111900  0.52184400  1
  C  192  1  0.74572000  0.11229500  0.55733200  1
  C  193  1  0.74599700  0.09612800  0.54924900  1
  C  194  1  0.67742800  0.04054900  0.52152000  1
  C  195  1  0.64761300  0.03187600  0.51713800  1
  C  199  1  0.61557200  0.47738300  0.96776700  1
  C  200  1  0.74514300  0.42360200  0.85985000  1
  C  201  1  0.87886400  0.47689000  0.96683100  1
  C  202  1  0.77416200  0.41048100  0.84982700  1
  C  203  1  0.77334000  0.40117500  0.83078300  1
  C  204  1  0.74389900  0.40485500  0.82135600  1
  C  205  1  0.71461200  0.41786700  0.83152000  1
  C  206  1  0.71525000  0.42718200  0.85054600  1
  C  207  1  0.57792000  0.47366000  0.95955900  1
  C  208  1  0.54352400  0.47892500  0.97027300  1
  C  209  1  0.54606700  0.48798700  0.98937000  1
  C  210  1  0.58380100  0.49162600  0.99746400  1
  C  211  1  0.61827100  0.48641600  0.98681200  1
  C  212  1  0.87675300  0.48368900  0.98565700  1
  C  213  1  0.91138500  0.48886800  0.99619300  1
  C  214  1  0.94870100  0.48733300  0.98818700  1
  C  215  1  0.95067200  0.48051100  0.96931000  1
  C  216  1  0.91609300  0.47533900  0.95871600  1
  C  228  1  0.78302500  0.46362700  0.93991100  1
  C  229  1  0.74697700  0.46843600  0.94954000  1
  C  230  1  0.71057000  0.46374100  0.94019700  1
  C  231  1  0.71035700  0.45416000  0.92109200  1
  C  232  1  0.74627500  0.44927600  0.91134200  1
  C  233  1  0.78253900  0.45404600  0.92081100  1
  C  238  1  0.84663500  0.47216300  0.95713500  1
  C  239  1  0.81651700  0.46799900  0.94868700  1
  C  240  1  0.74573200  0.43230500  0.87750700  1
  C  241  1  0.74599800  0.44039100  0.89367400  1
  C  242  1  0.67741600  0.46824100  0.94925100  1
  C  243  1  0.64759900  0.47253200  0.95792300  1
  C  247  1  0.11558900  0.50706000  0.48247700  1
  C  248  1  0.24510400  0.56120700  0.42871600  1
  C  249  1  0.37897800  0.50756700  0.48204200  1
  C  250  1  0.27430700  0.55823600  0.41570800  1
  C  251  1  0.27345600  0.56798000  0.40640900  1
  C  252  1  0.24379200  0.58096700  0.40998100  1
  C  253  1  0.21432600  0.58369000  0.42288200  1
  C  254  1  0.21499700  0.57397400  0.43219100  1
  C  255  1  0.07793500  0.51152100  0.47873000  1
  C  256  1  0.04353600  0.50607200  0.48399500  1
  C  257  1  0.04607900  0.49606400  0.49308300  1
  C  258  1  0.08381300  0.49163200  0.49674500  1
  C  259  1  0.11828300  0.49707400  0.49153500  1
  C  260  1  0.37679500  0.49556600  0.48886700  1
  C  261  1  0.41138900  0.49015500  0.49401200  1
  C  262  1  0.44877200  0.49643800  0.49229300  1
  C  263  1  0.45082800  0.50857600  0.48557700  1
  C  264  1  0.41625400  0.51410900  0.48050300  1
  C  276  1  0.28308300  0.52114500  0.46871500  1
  C  277  1  0.24702700  0.51633200  0.47353000  1
  C  278  1  0.21061300  0.52098400  0.46884200  1
  C  279  1  0.21040000  0.53051100  0.45926600  1
  C  280  1  0.24631500  0.53537700  0.45438000  1
  C  281  1  0.28258100  0.53067300  0.45914500  1
  C  286  1  0.34675000  0.51251500  0.47728100  1
  C  287  1  0.31659900  0.51675300  0.47309400  1
  C  288  1  0.24572700  0.55225000  0.43741600  1
  C  289  1  0.24602500  0.54416600  0.44550000  1
  C  290  1  0.17745100  0.51643200  0.47334000  1
  C  291  1  0.14762200  0.51205400  0.47762700  1
  C  295  1  0.11558600  0.96268600  0.48275000  1
  C  296  1  0.24510700  0.85476600  0.42860400  1
  C  297  1  0.37888100  0.96173900  0.48230100  1
  C  298  1  0.27431300  0.84473100  0.43157900  1
  C  299  1  0.27345900  0.82568800  0.42183500  1
  C  300  1  0.24379500  0.81627200  0.40884600  1
  C  301  1  0.21432900  0.82644700  0.40612200  1
  C  302  1  0.21500000  0.84547400  0.41583800  1
  C  303  1  0.07793500  0.95447700  0.47826400  1
  C  304  1  0.04353900  0.96519100  0.48371200  1
  C  305  1  0.04608200  0.98428700  0.49374500  1
  C  306  1  0.08381300  0.99238100  0.49820000  1
  C  307  1  0.11828600  0.98173000  0.49276000  1
  C  308  1  0.37678000  0.98055800  0.49436500  1
  C  309  1  0.41141000  0.99109300  0.49972000  1
  C  310  1  0.44871600  0.98309400  0.49321000  1
  C  311  1  0.45067700  0.96422500  0.48111900  1
  C  312  1  0.41609800  0.95363100  0.47569700  1
  C  324  1  0.28303600  0.93482300  0.46864700  1
  C  325  1  0.24699100  0.94445400  0.47346800  1
  C  326  1  0.21058000  0.93511300  0.46882100  1
  C  327  1  0.21036500  0.91600800  0.45929600  1
  C  328  1  0.24627900  0.90625700  0.45443000  1
  C  329  1  0.28254500  0.91572400  0.45912700  1
  C  334  1  0.34665000  0.95204400  0.47733300  1
  C  335  1  0.31653100  0.94359800  0.47305000  1
  C  336  1  0.24572100  0.87242200  0.43756300  1
  C  337  1  0.24599900  0.88858900  0.44564500  1
  C  338  1  0.17742800  0.94416700  0.47337500  1
  C  339  1  0.14761300  0.95284000  0.47775600  1
  C  343  1  0.11557100  0.50733300  0.02712600  1
  C  344  1  0.24514200  0.56111500  0.13504400  1
  C  345  1  0.37886600  0.50782500  0.02806200  1
  C  346  1  0.27415300  0.57424200  0.14506700  1
  C  347  1  0.27333500  0.58354600  0.16411000  1
  C  348  1  0.24390400  0.57986000  0.17353700  1
  C  349  1  0.21462400  0.56684400  0.16337500  1
  C  350  1  0.21525900  0.55753000  0.14434800  1
  C  351  1  0.07792300  0.51104200  0.03533500  1
  C  352  1  0.04352400  0.50577700  0.02462100  1
  C  353  1  0.04606700  0.49672900  0.00552300  1
  C  354  1  0.08379800  0.49310500  0.99743000  1
  C  355  1  0.11827100  0.49831600  0.00808200  1
  C  356  1  0.37675700  0.50103500  0.00923700  1
  C  357  1  0.41138600  0.49585800  0.99870300  1
  C  358  1  0.44870100  0.49738200  0.00670600  1
  C  359  1  0.45067100  0.50419400  0.02558200  1
  C  360  1  0.41609200  0.50936600  0.03617600  1
  C  372  1  0.28302400  0.52108900  0.05498300  1
  C  373  1  0.24697600  0.51628000  0.04535400  1
  C  374  1  0.21057200  0.52097300  0.05469600  1
  C  375  1  0.21035900  0.53055500  0.07380100  1
  C  376  1  0.24627300  0.53544000  0.08355100  1
  C  377  1  0.28253900  0.53066900  0.07408300  1
  C  382  1  0.34663500  0.51255300  0.03775900  1
  C  383  1  0.31651600  0.51671600  0.04620600  1
  C  384  1  0.24573000  0.55241300  0.11738800  1
  C  385  1  0.24599900  0.54432400  0.10121900  1
  C  386  1  0.17741600  0.51647500  0.04564400  1
  C  387  1  0.14759900  0.51218400  0.03697100  1
  C  391  1  0.53386400  0.35765100  0.73095500  1
  C  392  1  0.53413400  0.36423100  0.83995200  1
  C  393  1  0.53386500  0.25522300  0.73751300  1
  C  394  1  0.54192400  0.35743200  0.85168500  1
  C  395  1  0.52786400  0.38721100  0.87817900  1
  C  396  1  0.52027400  0.39383200  0.86621700  1
  C  397  1  0.52338900  0.38254700  0.84737400  1
  C  398  1  0.54267000  0.37607600  0.73762800  1
  C  399  1  0.53947600  0.38359300  0.72627100  1
  C  400  1  0.52742100  0.37292200  0.70800100  1
  C  401  1  0.51882100  0.35444300  0.70150400  1
  C  402  1  0.52200900  0.34687600  0.71277700  1
  C  403  1  0.54268500  0.24347100  0.71909000  1
  C  404  1  0.53948700  0.22459600  0.71157000  1
  C  405  1  0.52740100  0.21699700  0.72223600  1
  C  406  1  0.51879700  0.22898000  0.74071600  1
  C  407  1  0.52200300  0.24782100  0.74828800  1
  C  419  1  0.53748700  0.30655600  0.76029300  1
  C  420  1  0.53743900  0.31577300  0.75041400  1
  C  421  1  0.53748200  0.33487600  0.75951100  1
  C  422  1  0.53746700  0.34475800  0.77860900  1
  C  423  1  0.53751100  0.33566200  0.78861500  1
  C  424  1  0.53746800  0.31656400  0.77939700  1
  C  429  1  0.53597000  0.27275700  0.74463800  1
  C  430  1  0.53700900  0.28889100  0.75186900  1
  C  431  1  0.53611600  0.35381100  0.82241500  1
  C  432  1  0.53708100  0.34490400  0.80628200  1
  C  433  1  0.53700300  0.34330000  0.75026900  1
  C  434  1  0.53596500  0.35052900  0.74136600  1
  C  435  1  0.52269700  0.19845600  0.71518400  1
  C  436  1  0.52274800  0.37996900  0.69650500  1
  C  437  1  0.52323000  0.39872300  0.89671900  1
  C  438  1  0.53883800  0.36880400  0.87056200  1
  C  442  1  0.03388200  0.62706500  0.47466900  1
  C  443  1  0.03411500  0.62048500  0.36567300  1
  C  444  1  0.03386700  0.72949200  0.46810900  1
  C  445  1  0.04194300  0.62727800  0.35393700  1
  C  446  1  0.02787300  0.59749800  0.32744500  1
  C  447  1  0.02025800  0.59088200  0.33940900  1
  C  448  1  0.02335400  0.60217000  0.35825100  1
  C  449  1  0.04264000  0.60863400  0.46798900  1
  C  450  1  0.03945900  0.60111700  0.47934600  1
  C  451  1  0.02743000  0.61179200  0.49762000  1
  C  452  1  0.01886400  0.63027500  0.50412300  1
  C  453  1  0.02206900  0.63784500  0.49285400  1
  C  454  1  0.04267900  0.74124500  0.48653500  1
  C  455  1  0.03948600  0.76012000  0.49405300  1
  C  456  1  0.02742700  0.76771800  0.48338200  1
  C  457  1  0.01880800  0.75573400  0.46490500  1
  C  458  1  0.02200400  0.73689500  0.45733600  1
  C  470  1  0.03747400  0.67816000  0.44533100  1
  C  471  1  0.03742700  0.66894200  0.45521100  1
  C  472  1  0.03747100  0.64983900  0.44611400  1
  C  473  1  0.03745600  0.63995800  0.42701500  1
  C  474  1  0.03750000  0.64905400  0.41700900  1
  C  475  1  0.03745900  0.66815300  0.42622800  1
  C  480  1  0.03596700  0.71195800  0.46098500  1
  C  481  1  0.03700100  0.69582400  0.45375600  1
  C  482  1  0.03610000  0.63090500  0.38320900  1
  C  483  1  0.03706900  0.63981300  0.39934400  1
  C  484  1  0.03700100  0.64141500  0.45535400  1
  C  485  1  0.03597300  0.63418700  0.46425800  1
  C  486  1  0.02273600  0.78626000  0.49043200  1
  C  487  1  0.02271900  0.60474100  0.50910900  1
  C  488  1  0.02327400  0.58598100  0.30890400  1
  C  489  1  0.03885600  0.61590500  0.33506100  1
  C  493  1  0.40871600  0.47663400  0.61682600  1
  C  494  1  0.53830400  0.42351100  0.67154000  1
  C  495  1  0.67209100  0.47720800  0.61828200  1
  C  496  1  0.56749900  0.42649300  0.68455500  1
  C  497  1  0.56665300  0.41675000  0.69385600  1
  C  498  1  0.53700800  0.40375300  0.69027700  1
  C  499  1  0.50755700  0.40101800  0.67736700  1
  C  500  1  0.50822000  0.41073200  0.66805600  1
  C  501  1  0.37109400  0.47379000  0.62210500  1
  C  502  1  0.33669800  0.47859600  0.61621800  1
  C  503  1  0.33921700  0.48634700  0.60496700  1
  C  504  1  0.37690100  0.48888000  0.59953200  1
  C  505  1  0.41138300  0.48408500  0.60536400  1
  C  506  1  0.66998700  0.48925700  0.61151100  1
  C  507  1  0.70461900  0.49461100  0.60633100  1
  C  508  1  0.74193000  0.48812000  0.60784100  1
  C  509  1  0.74389400  0.47604300  0.61463500  1
  C  510  1  0.70931300  0.47062000  0.61980500  1
  C  522  1  0.57623200  0.46356000  0.63153800  1
  C  523  1  0.54019800  0.46845800  0.62679600  1
  C  524  1  0.50378200  0.46388600  0.63155700  1
  C  525  1  0.50354200  0.45429000  0.64106400  1
  C  526  1  0.53944300  0.44934500  0.64588000  1
  C  527  1  0.57571900  0.45401700  0.64109300  1
  C  532  1  0.63986000  0.47223100  0.62300000  1
  C  533  1  0.60973700  0.46794300  0.62715400  1
  C  534  1  0.53889500  0.43246600  0.66283700  1
  C  535  1  0.53914900  0.44054400  0.65474700  1
  C  536  1  0.47062800  0.46836300  0.62698500  1
  C  537  1  0.44076900  0.47235900  0.62234800  1
  C  541  1  0.40880700  0.02203200  0.61751200  1
  C  542  1  0.53832400  0.12995200  0.67165600  1
  C  543  1  0.67209900  0.02297700  0.61795900  1
  C  544  1  0.56752700  0.13998700  0.66868200  1
  C  545  1  0.56666800  0.15903100  0.67842600  1
  C  546  1  0.53700000  0.16844500  0.69141100  1
  C  547  1  0.50753600  0.15826800  0.69413500  1
  C  548  1  0.50821300  0.13924100  0.68441900  1
  C  549  1  0.37115300  0.03024100  0.62194700  1
  C  550  1  0.33675700  0.01952600  0.61650000  1
  C  551  1  0.33930600  0.00042900  0.60651800  1
  C  552  1  0.37703700  0.99233300  0.60211100  1
  C  553  1  0.41150700  0.00298600  0.60755300  1
  C  554  1  0.66999100  0.00415200  0.60592400  1
  C  555  1  0.70462400  0.99361700  0.60056700  1
  C  556  1  0.74193700  0.00162200  0.60704800  1
  C  557  1  0.74390500  0.02049800  0.61911200  1
  C  558  1  0.70932400  0.03109100  0.62453300  1
  C  570  1  0.57625600  0.04989400  0.63161000  1
  C  571  1  0.54021000  0.04026300  0.62679100  1
  C  572  1  0.50380100  0.04960400  0.63143800  1
  C  573  1  0.50358400  0.06870800  0.64096200  1
  C  574  1  0.53950000  0.07846000  0.64582900  1
  C  575  1  0.57576600  0.06899300  0.64113100  1
  C  580  1  0.63986900  0.03267200  0.62292500  1
  C  581  1  0.60975000  0.04111900  0.62720900  1
  C  582  1  0.53894100  0.11229500  0.66269700  1
  C  583  1  0.53921800  0.09612800  0.65461400  1
  C  584  1  0.47064900  0.04054900  0.62688500  1
  C  585  1  0.44083400  0.03187600  0.62250300  1
  C  589  1  0.40879300  0.47738300  0.07313200  1
  C  590  1  0.53836400  0.42360200  0.96521500  1
  C  591  1  0.67208500  0.47689000  0.07219600  1
  C  592  1  0.56738300  0.41048100  0.95519200  1
  C  593  1  0.56656100  0.40117500  0.93614800  1
  C  594  1  0.53712000  0.40485500  0.92672100  1
  C  595  1  0.50783300  0.41786700  0.93688500  1
  C  596  1  0.50847100  0.42718200  0.95591100  1
  C  597  1  0.37114100  0.47366000  0.06492400  1
  C  598  1  0.33674500  0.47892500  0.07563800  1
  C  599  1  0.33928800  0.48798700  0.09473500  1
  C  600  1  0.37702200  0.49162600  0.10282900  1
  C  601  1  0.41149200  0.48641600  0.09217700  1
  C  602  1  0.66997400  0.48368900  0.09102200  1
  C  603  1  0.70460600  0.48886800  0.10155800  1
  C  604  1  0.74192200  0.48733300  0.09355200  1
  C  605  1  0.74389300  0.48051100  0.07467500  1
  C  606  1  0.70931400  0.47533900  0.06408100  1
  C  618  1  0.57624600  0.46362700  0.04527600  1
  C  619  1  0.54019800  0.46843600  0.05490500  1
  C  620  1  0.50379100  0.46374100  0.04556200  1
  C  621  1  0.50357800  0.45416000  0.02645700  1
  C  622  1  0.53949600  0.44927600  0.01670700  1
  C  623  1  0.57576000  0.45404600  0.02617600  1
  C  628  1  0.63985600  0.47216300  0.06250000  1
  C  629  1  0.60973800  0.46799900  0.05405200  1
  C  630  1  0.53895300  0.43230500  0.98287200  1
  C  631  1  0.53921900  0.44039100  0.99903900  1
  C  632  1  0.47063700  0.46824100  0.05461600  1
  C  633  1  0.44082000  0.47253200  0.06328800  1
  C  637  1  0.90881020  0.50706000  0.58784170  1
  C  638  1  0.03832500  0.56120700  0.53408100  1
  C  639  1  0.17219900  0.50756700  0.58740670  1
  C  640  1  0.06752800  0.55823600  0.52107300  1
  C  641  1  0.06667700  0.56798000  0.51177400  1
  C  642  1  0.03701300  0.58096700  0.51534600  1
  C  643  1  0.00754700  0.58369000  0.52824700  1
  C  644  1  0.00821800  0.57397400  0.53755600  1
  C  645  1  0.87115600  0.51152100  0.58409470  1
  C  646  1  0.83675700  0.50607200  0.58935970  1
  C  647  1  0.83930000  0.49606400  0.59844800  1
  C  648  1  0.87703400  0.49163200  0.60211000  1
  C  649  1  0.91150420  0.49707400  0.59689970  1
  C  650  1  0.17001600  0.49556600  0.59423170  1
  C  651  1  0.20461000  0.49015500  0.59937700  1
  C  652  1  0.24199300  0.49643800  0.59765800  1
  C  653  1  0.24404900  0.50857600  0.59094170  1
  C  654  1  0.20947500  0.51410900  0.58586770  1
  C  666  1  0.07630400  0.52114500  0.57407970  1
  C  667  1  0.04024800  0.51633200  0.57889470  1
  C  668  1  0.00383400  0.52098400  0.57420670  1
  C  669  1  0.00362100  0.53051100  0.56463070  1
  C  670  1  0.03953600  0.53537700  0.55974470  1
  C  671  1  0.07580200  0.53067300  0.56450970  1
  C  676  1  0.13997100  0.51251500  0.58264570  1
  C  677  1  0.10982000  0.51675300  0.57845870  1
  C  678  1  0.03894800  0.55225000  0.54278100  1
  C  679  1  0.03924600  0.54416600  0.55086470  1
  C  680  1  0.97067220  0.51643200  0.57870470  1
  C  681  1  0.94084320  0.51205400  0.58299170  1
  C  685  1  0.90880720  0.96268600  0.58811500  1
  C  686  1  0.03832800  0.85476600  0.53396900  1
  C  687  1  0.17210200  0.96173900  0.58766600  1
  C  688  1  0.06753400  0.84473100  0.53694400  1
  C  689  1  0.06668000  0.82568800  0.52720000  1
  C  690  1  0.03701600  0.81627200  0.51421100  1
  C  691  1  0.00755000  0.82644700  0.51148700  1
  C  692  1  0.00822100  0.84547400  0.52120300  1
  C  693  1  0.87115600  0.95447700  0.58362900  1
  C  694  1  0.83676000  0.96519100  0.58907700  1
  C  695  1  0.83930300  0.98428700  0.59911000  1
  C  696  1  0.87703400  0.99238100  0.60356500  1
  C  697  1  0.91150720  0.98173000  0.59812500  1
  C  698  1  0.17000100  0.98055800  0.59973000  1
  C  699  1  0.20463100  0.99109300  0.60508500  1
  C  700  1  0.24193700  0.98309400  0.59857500  1
  C  701  1  0.24389800  0.96422500  0.58648400  1
  C  702  1  0.20931900  0.95363100  0.58106200  1
  C  714  1  0.07625700  0.93482300  0.57401200  1
  C  715  1  0.04021200  0.94445400  0.57883300  1
  C  716  1  0.00380100  0.93511300  0.57418600  1
  C  717  1  0.00358600  0.91600800  0.56466100  1
  C  718  1  0.03950000  0.90625700  0.55979500  1
  C  719  1  0.07576600  0.91572400  0.56449200  1
  C  724  1  0.13987100  0.95204400  0.58269800  1
  C  725  1  0.10975200  0.94359800  0.57841500  1
  C  726  1  0.03894200  0.87242200  0.54292800  1
  C  727  1  0.03922000  0.88858900  0.55101000  1
  C  728  1  0.97064920  0.94416700  0.57874000  1
  C  729  1  0.94083420  0.95284000  0.58312100  1
  C  733  1  0.90879220  0.50733300  0.13249100  1
  C  734  1  0.03836300  0.56111500  0.24040900  1
  C  735  1  0.17208700  0.50782500  0.13342700  1
  C  736  1  0.06737400  0.57424200  0.25043200  1
  C  737  1  0.06655600  0.58354600  0.26947500  1
  C  738  1  0.03712500  0.57986000  0.27890200  1
  C  739  1  0.00784500  0.56684400  0.26874000  1
  C  740  1  0.00848000  0.55753000  0.24971300  1
  C  741  1  0.87114400  0.51104200  0.14070000  1
  C  742  1  0.83674500  0.50577700  0.12998600  1
  C  743  1  0.83928800  0.49672900  0.11088800  1
  C  744  1  0.87701900  0.49310500  0.10279500  1
  C  745  1  0.91149220  0.49831600  0.11344700  1
  C  746  1  0.16997800  0.50103500  0.11460200  1
  C  747  1  0.20460700  0.49585800  0.10406800  1
  C  748  1  0.24192200  0.49738200  0.11207100  1
  C  749  1  0.24389200  0.50419400  0.13094700  1
  C  750  1  0.20931300  0.50936600  0.14154100  1
  C  762  1  0.07624500  0.52108900  0.16034800  1
  C  763  1  0.04019700  0.51628000  0.15071900  1
  C  764  1  0.00379300  0.52097300  0.16006100  1
  C  765  1  0.00358000  0.53055500  0.17916600  1
  C  766  1  0.03949400  0.53544000  0.18891600  1
  C  767  1  0.07576000  0.53066900  0.17944800  1
  C  772  1  0.13985600  0.51255300  0.14312400  1
  C  773  1  0.10973700  0.51671600  0.15157100  1
  C  774  1  0.03895100  0.55241300  0.22275300  1
  C  775  1  0.03922000  0.54432400  0.20658400  1
  C  776  1  0.97063720  0.51647500  0.15100900  1
  C  777  1  0.94082020  0.51218400  0.14233600  1
  N  148  1  0.74486600  0.39505300  0.59424700  1
  N  149  1  0.98001000  0.49371300  0.49728100  1
  N  150  1  0.51492900  0.49197900  0.49428000  1
  N  196  1  0.74485000  0.18648000  0.59474500  1
  N  197  1  0.98001600  0.99083400  0.49608900  1
  N  198  1  0.51491200  0.98955100  0.49553900  1
  N  244  1  0.74498400  0.39551100  0.80332300  1
  N  245  1  0.98000100  0.49252700  0.99897600  1
  N  246  1  0.51489700  0.49325000  0.00024800  1
  N  292  1  0.24487900  0.58967000  0.40065000  1
  N  293  1  0.48002200  0.49071900  0.49737700  1
  N  294  1  0.01490900  0.49044900  0.49834600  1
  N  340  1  0.24487900  0.79823700  0.40014400  1
  N  341  1  0.48001600  0.99388200  0.49880400  1
  N  342  1  0.01491100  0.99516400  0.49936000  1
  N  388  1  0.24499700  0.58920200  0.19157100  1
  N  389  1  0.48000100  0.49218800  0.99591700  1
  N  390  1  0.01489700  0.49146800  0.99464600  1
  N  538  1  0.53808700  0.39505300  0.69961200  1
  N  539  1  0.77323100  0.49371300  0.60264600  1
  N  540  1  0.30815000  0.49197900  0.59964500  1
  N  586  1  0.53807100  0.18648000  0.70011000  1
  N  587  1  0.77323700  0.99083400  0.60145400  1
  N  588  1  0.30813300  0.98955100  0.60090400  1
  N  634  1  0.53820500  0.39551100  0.90868800  1
  N  635  1  0.77322200  0.49252700  0.10434100  1
  N  636  1  0.30811800  0.49325000  0.10561300  1
  N  682  1  0.03810000  0.58967000  0.50601500  1
  N  683  1  0.27324300  0.49071900  0.60274200  1
  N  684  1  0.80813000  0.49044900  0.60371100  1
  N  730  1  0.03810000  0.79823700  0.50550900  1
  N  731  1  0.27323700  0.99388200  0.60416900  1
  N  732  1  0.80813200  0.99516400  0.60472500  1
  N  778  1  0.03821800  0.58920200  0.29693600  1
  N  779  1  0.27322200  0.49218800  0.10128200  1
  N  780  1  0.80811800  0.49146800  0.10001100  1
