# generated using pymatgen
data_H24C28N3
_symmetry_space_group_name_H-M   'P 1'
_cell_length_a   72.25630000
_cell_length_b   72.26390000
_cell_length_c   72.25370000
_cell_angle_alpha   89.99950000
_cell_angle_beta   89.99790000
_cell_angle_gamma   89.99640000
_symmetry_Int_Tables_number   1
_chemical_formula_structural   H24C28N3
_chemical_formula_sum   'H2304 C2688 N288'
_cell_volume   377274.28583350
_cell_formula_units_Z   96
loop_
 _symmetry_equiv_pos_site_id
 _symmetry_equiv_pos_as_xyz
  1  'x, y, z'
loop_
 _atom_site_type_symbol
 _atom_site_label
 _atom_site_symmetry_multiplicity
 _atom_site_fract_x
 _atom_site_fract_y
 _atom_site_fract_z
 _atom_site_occupancy
  H  31  1  0.94348000  0.84434100  0.70354900  1
  H  32  1  0.91793600  0.85596000  0.68610200  1
  H  33  1  0.96328600  0.81665500  0.65603300  1
  H  34  1  0.93760900  0.82788000  0.63871600  1
  H  35  1  0.87172300  0.87822700  0.66312200  1
  H  36  1  0.87995200  0.83520500  0.62469900  1
  H  37  1  0.83601700  0.87287900  0.61741500  1
  H  38  1  0.86839400  0.82842000  0.56643500  1
  H  39  1  0.82996600  0.91606700  0.67902500  1
  H  40  1  0.81303800  0.94353900  0.68680900  1
  H  41  1  0.83033100  0.96835700  0.63681300  1
  H  42  1  0.84706900  0.94092600  0.62890100  1
  H  43  1  0.85991400  0.81267000  0.53856500  1
  H  44  1  0.80603400  0.83506500  0.54236300  1
  H  45  1  0.81455500  0.85095200  0.57000100  1
  H  46  1  0.86348600  0.91205900  0.64564400  1
  H  47  1  0.82907800  0.89167900  0.64856300  1
  H  48  1  0.91321200  0.85391500  0.63752900  1
  H  49  1  0.88951600  0.84480200  0.66853500  1
  H  50  1  0.84688500  0.86474300  0.58548100  1
  H  51  1  0.85257500  0.82931200  0.60326500  1
  H  53  1  0.82975500  0.79803000  0.52185000  1
  H  54  1  0.83857600  0.81735900  0.50968200  1
  H  56  1  0.79510900  0.97213300  0.66880200  1
  H  57  1  0.81108900  0.98615500  0.65680000  1
  H  59  1  0.96601400  0.81507700  0.70515300  1
  H  60  1  0.97876200  0.83489000  0.69842900  1
  H  91  1  0.09318000  0.19654800  0.70118800  1
  H  92  1  0.11892500  0.18384900  0.68480500  1
  H  93  1  0.07589500  0.22402200  0.65258300  1
  H  94  1  0.10178800  0.21180300  0.63637700  1
  H  95  1  0.16566800  0.15947100  0.66245500  1
  H  96  1  0.15946200  0.20376100  0.62507300  1
  H  97  1  0.20257600  0.16521400  0.61768700  1
  H  98  1  0.17239100  0.18977200  0.55477300  1
  H  99  1  0.20714800  0.12127300  0.67878200  1
  H  100  1  0.22390700  0.09368400  0.68650300  1
  H  101  1  0.20699700  0.06932300  0.63615800  1
  H  102  1  0.19043100  0.09687700  0.62830600  1
  H  103  1  0.18125100  0.20627000  0.52750400  1
  H  104  1  0.22881700  0.22629100  0.55487700  1
  H  105  1  0.22002900  0.20970400  0.58225700  1
  H  106  1  0.17403100  0.12579900  0.64502200  1
  H  107  1  0.20859200  0.14579100  0.64855900  1
  H  108  1  0.12552000  0.18558400  0.63615400  1
  H  109  1  0.14829400  0.19322000  0.66820800  1
  H  110  1  0.18743800  0.17484100  0.58485500  1
  H  111  1  0.18946500  0.20928800  0.60518100  1
  H  113  1  0.21313600  0.24264000  0.52483300  1
  H  114  1  0.20084100  0.22685500  0.51093900  1
  H  116  1  0.24198600  0.06526700  0.66829200  1
  H  117  1  0.22605300  0.05131600  0.65615100  1
  H  119  1  0.07155700  0.22699500  0.70130900  1
  H  120  1  0.05860300  0.20713800  0.69513000  1
  H  151  1  0.94324500  0.19279300  0.25720600  1
  H  152  1  0.91771700  0.18138900  0.27481500  1
  H  153  1  0.96343600  0.22053200  0.30452600  1
  H  154  1  0.93777300  0.20951900  0.32200800  1
  H  155  1  0.87158900  0.15955200  0.29785100  1
  H  156  1  0.87996200  0.20250800  0.33631200  1
  H  157  1  0.83592500  0.16495200  0.34358200  1
  H  158  1  0.86832600  0.20937200  0.39456700  1
  H  159  1  0.82950800  0.12201000  0.28193300  1
  H  160  1  0.81257600  0.09457100  0.27405200  1
  H  161  1  0.83038400  0.06933600  0.32365500  1
  H  162  1  0.84713100  0.09672900  0.33166500  1
  H  163  1  0.85984600  0.22512700  0.42243500  1
  H  164  1  0.80597000  0.20273200  0.41865300  1
  H  165  1  0.81448800  0.18684100  0.39101500  1
  H  166  1  0.86332500  0.12576200  0.31508000  1
  H  167  1  0.82890600  0.14616900  0.31250300  1
  H  168  1  0.91320000  0.18356300  0.32335100  1
  H  169  1  0.88945300  0.19294100  0.29246400  1
  H  170  1  0.84676100  0.17304500  0.37551000  1
  H  171  1  0.85260700  0.20846600  0.35776000  1
  H  173  1  0.82969100  0.23978200  0.43913700  1
  H  174  1  0.83849900  0.22046000  0.45132600  1
  H  176  1  0.79487100  0.06578500  0.29193200  1
  H  177  1  0.81095300  0.05170800  0.30372400  1
  H  179  1  0.96580900  0.22190300  0.25534300  1
  H  180  1  0.97863700  0.20215700  0.26212100  1
  H  211  1  0.09270200  0.84005400  0.25776500  1
  H  212  1  0.11840500  0.85303700  0.27401200  1
  H  213  1  0.07468000  0.81429000  0.30704600  1
  H  214  1  0.10049600  0.82681600  0.32313200  1
  H  215  1  0.16472000  0.87766300  0.29614300  1
  H  216  1  0.15803200  0.83486000  0.33508200  1
  H  217  1  0.20064100  0.87406900  0.34189000  1
  H  218  1  0.17076800  0.82721500  0.39283300  1
  H  219  1  0.18227200  0.92707800  0.27582500  1
  H  220  1  0.19750800  0.95464600  0.26615000  1
  H  221  1  0.22518100  0.95752900  0.31758800  1
  H  222  1  0.21002100  0.92969200  0.32723600  1
  H  223  1  0.18088400  0.81210200  0.42054200  1
  H  224  1  0.23198700  0.84033500  0.41716100  1
  H  225  1  0.22183600  0.85553500  0.38973200  1
  H  226  1  0.17147400  0.91105800  0.30842400  1
  H  227  1  0.20720400  0.89327700  0.31220700  1
  H  228  1  0.12427800  0.85316900  0.32262300  1
  H  229  1  0.14756700  0.84346800  0.29148100  1
  H  230  1  0.18859600  0.86591000  0.37411000  1
  H  231  1  0.18659600  0.83016100  0.35609900  1
  H  233  1  0.21288300  0.80063700  0.43694900  1
  H  234  1  0.20164600  0.81837800  0.44956500  1
  H  236  1  0.23696800  0.97428700  0.28585300  1
  H  237  1  0.21910500  0.98677600  0.29704100  1
  H  239  1  0.07073300  0.80995600  0.25832200  1
  H  240  1  0.05788000  0.83004000  0.26397800  1
  H  271  1  0.83954500  0.74116100  0.90239500  1
  H  272  1  0.85328600  0.72477600  0.87718600  1
  H  273  1  0.81813100  0.69093800  0.92328000  1
  H  274  1  0.83140800  0.67466100  0.89794600  1
  H  275  1  0.87892800  0.70112400  0.83180900  1
  H  276  1  0.83600800  0.66249600  0.83952700  1
  H  277  1  0.87403700  0.65553100  0.79584900  1
  H  278  1  0.82960000  0.60463200  0.82845400  1
  H  279  1  0.91676600  0.71749700  0.79016900  1
  H  280  1  0.94424500  0.72552600  0.77336100  1
  H  281  1  0.96949000  0.67583200  0.79089000  1
  H  282  1  0.94205800  0.66767600  0.80750900  1
  H  283  1  0.81361900  0.57681000  0.82028300  1
  H  284  1  0.83566300  0.58008100  0.76622000  1
  H  285  1  0.85178300  0.60768400  0.77443400  1
  H  286  1  0.91288900  0.68416300  0.82372300  1
  H  287  1  0.89275100  0.68670300  0.78914300  1
  H  288  1  0.85673400  0.67603900  0.87311000  1
  H  289  1  0.84385000  0.70553200  0.84920800  1
  H  290  1  0.86581100  0.62339300  0.80681000  1
  H  291  1  0.83034000  0.64126800  0.81201900  1
  H  293  1  0.79863100  0.56003400  0.79034800  1
  H  294  1  0.81792300  0.54777700  0.79912400  1
  H  296  1  0.97307200  0.70773100  0.75557500  1
  H  297  1  0.98714600  0.69590600  0.77163500  1
  H  299  1  0.81001100  0.73942900  0.92461600  1
  H  300  1  0.83037500  0.73579600  0.93776200  1
  H  331  1  0.19909600  0.74085000  0.05835700  1
  H  332  1  0.18577200  0.72461100  0.08389200  1
  H  333  1  0.21924600  0.69036800  0.03684500  1
  H  334  1  0.20634800  0.67422500  0.06247300  1
  H  335  1  0.15991200  0.70071000  0.12830500  1
  H  336  1  0.20324300  0.66234700  0.12202400  1
  H  337  1  0.16376000  0.65505600  0.16434200  1
  H  338  1  0.20892500  0.60431800  0.13248900  1
  H  339  1  0.11095500  0.72111600  0.14481800  1
  H  340  1  0.08316300  0.73119900  0.15935800  1
  H  341  1  0.07915900  0.68005200  0.18741900  1
  H  342  1  0.10723300  0.66999300  0.17295600  1
  H  343  1  0.22494800  0.57657000  0.14084700  1
  H  344  1  0.20275900  0.58008800  0.19484100  1
  H  345  1  0.18659000  0.60761300  0.18643500  1
  H  346  1  0.12681300  0.68846400  0.13458100  1
  H  347  1  0.14395000  0.68448000  0.17059900  1
  H  348  1  0.18124800  0.67615400  0.08778400  1
  H  349  1  0.19600100  0.70480600  0.11165800  1
  H  350  1  0.17266600  0.62296500  0.15333800  1
  H  351  1  0.20815400  0.64123800  0.14981700  1
  H  353  1  0.23989100  0.56000600  0.17092400  1
  H  354  1  0.22066200  0.54764400  0.16214800  1
  H  356  1  0.06243200  0.71201500  0.19853900  1
  H  357  1  0.05022600  0.70085800  0.18046000  1
  H  359  1  0.22788600  0.73887100  0.03549700  1
  H  360  1  0.20734900  0.73527600  0.02261600  1
  H  391  1  0.19433600  0.29546300  0.90387900  1
  H  392  1  0.18302500  0.31318700  0.87838700  1
  H  393  1  0.22177000  0.34275200  0.92453900  1
  H  394  1  0.21083300  0.36035700  0.89892100  1
  H  395  1  0.16057800  0.33655000  0.83328300  1
  H  396  1  0.20362900  0.37503000  0.84064600  1
  H  397  1  0.16452300  0.38277400  0.79805900  1
  H  398  1  0.20958100  0.43356800  0.82975300  1
  H  399  1  0.11174200  0.31616600  0.81615900  1
  H  400  1  0.08412900  0.30618900  0.80121400  1
  H  401  1  0.08041300  0.35756400  0.77354000  1
  H  402  1  0.10830400  0.36752100  0.78841200  1
  H  403  1  0.22530800  0.46141800  0.82117200  1
  H  404  1  0.20266600  0.45758400  0.76739600  1
  H  405  1  0.18679700  0.42996200  0.77602000  1
  H  406  1  0.12747300  0.34861200  0.82688100  1
  H  407  1  0.14494500  0.35340800  0.79113000  1
  H  408  1  0.18474200  0.36168400  0.87438000  1
  H  409  1  0.19457800  0.33124200  0.85023500  1
  H  410  1  0.17318300  0.41458200  0.80878600  1
  H  411  1  0.20870600  0.39663800  0.81331800  1
  H  413  1  0.23983700  0.47805900  0.79095500  1
  H  414  1  0.22055100  0.49027600  0.79981000  1
  H  416  1  0.06381600  0.32565400  0.76197200  1
  H  417  1  0.05142700  0.33671800  0.77998200  1
  H  419  1  0.22325300  0.29356400  0.92671300  1
  H  420  1  0.20336800  0.30024600  0.93937400  1
  H  451  1  0.83997000  0.29744800  0.05757500  1
  H  452  1  0.85349700  0.31365800  0.08301300  1
  H  453  1  0.81921600  0.34789100  0.03654500  1
  H  454  1  0.83229900  0.36400200  0.06209500  1
  H  455  1  0.87863200  0.33722000  0.12852800  1
  H  456  1  0.83556800  0.37572600  0.12092400  1
  H  457  1  0.87339200  0.38252600  0.16480700  1
  H  458  1  0.82908300  0.43351000  0.13213600  1
  H  459  1  0.91636300  0.32143500  0.17079400  1
  H  460  1  0.94392100  0.31354000  0.18750300  1
  H  461  1  0.96931000  0.36277400  0.16892200  1
  H  462  1  0.94177800  0.37082200  0.15241200  1
  H  463  1  0.81317600  0.46136700  0.14034400  1
  H  464  1  0.83524900  0.45798100  0.19439100  1
  H  465  1  0.85129300  0.43034600  0.18614000  1
  H  466  1  0.91245500  0.35474600  0.13683300  1
  H  467  1  0.89225500  0.35129600  0.17130100  1
  H  468  1  0.85737700  0.36224100  0.08733000  1
  H  469  1  0.84330700  0.33300400  0.11089500  1
  H  470  1  0.86526500  0.41469100  0.15369000  1
  H  471  1  0.82976600  0.39681300  0.14862400  1
  H  473  1  0.79826100  0.47815200  0.17034000  1
  H  474  1  0.81756300  0.49036800  0.16152000  1
  H  476  1  0.97302400  0.33130200  0.20468400  1
  H  477  1  0.98701900  0.34286100  0.18835600  1
  H  479  1  0.81079900  0.29936400  0.03520000  1
  H  480  1  0.83112200  0.30306300  0.02201000  1
  H  511  1  0.74318100  0.94355600  0.80697700  1
  H  512  1  0.72593900  0.91805900  0.81897000  1
  H  513  1  0.69577300  0.96205500  0.77823300  1
  H  514  1  0.67867100  0.93639800  0.78981300  1
  H  515  1  0.70291300  0.87209200  0.84243400  1
  H  516  1  0.66594600  0.87832300  0.79780800  1
  H  517  1  0.65802700  0.83537900  0.83643200  1
  H  518  1  0.61683700  0.85702700  0.77748000  1
  H  519  1  0.71978200  0.82956600  0.87908400  1
  H  520  1  0.72851100  0.81316300  0.90660200  1
  H  521  1  0.68005400  0.83205200  0.93321600  1
  H  522  1  0.67126200  0.84837700  0.90580600  1
  H  523  1  0.59120700  0.84462000  0.76067800  1
  H  524  1  0.57668600  0.81209500  0.80702000  1
  H  525  1  0.60245700  0.82407800  0.82360400  1
  H  526  1  0.68720000  0.86385000  0.87588900  1
  H  527  1  0.68829200  0.82907200  0.85602400  1
  H  528  1  0.67734700  0.91251400  0.81609800  1
  H  529  1  0.70906300  0.88915800  0.80878200  1
  H  530  1  0.62491800  0.85172400  0.82539700  1
  H  531  1  0.64712900  0.84646100  0.79249400  1
  H  533  1  0.57101800  0.81327600  0.75831600  1
  H  534  1  0.55734900  0.83181900  0.76666100  1
  H  536  1  0.71258500  0.79641600  0.93639300  1
  H  537  1  0.69995900  0.81205400  0.95018200  1
  H  539  1  0.74482900  0.96539700  0.77714100  1
  H  540  1  0.73779900  0.97847600  0.79663200  1
  H  571  1  0.74270000  0.09538700  0.15518400  1
  H  572  1  0.72527500  0.12099100  0.14366200  1
  H  573  1  0.69521800  0.07563300  0.18295800  1
  H  574  1  0.67792300  0.10135900  0.17182000  1
  H  575  1  0.70163200  0.16581500  0.12025100  1
  H  576  1  0.66465900  0.16029300  0.16490900  1
  H  577  1  0.65608000  0.20191200  0.12500000  1
  H  578  1  0.61567600  0.18212300  0.18503000  1
  H  579  1  0.72268400  0.18359300  0.07162500  1
  H  580  1  0.73250900  0.19870600  0.04403200  1
  H  581  1  0.68090300  0.22596200  0.04048400  1
  H  582  1  0.67109700  0.21092300  0.06832000  1
  H  583  1  0.58992600  0.19480100  0.20144000  1
  H  584  1  0.57424100  0.22457800  0.15365200  1
  H  585  1  0.60013400  0.21235100  0.13744100  1
  H  586  1  0.69062800  0.17255100  0.08754300  1
  H  587  1  0.68457500  0.20826300  0.10461600  1
  H  588  1  0.67674400  0.12563600  0.14563800  1
  H  589  1  0.70762600  0.14952000  0.15470400  1
  H  590  1  0.62322800  0.18528400  0.13676100  1
  H  591  1  0.64554900  0.19228500  0.16925900  1
  H  593  1  0.56905200  0.22580000  0.20236500  1
  H  594  1  0.55575200  0.20650400  0.19521600  1
  H  596  1  0.71272200  0.23775100  0.02371400  1
  H  597  1  0.70153500  0.21970600  0.01151100  1
  H  599  1  0.74436600  0.07275700  0.18433400  1
  H  600  1  0.73746100  0.06005100  0.16455400  1
  H  631  1  0.29735000  0.94505100  0.15783300  1
  H  632  1  0.31346900  0.91917400  0.14506000  1
  H  633  1  0.34648500  0.96254400  0.18420500  1
  H  634  1  0.36243300  0.93653800  0.17191100  1
  H  635  1  0.33608000  0.87310800  0.11972400  1
  H  636  1  0.37308000  0.87815700  0.16441200  1
  H  637  1  0.38087600  0.83610900  0.12482500  1
  H  638  1  0.42208000  0.85674200  0.18419300  1
  H  639  1  0.31495300  0.85489000  0.07087300  1
  H  640  1  0.30534900  0.83971200  0.04323400  1
  H  641  1  0.35686200  0.81220500  0.04034000  1
  H  642  1  0.36643900  0.82730500  0.06822200  1
  H  643  1  0.44762000  0.84414800  0.20099700  1
  H  644  1  0.46176100  0.81133300  0.15474500  1
  H  645  1  0.43608000  0.82351900  0.13815200  1
  H  646  1  0.34708900  0.86584000  0.08702100  1
  H  647  1  0.35240400  0.83017700  0.10441400  1
  H  648  1  0.36218800  0.91271500  0.14586400  1
  H  649  1  0.33035200  0.88982000  0.15402500  1
  H  650  1  0.41397700  0.85159500  0.13635600  1
  H  651  1  0.39165500  0.84624800  0.16917500  1
  H  653  1  0.46758400  0.81266800  0.20343600  1
  H  654  1  0.48135700  0.83107100  0.19496000  1
  H  656  1  0.32521900  0.80047300  0.02328500  1
  H  657  1  0.33652800  0.81845900  0.01110400  1
  H  659  1  0.29780400  0.96701300  0.18798900  1
  H  660  1  0.30372400  0.97978700  0.16793500  1
  H  691  1  0.29459100  0.09370000  0.80614100  1
  H  692  1  0.31212700  0.11903300  0.81807400  1
  H  693  1  0.34168000  0.07485400  0.77708500  1
  H  694  1  0.35906700  0.10033200  0.78860700  1
  H  695  1  0.33632600  0.16447700  0.84158700  1
  H  696  1  0.37174200  0.15864800  0.79565100  1
  H  697  1  0.38099500  0.20125300  0.83435300  1
  H  698  1  0.41906600  0.18093100  0.77314500  1
  H  699  1  0.32085500  0.20663800  0.87885900  1
  H  700  1  0.31325500  0.22369000  0.90628600  1
  H  701  1  0.36285100  0.20556400  0.93131300  1
  H  702  1  0.37060900  0.18871200  0.90388900  1
  H  703  1  0.44428800  0.19318900  0.75567800  1
  H  704  1  0.46284400  0.22219500  0.80290700  1
  H  705  1  0.43746200  0.21034700  0.82023300  1
  H  706  1  0.35381100  0.17271700  0.87471500  1
  H  707  1  0.35105800  0.20737300  0.85475600  1
  H  708  1  0.36072900  0.12419000  0.81491300  1
  H  709  1  0.32920800  0.14780700  0.80752400  1
  H  710  1  0.41382200  0.18384800  0.82176700  1
  H  711  1  0.39024200  0.19109700  0.79020600  1
  H  713  1  0.46589500  0.22329600  0.75385600  1
  H  714  1  0.47908500  0.20383700  0.76076000  1
  H  716  1  0.33152000  0.24135600  0.93488200  1
  H  717  1  0.34305800  0.22514600  0.94904000  1
  H  719  1  0.29258300  0.07190600  0.77627200  1
  H  720  1  0.29965300  0.05873200  0.79568700  1
  H  751  1  0.84196100  0.94812700  0.25745400  1
  H  752  1  0.85517000  0.92235200  0.27337300  1
  H  753  1  0.81464500  0.96434100  0.30652000  1
  H  754  1  0.82736200  0.93841400  0.32225900  1
  H  755  1  0.88053100  0.87539500  0.29554900  1
  H  756  1  0.83542400  0.88070000  0.33216000  1
  H  757  1  0.87407700  0.83772200  0.33960900  1
  H  758  1  0.81279100  0.85514700  0.37848700  1
  H  759  1  0.91806700  0.83149900  0.28040100  1
  H  760  1  0.94540100  0.81405800  0.27341400  1
  H  761  1  0.97056600  0.83389600  0.32227300  1
  H  762  1  0.94323200  0.85111600  0.32944500  1
  H  763  1  0.79685100  0.84122400  0.40387000  1
  H  764  1  0.84734800  0.81917600  0.42340400  1
  H  765  1  0.86317500  0.83261200  0.39787000  1
  H  766  1  0.91407600  0.86633100  0.31329500  1
  H  767  1  0.89371200  0.83209200  0.30903200  1
  H  768  1  0.85363900  0.91498700  0.32205300  1
  H  769  1  0.84662600  0.89266000  0.28954600  1
  H  770  1  0.86155700  0.85799700  0.37326700  1
  H  771  1  0.83113600  0.84613700  0.35001500  1
  H  773  1  0.79886500  0.81134700  0.42557800  1
  H  774  1  0.80282200  0.83150300  0.43894500  1
  H  776  1  0.97389800  0.79692900  0.29220000  1
  H  777  1  0.98810400  0.81338400  0.30330600  1
  H  779  1  0.81122100  0.96931100  0.25788300  1
  H  780  1  0.83092600  0.98248000  0.26410700  1
  H  811  1  0.19333300  0.09248000  0.25592700  1
  H  812  1  0.18072200  0.11726500  0.27377000  1
  H  813  1  0.22171800  0.07298400  0.30316200  1
  H  814  1  0.20952600  0.09791700  0.32086300  1
  H  815  1  0.15323500  0.15850000  0.30102800  1
  H  816  1  0.20164600  0.15738800  0.33349300  1
  H  817  1  0.15855400  0.19444500  0.34666300  1
  H  818  1  0.22285300  0.17680300  0.38186000  1
  H  819  1  0.11372800  0.18958400  0.27284000  1
  H  820  1  0.08397900  0.20124900  0.26492100  1
  H  821  1  0.07998600  0.22697400  0.31727200  1
  H  822  1  0.11001500  0.21549100  0.32515000  1
  H  823  1  0.24060900  0.18939700  0.40675200  1
  H  824  1  0.19312200  0.21724500  0.42644900  1
  H  825  1  0.17548600  0.20497600  0.40146300  1
  H  826  1  0.14186100  0.19558000  0.29444000  1
  H  827  1  0.12635800  0.18329000  0.32932400  1
  H  828  1  0.18273400  0.12102700  0.32259700  1
  H  829  1  0.18974000  0.14587700  0.29192600  1
  H  830  1  0.17460800  0.17762800  0.37780200  1
  H  831  1  0.20438600  0.18896800  0.35347300  1
  H  833  1  0.24251400  0.21919100  0.42789200  1
  H  834  1  0.23571600  0.20037200  0.44204200  1
  H  836  1  0.06093800  0.23755500  0.28644500  1
  H  837  1  0.05069800  0.21827300  0.29757400  1
  H  839  1  0.22344100  0.07081400  0.25410700  1
  H  840  1  0.20384800  0.05756600  0.26050600  1
  H  871  1  0.19676300  0.94634600  0.70205800  1
  H  872  1  0.18403400  0.92038500  0.68604800  1
  H  873  1  0.22316500  0.96364200  0.65286500  1
  H  874  1  0.21092300  0.93755000  0.63702800  1
  H  875  1  0.15833600  0.87454300  0.66297100  1
  H  876  1  0.20410500  0.87881000  0.62719400  1
  H  877  1  0.16430400  0.83710600  0.61862200  1
  H  878  1  0.22598700  0.85668900  0.58046700  1
  H  879  1  0.10951800  0.85689900  0.68297100  1
  H  880  1  0.08195800  0.84169100  0.69271900  1
  H  881  1  0.07907600  0.81380900  0.64139800  1
  H  882  1  0.10691000  0.82894200  0.63167600  1
  H  883  1  0.24335900  0.84462300  0.55508300  1
  H  884  1  0.19584400  0.81640700  0.53603600  1
  H  885  1  0.17860200  0.82807900  0.56157000  1
  H  886  1  0.12576300  0.86750000  0.65047700  1
  H  887  1  0.14325400  0.83162000  0.64702700  1
  H  888  1  0.18501500  0.91366800  0.63731700  1
  H  889  1  0.19294800  0.89097200  0.66936500  1
  H  890  1  0.17749800  0.85465100  0.58549300  1
  H  891  1  0.20862800  0.84583500  0.60913100  1
  H  893  1  0.24494300  0.81490000  0.53314000  1
  H  894  1  0.23815400  0.83447700  0.52006200  1
  H  896  1  0.06239500  0.80210400  0.67318600  1
  H  897  1  0.04982500  0.81989700  0.66197900  1
  H  899  1  0.22689000  0.96834000  0.70152700  1
  H  900  1  0.20682600  0.98106100  0.69552700  1
  H  931  1  0.84245100  0.08964300  0.70312100  1
  H  932  1  0.85566500  0.11542900  0.68723000  1
  H  933  1  0.81457000  0.07389400  0.65422700  1
  H  934  1  0.82729000  0.09983700  0.63852400  1
  H  935  1  0.88105600  0.16252500  0.66522500  1
  H  936  1  0.83585300  0.15739800  0.62871500  1
  H  937  1  0.87452800  0.20035500  0.62131500  1
  H  938  1  0.81310800  0.18300600  0.58256900  1
  H  939  1  0.91891900  0.20596600  0.68061600  1
  H  940  1  0.94628300  0.22340600  0.68751200  1
  H  941  1  0.97080300  0.20456400  0.63793600  1
  H  942  1  0.94344500  0.18734300  0.63086600  1
  H  943  1  0.79702600  0.19685100  0.55723700  1
  H  944  1  0.84735600  0.21913600  0.53754800  1
  H  945  1  0.86332300  0.20577800  0.56303400  1
  H  946  1  0.91460200  0.17166200  0.64732100  1
  H  947  1  0.89423100  0.20585600  0.65191400  1
  H  948  1  0.85369100  0.12309400  0.63859200  1
  H  949  1  0.84729000  0.14526700  0.67132100  1
  H  950  1  0.86191200  0.18035400  0.58759900  1
  H  951  1  0.83149500  0.19192800  0.61100000  1
  H  953  1  0.79884400  0.22673700  0.53547000  1
  H  954  1  0.80283600  0.20655800  0.52214800  1
  H  956  1  0.97442500  0.24101000  0.66854600  1
  H  957  1  0.98854900  0.22478600  0.65700200  1
  H  959  1  0.81154600  0.06861900  0.70282900  1
  H  960  1  0.83117200  0.05542900  0.69641000  1
  H  991  1  0.74080700  0.84737400  0.05516000  1
  H  992  1  0.72367700  0.85860400  0.08110500  1
  H  993  1  0.69351400  0.81853600  0.03647800  1
  H  994  1  0.67652300  0.82940300  0.06253400  1
  H  995  1  0.70112800  0.88018700  0.12738300  1
  H  996  1  0.66371700  0.83606900  0.12073400  1
  H  997  1  0.65525500  0.87527600  0.16307100  1
  H  998  1  0.59332700  0.85049100  0.13054400  1
  H  999  1  0.72117000  0.92875800  0.14425700  1
  H  1000  1  0.73122500  0.95641000  0.15906900  1
  H  1001  1  0.68012000  0.96001700  0.18726800  1
  H  1002  1  0.67008100  0.93208700  0.17252100  1
  H  1003  1  0.56593100  0.83349800  0.13800500  1
  H  1004  1  0.59172100  0.81283800  0.18619400  1
  H  1005  1  0.61910800  0.83006200  0.17893900  1
  H  1006  1  0.68873100  0.91288700  0.13389400  1
  H  1007  1  0.68440100  0.89549300  0.16974200  1
  H  1008  1  0.67547900  0.85571600  0.08690400  1
  H  1009  1  0.70689100  0.84631300  0.10999700  1
  H  1010  1  0.62279800  0.86519400  0.14616400  1
  H  1011  1  0.64322900  0.83102400  0.15059200  1
  H  1013  1  0.56272000  0.79624000  0.16775200  1
  H  1014  1  0.54849100  0.81296700  0.15707900  1
  H  1016  1  0.71214800  0.97669700  0.19847000  1
  H  1017  1  0.70079200  0.98903200  0.18060500  1
  H  1019  1  0.74276600  0.81822300  0.03304900  1
  H  1020  1  0.73500700  0.83735300  0.01984700  1
  H  1051  1  0.74220600  0.19215200  0.90496200  1
  H  1052  1  0.72519400  0.18056200  0.87909600  1
  H  1053  1  0.69407400  0.21894400  0.92454900  1
  H  1054  1  0.67718600  0.20771900  0.89858200  1
  H  1055  1  0.70276500  0.15865800  0.83310600  1
  H  1056  1  0.66404600  0.20157900  0.84030600  1
  H  1057  1  0.65673900  0.16256400  0.79756600  1
  H  1058  1  0.60606800  0.20925100  0.82865400  1
  H  1059  1  0.72265800  0.10941300  0.81613500  1
  H  1060  1  0.73231700  0.08159800  0.80135700  1
  H  1061  1  0.68099000  0.07845000  0.77350100  1
  H  1062  1  0.67135700  0.10654200  0.78820700  1
  H  1063  1  0.57831700  0.22446700  0.81877900  1
  H  1064  1  0.58132100  0.19642500  0.76753600  1
  H  1065  1  0.60877300  0.18112400  0.77744700  1
  H  1066  1  0.69012200  0.12550700  0.82665100  1
  H  1067  1  0.68638200  0.14307300  0.79080100  1
  H  1068  1  0.67692400  0.18153700  0.87391800  1
  H  1069  1  0.70751300  0.19289200  0.85058200  1
  H  1070  1  0.62459400  0.17069200  0.81085400  1
  H  1071  1  0.64283500  0.20639600  0.81159200  1
  H  1073  1  0.56188500  0.23616300  0.78690500  1
  H  1074  1  0.54913000  0.21844700  0.79803500  1
  H  1076  1  0.71277800  0.06136400  0.76217300  1
  H  1077  1  0.70137500  0.04922700  0.78014600  1
  H  1079  1  0.74327600  0.22113600  0.92742500  1
  H  1080  1  0.73648500  0.20149300  0.94040800  1
  H  1111  1  0.29673600  0.19535200  0.05210300  1
  H  1112  1  0.31293200  0.18235000  0.07782400  1
  H  1113  1  0.34508200  0.22416200  0.03632600  1
  H  1114  1  0.36107900  0.21163400  0.06218400  1
  H  1115  1  0.33483000  0.15807200  0.12555800  1
  H  1116  1  0.37244900  0.20204900  0.11855600  1
  H  1117  1  0.38012700  0.16377000  0.16184000  1
  H  1118  1  0.44239700  0.18836500  0.12907400  1
  H  1119  1  0.31929500  0.11989600  0.16764000  1
  H  1120  1  0.31197200  0.09242500  0.18476200  1
  H  1121  1  0.36224600  0.06821600  0.16742500  1
  H  1122  1  0.36970900  0.09565700  0.15050000  1
  H  1123  1  0.46982100  0.20514100  0.13691900  1
  H  1124  1  0.44413600  0.22457900  0.18566900  1
  H  1125  1  0.41669500  0.20759700  0.17799200  1
  H  1126  1  0.35284100  0.12429900  0.13409400  1
  H  1127  1  0.34897100  0.14469600  0.16838700  1
  H  1128  1  0.36147600  0.18489300  0.08518200  1
  H  1129  1  0.32897400  0.19123300  0.10771200  1
  H  1130  1  0.41293500  0.17312400  0.14498800  1
  H  1131  1  0.39270200  0.20752200  0.14860100  1
  H  1133  1  0.47312000  0.24163600  0.16754900  1
  H  1134  1  0.48730000  0.22516800  0.15643100  1
  H  1136  1  0.33050500  0.06424200  0.20282800  1
  H  1137  1  0.34261000  0.05026200  0.18688900  1
  H  1139  1  0.29645400  0.22631400  0.03105300  1
  H  1140  1  0.30319100  0.20676700  0.01790200  1
  H  1171  1  0.29629100  0.84577000  0.90435800  1
  H  1172  1  0.31339300  0.85734100  0.87854700  1
  H  1173  1  0.34421300  0.81853900  0.92384300  1
  H  1174  1  0.36118300  0.82972500  0.89791500  1
  H  1175  1  0.33646100  0.87982300  0.83272600  1
  H  1176  1  0.37408800  0.83591300  0.83960100  1
  H  1177  1  0.38267100  0.87526100  0.79742100  1
  H  1178  1  0.44441100  0.85063700  0.83061600  1
  H  1179  1  0.31629000  0.92825100  0.81574100  1
  H  1180  1  0.30605500  0.95572500  0.80072300  1
  H  1181  1  0.35729300  0.95967600  0.77280600  1
  H  1182  1  0.36751200  0.93192000  0.78775600  1
  H  1183  1  0.47197100  0.83381200  0.82336100  1
  H  1184  1  0.44682400  0.81334200  0.77475300  1
  H  1185  1  0.41928000  0.83040200  0.78180100  1
  H  1186  1  0.34879900  0.91265600  0.82633700  1
  H  1187  1  0.35338300  0.89524300  0.79052300  1
  H  1188  1  0.36180000  0.85577000  0.87337900  1
  H  1189  1  0.33087000  0.84562300  0.84995000  1
  H  1190  1  0.41505800  0.86531200  0.81473300  1
  H  1191  1  0.39484400  0.83106700  0.80988000  1
  H  1193  1  0.47571100  0.79677700  0.79341400  1
  H  1194  1  0.48974300  0.81352200  0.80432300  1
  H  1196  1  0.32514300  0.97598600  0.76132900  1
  H  1197  1  0.33632200  0.98850700  0.77917400  1
  H  1199  1  0.29504800  0.81666700  0.92677000  1
  H  1200  1  0.30188000  0.83631500  0.93972000  1
  H  1231  1  0.94503700  0.74450700  0.15360700  1
  H  1232  1  0.91929600  0.72768300  0.14153100  1
  H  1233  1  0.96298200  0.69664200  0.18194900  1
  H  1234  1  0.93709600  0.67996800  0.17029600  1
  H  1235  1  0.87342700  0.70444900  0.11733700  1
  H  1236  1  0.87885600  0.66831000  0.16272400  1
  H  1237  1  0.83702100  0.65924600  0.12319200  1
  H  1238  1  0.85460400  0.62175800  0.18551300  1
  H  1239  1  0.85179200  0.72517500  0.06896400  1
  H  1240  1  0.83562000  0.73327000  0.04136000  1
  H  1241  1  0.81415700  0.67899100  0.03794000  1
  H  1242  1  0.83020700  0.67092900  0.06576100  1
  H  1243  1  0.84083600  0.59656800  0.20189600  1
  H  1244  1  0.81881900  0.57609800  0.15175400  1
  H  1245  1  0.83212100  0.60142500  0.13548400  1
  H  1246  1  0.86612800  0.69319500  0.08478700  1
  H  1247  1  0.83064100  0.68690400  0.10228000  1
  H  1248  1  0.91326700  0.67908400  0.14411200  1
  H  1249  1  0.89014800  0.71100700  0.15134300  1
  H  1250  1  0.85755400  0.62624800  0.13680600  1
  H  1251  1  0.84471400  0.64981600  0.16658500  1
  H  1253  1  0.81106300  0.57473500  0.20032200  1
  H  1254  1  0.83121600  0.56132400  0.19647700  1
  H  1256  1  0.79883000  0.70891200  0.02130400  1
  H  1257  1  0.81813400  0.70028300  0.00895000  1
  H  1259  1  0.96700400  0.74562400  0.18337800  1
  H  1260  1  0.97993200  0.73854800  0.16380100  1
  H  1291  1  0.09021300  0.74160800  0.80397300  1
  H  1292  1  0.11537500  0.72526700  0.81782900  1
  H  1293  1  0.07426400  0.69298200  0.77575300  1
  H  1294  1  0.09959000  0.67682900  0.78911100  1
  H  1295  1  0.15757300  0.69929000  0.84765600  1
  H  1296  1  0.15882300  0.66780700  0.79855000  1
  H  1297  1  0.19532100  0.65514400  0.84223600  1
  H  1298  1  0.18411100  0.62193100  0.77585500  1
  H  1299  1  0.19401900  0.72758900  0.88742500  1
  H  1300  1  0.20688700  0.73418600  0.91704600  1
  H  1301  1  0.22616800  0.67915300  0.92103300  1
  H  1302  1  0.21357000  0.67260200  0.89117900  1
  H  1303  1  0.19869800  0.59744200  0.75909600  1
  H  1304  1  0.21809500  0.57471800  0.80934500  1
  H  1305  1  0.20393400  0.59930300  0.82602000  1
  H  1306  1  0.19734100  0.70521400  0.85925600  1
  H  1307  1  0.18164800  0.67171900  0.87474000  1
  H  1308  1  0.12189300  0.67639300  0.81613100  1
  H  1309  1  0.14516700  0.70861100  0.81111100  1
  H  1310  1  0.17814700  0.62376700  0.82437000  1
  H  1311  1  0.19239700  0.64919100  0.79686200  1
  H  1313  1  0.22802000  0.57509400  0.76106700  1
  H  1314  1  0.20763000  0.56175800  0.76372000  1
  H  1316  1  0.24053300  0.70801700  0.93994200  1
  H  1317  1  0.21985900  0.69991400  0.95028900  1
  H  1319  1  0.06968500  0.74159700  0.77261700  1
  H  1320  1  0.05615000  0.73544600  0.79209400  1
  H  1351  1  0.94628500  0.29396500  0.80662700  1
  H  1352  1  0.92120900  0.31131300  0.81934400  1
  H  1353  1  0.96473900  0.34156200  0.77817100  1
  H  1354  1  0.93950600  0.35876600  0.79045900  1
  H  1355  1  0.87999600  0.33830500  0.84764500  1
  H  1356  1  0.87946200  0.36981300  0.79854200  1
  H  1357  1  0.84298500  0.38304600  0.84209800  1
  H  1358  1  0.85451100  0.41610600  0.77578200  1
  H  1359  1  0.84374800  0.31035700  0.88724700  1
  H  1360  1  0.83079800  0.30375300  0.91682900  1
  H  1361  1  0.81140700  0.35875600  0.92072800  1
  H  1362  1  0.82408000  0.36531200  0.89090500  1
  H  1363  1  0.83980800  0.44056300  0.75907900  1
  H  1364  1  0.82061900  0.46329200  0.80941200  1
  H  1365  1  0.83489100  0.43873300  0.82603200  1
  H  1366  1  0.84056800  0.33269400  0.85908100  1
  H  1367  1  0.85602700  0.36627900  0.87461400  1
  H  1368  1  0.91645700  0.36015000  0.81716400  1
  H  1369  1  0.89221800  0.32883500  0.81096600  1
  H  1370  1  0.86056500  0.41417200  0.82430500  1
  H  1371  1  0.84610200  0.38888400  0.79677700  1
  H  1373  1  0.81042400  0.46276400  0.76119000  1
  H  1374  1  0.83075500  0.47621500  0.76370500  1
  H  1376  1  0.79708400  0.32987100  0.93966900  1
  H  1377  1  0.81773000  0.33807400  0.94999300  1
  H  1379  1  0.96785500  0.29257400  0.77643200  1
  H  1380  1  0.98106800  0.29920500  0.79597000  1
  H  1411  1  0.08937600  0.29705800  0.15649300  1
  H  1412  1  0.11458600  0.31361800  0.14297500  1
  H  1413  1  0.07388600  0.34499000  0.18614000  1
  H  1414  1  0.09925200  0.36134500  0.17310300  1
  H  1415  1  0.15711000  0.33917400  0.11429300  1
  H  1416  1  0.15826100  0.37089200  0.16323600  1
  H  1417  1  0.19504700  0.38315700  0.11966000  1
  H  1418  1  0.18382000  0.41660700  0.18589400  1
  H  1419  1  0.18936500  0.31035800  0.07446400  1
  H  1420  1  0.20129400  0.30270000  0.04474000  1
  H  1421  1  0.22647000  0.35533800  0.04113000  1
  H  1422  1  0.21470700  0.36296000  0.07111900  1
  H  1423  1  0.19873400  0.44090300  0.20263900  1
  H  1424  1  0.21840700  0.46335300  0.15236600  1
  H  1425  1  0.20392200  0.43894900  0.13570700  1
  H  1426  1  0.19534400  0.33202200  0.10281400  1
  H  1427  1  0.18213900  0.36656400  0.08727300  1
  H  1428  1  0.12132700  0.36225100  0.14566700  1
  H  1429  1  0.14457300  0.32998400  0.15063000  1
  H  1430  1  0.17784300  0.41474900  0.13740600  1
  H  1431  1  0.19202200  0.38927100  0.16491600  1
  H  1433  1  0.22838400  0.46285000  0.20061100  1
  H  1434  1  0.20813000  0.47641000  0.19803400  1
  H  1436  1  0.23754800  0.32464800  0.02209000  1
  H  1437  1  0.21827800  0.33566400  0.01170300  1
  H  1439  1  0.06896000  0.29635500  0.18796300  1
  H  1440  1  0.05543500  0.30310500  0.16867500  1
  H  1471  1  0.33983900  0.74237700  0.40732300  1
  H  1472  1  0.35311000  0.72659800  0.38147900  1
  H  1473  1  0.31632800  0.69217200  0.42582500  1
  H  1474  1  0.32911800  0.67653600  0.39987700  1
  H  1475  1  0.38012600  0.70296600  0.33610000  1
  H  1476  1  0.33504800  0.66642200  0.34119200  1
  H  1477  1  0.37515000  0.65751800  0.29983800  1
  H  1478  1  0.31466400  0.61824700  0.32173900  1
  H  1479  1  0.42971700  0.72237400  0.31891100  1
  H  1480  1  0.45748600  0.73166700  0.30379900  1
  H  1481  1  0.45988400  0.68013900  0.27626300  1
  H  1482  1  0.43185100  0.67086900  0.29130800  1
  H  1483  1  0.29761600  0.59233800  0.31031900  1
  H  1484  1  0.34481700  0.57430500  0.28091200  1
  H  1485  1  0.36172700  0.60033500  0.29197800  1
  H  1486  1  0.41299400  0.69027100  0.32965400  1
  H  1487  1  0.39575300  0.68623600  0.29370800  1
  H  1488  1  0.35458900  0.67769800  0.37571400  1
  H  1489  1  0.34495800  0.70886700  0.35245100  1
  H  1490  1  0.36266100  0.62465300  0.31863400  1
  H  1491  1  0.33102700  0.64722200  0.30877500  1
  H  1493  1  0.29557000  0.57072000  0.28082300  1
  H  1494  1  0.30347300  0.55722500  0.29969000  1
  H  1496  1  0.47695500  0.71161700  0.26439900  1
  H  1497  1  0.48938700  0.70047400  0.28233300  1
  H  1499  1  0.31023700  0.74074700  0.42975900  1
  H  1500  1  0.33061100  0.73573200  0.44241500  1
  H  1531  1  0.69010800  0.74098800  0.55366400  1
  H  1532  1  0.67871700  0.72387200  0.57955100  1
  H  1533  1  0.71937800  0.69379600  0.53540000  1
  H  1534  1  0.70835400  0.67682800  0.56139400  1
  H  1535  1  0.65686800  0.70099500  0.62569800  1
  H  1536  1  0.70200900  0.66464300  0.61989900  1
  H  1537  1  0.66274300  0.65577800  0.66209200  1
  H  1538  1  0.72333500  0.61692100  0.63980800  1
  H  1539  1  0.60850400  0.72089500  0.64305500  1
  H  1540  1  0.58104100  0.73096100  0.65821800  1
  H  1541  1  0.57776200  0.67985200  0.68644400  1
  H  1542  1  0.60550400  0.66980300  0.67134400  1
  H  1543  1  0.74058100  0.59114600  0.65124400  1
  H  1544  1  0.69341100  0.57257800  0.68036500  1
  H  1545  1  0.67630600  0.59847300  0.66929400  1
  H  1546  1  0.62438100  0.68840500  0.63257100  1
  H  1547  1  0.64201100  0.68453600  0.66835900  1
  H  1548  1  0.68189000  0.67570400  0.58558500  1
  H  1549  1  0.69099100  0.70726300  0.60860000  1
  H  1550  1  0.67520900  0.62285700  0.64280700  1
  H  1551  1  0.70665100  0.64571100  0.65263400  1
  H  1553  1  0.74267900  0.56946400  0.68070300  1
  H  1554  1  0.73501800  0.55594500  0.66175300  1
  H  1556  1  0.56133800  0.71187700  0.69792000  1
  H  1557  1  0.54867100  0.70061300  0.68022700  1
  H  1559  1  0.71950600  0.74303700  0.53189300  1
  H  1560  1  0.70058300  0.73516500  0.51845900  1
  H  1591  1  0.68990700  0.29683300  0.40701400  1
  H  1592  1  0.67842600  0.31386300  0.38111700  1
  H  1593  1  0.71937700  0.34402500  0.42493200  1
  H  1594  1  0.70827300  0.36090700  0.39891500  1
  H  1595  1  0.65628000  0.33657300  0.33481300  1
  H  1596  1  0.70140500  0.37294000  0.34055400  1
  H  1597  1  0.66216700  0.38171300  0.29832500  1
  H  1598  1  0.72282100  0.42048700  0.32061200  1
  H  1599  1  0.60794800  0.31642100  0.31722100  1
  H  1600  1  0.58044300  0.30642800  0.30208800  1
  H  1601  1  0.57714600  0.35762500  0.27403200  1
  H  1602  1  0.60492800  0.36760100  0.28909800  1
  H  1603  1  0.74016100  0.44623600  0.30927000  1
  H  1604  1  0.69312300  0.46497700  0.28005100  1
  H  1605  1  0.67592100  0.43910500  0.29103000  1
  H  1606  1  0.62380900  0.34886100  0.32781600  1
  H  1607  1  0.64144000  0.35304600  0.29207400  1
  H  1608  1  0.68182600  0.36207500  0.37485600  1
  H  1609  1  0.69020300  0.33025800  0.35193800  1
  H  1610  1  0.67468700  0.41470700  0.31750800  1
  H  1611  1  0.70609100  0.39175600  0.30779500  1
  H  1613  1  0.74238900  0.46800600  0.27986300  1
  H  1614  1  0.73471400  0.48146000  0.29885300  1
  H  1616  1  0.56059400  0.32566300  0.26252200  1
  H  1617  1  0.54804300  0.33691100  0.28030500  1
  H  1619  1  0.71943200  0.29483000  0.42868300  1
  H  1620  1  0.70052100  0.30273900  0.44211200  1
  H  1651  1  0.34108600  0.29610300  0.55562000  1
  H  1652  1  0.35520600  0.31177300  0.58107300  1
  H  1653  1  0.32014400  0.34702100  0.53596700  1
  H  1654  1  0.33378300  0.36258100  0.56154400  1
  H  1655  1  0.38222200  0.33591500  0.62644800  1
  H  1656  1  0.33695300  0.37219900  0.62064900  1
  H  1657  1  0.37576900  0.38069700  0.66330900  1
  H  1658  1  0.31547200  0.41973700  0.64027000  1
  H  1659  1  0.42001700  0.32096500  0.66925400  1
  H  1660  1  0.44768600  0.31372500  0.68605900  1
  H  1661  1  0.47264200  0.36263400  0.66608200  1
  H  1662  1  0.44497900  0.37004700  0.64948100  1
  H  1663  1  0.29806700  0.44545900  0.65159000  1
  H  1664  1  0.34490300  0.46401000  0.68126100  1
  H  1665  1  0.36216400  0.43817200  0.67029200  1
  H  1666  1  0.41553900  0.35352700  0.63457100  1
  H  1667  1  0.39583600  0.35041400  0.66934200  1
  H  1668  1  0.35893600  0.36052400  0.58624500  1
  H  1669  1  0.34634800  0.33042300  0.60954800  1
  H  1670  1  0.36349000  0.41384200  0.64363300  1
  H  1671  1  0.33208900  0.39095000  0.65354400  1
  H  1673  1  0.29560600  0.46705900  0.68107100  1
  H  1674  1  0.30350400  0.48065100  0.66226800  1
  H  1676  1  0.47665100  0.33220700  0.70268900  1
  H  1677  1  0.49057500  0.34335400  0.68600800  1
  H  1679  1  0.31141800  0.29866400  0.53377200  1
  H  1680  1  0.33163800  0.30235000  0.52042200  1
  H  1711  1  0.44277900  0.74289200  0.65588800  1
  H  1712  1  0.41725700  0.72541600  0.64428400  1
  H  1713  1  0.46229100  0.69558900  0.68412700  1
  H  1714  1  0.43662700  0.67824600  0.67292200  1
  H  1715  1  0.37159500  0.70194000  0.62120300  1
  H  1716  1  0.37855200  0.66465500  0.66546100  1
  H  1717  1  0.33570200  0.65635800  0.62678600  1
  H  1718  1  0.36675400  0.59393700  0.65169500  1
  H  1719  1  0.33077800  0.71814800  0.58296500  1
  H  1720  1  0.31399100  0.72592000  0.55539700  1
  H  1721  1  0.33043200  0.67537500  0.53113500  1
  H  1722  1  0.34703700  0.66748200  0.55866300  1
  H  1723  1  0.35792100  0.56657100  0.66805700  1
  H  1724  1  0.30976800  0.59345000  0.68734200  1
  H  1725  1  0.31851800  0.62091000  0.67088500  1
  H  1726  1  0.36379300  0.68473300  0.58751200  1
  H  1727  1  0.32903900  0.68707500  0.60737200  1
  H  1728  1  0.41241100  0.67680500  0.64686400  1
  H  1729  1  0.38869400  0.70806400  0.65496000  1
  H  1730  1  0.35147700  0.62384000  0.63647500  1
  H  1731  1  0.34881300  0.64418400  0.67087800  1
  H  1733  1  0.32555300  0.56354200  0.70391700  1
  H  1734  1  0.33807400  0.54973300  0.68821800  1
  H  1736  1  0.29568500  0.70772700  0.52707500  1
  H  1737  1  0.31152000  0.69547100  0.51310900  1
  H  1739  1  0.46524800  0.74469200  0.68526200  1
  H  1740  1  0.47797700  0.73775800  0.66550800  1
  H  1771  1  0.59548900  0.74291300  0.30615000  1
  H  1772  1  0.62126300  0.72585800  0.31780400  1
  H  1773  1  0.57677700  0.69530300  0.27790700  1
  H  1774  1  0.60271400  0.67838100  0.28914100  1
  H  1775  1  0.66758100  0.70322600  0.34102200  1
  H  1776  1  0.66073600  0.66559800  0.29706000  1
  H  1777  1  0.70391900  0.65797800  0.33549400  1
  H  1778  1  0.67268100  0.59534800  0.31091400  1
  H  1779  1  0.71028300  0.71979900  0.37783100  1
  H  1780  1  0.72647000  0.72856100  0.40546400  1
  H  1781  1  0.70678000  0.68051300  0.43221900  1
  H  1782  1  0.69066500  0.67169300  0.40469900  1
  H  1783  1  0.68108300  0.56798100  0.29433700  1
  H  1784  1  0.72913700  0.59458300  0.27444700  1
  H  1785  1  0.72081000  0.62205400  0.29111600  1
  H  1786  1  0.67567900  0.68738600  0.37460500  1
  H  1787  1  0.71047600  0.68853200  0.35478200  1
  H  1788  1  0.62694500  0.67724300  0.31505200  1
  H  1789  1  0.65011400  0.70906000  0.30765800  1
  H  1790  1  0.68819400  0.62515400  0.32594600  1
  H  1791  1  0.69061900  0.64547000  0.29152000  1
  H  1793  1  0.71288500  0.56489300  0.25796100  1
  H  1794  1  0.70044700  0.55110400  0.27374100  1
  H  1796  1  0.74271100  0.71275500  0.43556300  1
  H  1797  1  0.72685200  0.70028900  0.44923500  1
  H  1799  1  0.57307200  0.74429700  0.27666400  1
  H  1800  1  0.56046100  0.73733400  0.29647900  1
  H  1831  1  0.44199800  0.29460200  0.30528800  1
  H  1832  1  0.41635700  0.31189700  0.31691500  1
  H  1833  1  0.46125400  0.34209100  0.27719300  1
  H  1834  1  0.43547800  0.35925000  0.28841800  1
  H  1835  1  0.37073500  0.33536700  0.34036500  1
  H  1836  1  0.37747300  0.37263300  0.29613000  1
  H  1837  1  0.33551400  0.38158700  0.33558400  1
  H  1838  1  0.36663800  0.44357300  0.31027900  1
  H  1839  1  0.34999800  0.31435700  0.38881300  1
  H  1840  1  0.33442800  0.30603100  0.41668600  1
  H  1841  1  0.31270800  0.36015600  0.42078800  1
  H  1842  1  0.32815100  0.36844900  0.39269400  1
  H  1843  1  0.35805700  0.47101200  0.29391200  1
  H  1844  1  0.30977400  0.44450000  0.27445800  1
  H  1845  1  0.31826100  0.41697300  0.29093500  1
  H  1846  1  0.36397700  0.34610500  0.37303000  1
  H  1847  1  0.32850100  0.35364800  0.35604300  1
  H  1848  1  0.41134400  0.36052200  0.31446300  1
  H  1849  1  0.38763800  0.32920400  0.30657400  1
  H  1850  1  0.35136100  0.41382100  0.32539800  1
  H  1851  1  0.34794500  0.39337200  0.29113700  1
  H  1853  1  0.32582700  0.47434700  0.25798000  1
  H  1854  1  0.33834800  0.48805300  0.27377600  1
  H  1856  1  0.29795000  0.33015200  0.43771500  1
  H  1857  1  0.31754200  0.33874800  0.44962400  1
  H  1859  1  0.46449000  0.29300800  0.27595000  1
  H  1860  1  0.47719500  0.29997900  0.29570400  1
  H  1891  1  0.59232300  0.29799200  0.65487400  1
  H  1892  1  0.61819100  0.31428400  0.64229200  1
  H  1893  1  0.57820200  0.34502100  0.68656600  1
  H  1894  1  0.60421600  0.36109200  0.67443500  1
  H  1895  1  0.66666667  0.33497900  0.61931500  1
  H  1896  1  0.66029900  0.37259600  0.66336400  1
  H  1897  1  0.70383600  0.37949700  0.62522300  1
  H  1898  1  0.67301800  0.44249200  0.64955800  1
  H  1899  1  0.70977500  0.31807600  0.58264700  1
  H  1900  1  0.72604300  0.30933800  0.55505500  1
  H  1901  1  0.70670200  0.35757800  0.52839400  1
  H  1902  1  0.69052100  0.36638200  0.55587600  1
  H  1903  1  0.68143900  0.46979700  0.66621900  1
  H  1904  1  0.72910500  0.44286400  0.68659000  1
  H  1905  1  0.72075600  0.41544700  0.66984300  1
  H  1906  1  0.67536600  0.35091000  0.58582100  1
  H  1907  1  0.70995700  0.34886700  0.60591900  1
  H  1908  1  0.62673600  0.36232900  0.64708100  1
  H  1909  1  0.64863000  0.32915100  0.65185500  1
  H  1910  1  0.68836600  0.41259100  0.63470400  1
  H  1911  1  0.69046700  0.39221600  0.66911300  1
  H  1913  1  0.71294800  0.47266500  0.70290800  1
  H  1914  1  0.70066000  0.48650900  0.68706400  1
  H  1916  1  0.74249400  0.32521900  0.52506500  1
  H  1917  1  0.72669800  0.33773300  0.51135900  1
  H  1919  1  0.57190600  0.29646300  0.68623300  1
  H  1920  1  0.55852500  0.30450100  0.66734900  1
  H  1927  1  0.78234200  0.04404400  0.70728300  1
  H  1928  1  0.78984500  0.98638000  0.71025300  1
  H  1929  1  0.82154200  0.01796800  0.67304700  1
  H  1931  1  0.83030600  0.98551200  0.68545800  1
  H  1933  1  0.75795000  0.01950200  0.71769100  1
  H  1935  1  0.79543300  0.05686300  0.67627800  1
  H  1942  1  0.25517000  0.99325100  0.70621700  1
  H  1943  1  0.24720500  0.05082100  0.70966600  1
  H  1944  1  0.21579100  0.01929600  0.67216900  1
  H  1946  1  0.20679900  0.05164000  0.68475800  1
  H  1948  1  0.27935400  0.01790500  0.71680800  1
  H  1950  1  0.24227400  0.98078800  0.67485700  1
  H  1957  1  0.78219200  0.99383600  0.25336600  1
  H  1958  1  0.78948900  0.05151800  0.25024200  1
  H  1959  1  0.82133400  0.02012700  0.28749100  1
  H  1961  1  0.82996000  0.05261500  0.27490100  1
  H  1963  1  0.75770500  0.01828600  0.24293200  1
  H  1965  1  0.79532100  0.98122000  0.28448800  1
  H  1972  1  0.24946200  0.04579300  0.24529800  1
  H  1973  1  0.24009600  0.98851500  0.24059400  1
  H  1974  1  0.21435900  0.01889300  0.28307800  1
  H  1976  1  0.20264000  0.98781500  0.26791200  1
  H  1978  1  0.25289200  0.02319600  0.21490000  1
  H  1980  1  0.24053800  0.05732400  0.27888800  1
  H  1987  1  0.04512500  0.74630800  0.74324600  1
  H  1988  1  0.98739200  0.74935900  0.75025200  1
  H  1989  1  0.01867000  0.71214800  0.78224600  1
  H  1991  1  0.98613500  0.72468400  0.79073300  1
  H  1993  1  0.02080200  0.75669400  0.71862900  1
  H  1995  1  0.05773200  0.71524600  0.75640400  1
  H  2002  1  0.99146500  0.75364500  0.20962300  1
  H  2003  1  0.04895700  0.75735200  0.20117700  1
  H  2004  1  0.01827300  0.71538900  0.17496000  1
  H  2006  1  0.04985700  0.72986700  0.16379800  1
  H  2008  1  0.01448100  0.78363300  0.21345300  1
  H  2010  1  0.97953700  0.72027500  0.20054200  1
  H  2017  1  0.99269200  0.28420300  0.75024800  1
  H  2018  1  0.05012600  0.28026700  0.75901400  1
  H  2019  1  0.01944900  0.32232000  0.78509500  1
  H  2021  1  0.05087600  0.30759700  0.79646700  1
  H  2023  1  0.01564600  0.25411200  0.74657800  1
  H  2025  1  0.98082100  0.31764800  0.75931800  1
  H  2032  1  0.04401200  0.29137700  0.21746600  1
  H  2033  1  0.98634800  0.28901400  0.20967100  1
  H  2034  1  0.01841100  0.32635400  0.17861700  1
  H  2036  1  0.98581500  0.31406700  0.16953300  1
  H  2038  1  0.01923000  0.28094600  0.24159600  1
  H  2040  1  0.05721800  0.32231700  0.20491000  1
  H  2047  1  0.75176200  0.79146900  0.01071100  1
  H  2048  1  0.75676600  0.79622000  0.95290200  1
  H  2049  1  0.71346600  0.82342700  0.98077500  1
  H  2051  1  0.72786900  0.83258400  0.94854600  1
  H  2053  1  0.78277000  0.78619500  0.97573700  1
  H  2055  1  0.71769800  0.80016900  0.02082300  1
  H  2062  1  0.75155800  0.24764100  0.95038900  1
  H  2063  1  0.75775100  0.24092900  0.00788300  1
  H  2064  1  0.71485200  0.21337100  0.97973400  1
  H  2066  1  0.73088300  0.20327700  0.01093700  1
  H  2068  1  0.78302300  0.25235300  0.98507900  1
  H  2070  1  0.71774600  0.23800500  0.94028200  1
  H  2077  1  0.28665700  0.79021900  0.94984500  1
  H  2078  1  0.28029900  0.79728600  0.00727700  1
  H  2079  1  0.32336000  0.82456600  0.97910800  1
  H  2081  1  0.30722400  0.83490900  0.01017500  1
  H  2083  1  0.25507800  0.78579800  0.98447200  1
  H  2085  1  0.32049000  0.79974400  0.93973900  1
  H  2092  1  0.29188300  0.25559600  0.00580300  1
  H  2093  1  0.28947400  0.24700400  0.94825300  1
  H  2094  1  0.32646200  0.21601400  0.98078500  1
  H  2096  1  0.31410700  0.20656300  0.94837000  1
  H  2098  1  0.28162400  0.27947600  0.98078000  1
  H  2100  1  0.32265900  0.24288100  0.01924500  1
  H  2107  1  0.04543500  0.78167100  0.25364000  1
  H  2108  1  0.98797400  0.79037200  0.24987100  1
  H  2109  1  0.01978000  0.82171300  0.28719800  1
  H  2111  1  0.98762000  0.83107500  0.27375400  1
  H  2113  1  0.02055100  0.75778700  0.24291500  1
  H  2115  1  0.05801800  0.79471100  0.28487700  1
  H  2122  1  0.99004000  0.24782300  0.24638200  1
  H  2123  1  0.04739500  0.23946000  0.24089600  1
  H  2124  1  0.01811000  0.21331200  0.28389600  1
  H  2126  1  0.04973100  0.20238600  0.26849000  1
  H  2128  1  0.01202700  0.25181300  0.21567300  1
  H  2130  1  0.97936200  0.23894500  0.28027600  1
  H  2137  1  0.99100600  0.78937400  0.71381700  1
  H  2138  1  0.04823700  0.79904400  0.71849600  1
  H  2139  1  0.01771600  0.82455800  0.67597900  1
  H  2141  1  0.04879100  0.83642200  0.69107900  1
  H  2143  1  0.01357000  0.78611200  0.74422100  1
  H  2145  1  0.97948300  0.79814700  0.68017300  1
  H  2152  1  0.04660700  0.25588300  0.70615900  1
  H  2153  1  0.98915500  0.24737000  0.71038700  1
  H  2154  1  0.02054000  0.21600100  0.67273000  1
  H  2156  1  0.98851400  0.20667400  0.68634400  1
  H  2158  1  0.02195100  0.27985500  0.71707600  1
  H  2160  1  0.05900400  0.24289000  0.67497900  1
  H  2167  1  0.75307500  0.04791500  0.21003900  1
  H  2168  1  0.75743400  0.99057900  0.20090500  1
  H  2169  1  0.71493900  0.02105100  0.17529500  1
  H  2171  1  0.72969100  0.98970600  0.16372900  1
  H  2173  1  0.78336500  0.02527100  0.21350500  1
  H  2175  1  0.71937400  0.05941800  0.20138400  1
  H  2182  1  0.75332300  0.98985700  0.75073400  1
  H  2183  1  0.75790000  0.04721700  0.75961400  1
  H  2184  1  0.71538100  0.01700800  0.78548500  1
  H  2186  1  0.73031300  0.04828200  0.79689800  1
  H  2188  1  0.78364700  0.01236800  0.74705100  1
  H  2190  1  0.71981900  0.97827600  0.75974100  1
  H  2197  1  0.29308900  0.99186500  0.21639600  1
  H  2198  1  0.28924900  0.04941400  0.20844500  1
  H  2199  1  0.32677900  0.01811100  0.17683900  1
  H  2201  1  0.31382000  0.05032100  0.16786300  1
  H  2203  1  0.28231300  0.01632300  0.24059500  1
  H  2205  1  0.32444200  0.97956900  0.20335700  1
  H  2212  1  0.28386200  0.04724000  0.74988700  1
  H  2213  1  0.27970900  0.98982900  0.75868900  1
  H  2214  1  0.32208500  0.02030700  0.78447900  1
  H  2216  1  0.30731300  0.98894600  0.79593700  1
  H  2218  1  0.25365300  0.02447300  0.74629000  1
  H  2220  1  0.31736300  0.05894500  0.75865700  1
  H  2227  1  0.78171500  0.74392700  0.94844700  1
  H  2228  1  0.78871400  0.75226800  0.00566100  1
  H  2229  1  0.82263800  0.71436700  0.97733300  1
  H  2231  1  0.83042900  0.73164500  0.00842300  1
  H  2233  1  0.75770900  0.75658700  0.98419100  1
  H  2235  1  0.79664100  0.71241600  0.93851900  1
  H  2242  1  0.25581400  0.74346100  0.01227800  1
  H  2243  1  0.25011400  0.75181400  0.95494100  1
  H  2244  1  0.21561900  0.71382100  0.98242500  1
  H  2246  1  0.20860600  0.73131400  0.95091200  1
  H  2248  1  0.28059600  0.75624600  0.97727100  1
  H  2250  1  0.24087100  0.71162000  0.02155200  1
  H  2257  1  0.78242300  0.29482000  0.01241700  1
  H  2258  1  0.78762600  0.28616900  0.95507500  1
  H  2259  1  0.82233300  0.32432800  0.98205600  1
  H  2261  1  0.82909100  0.30667500  0.95061900  1
  H  2263  1  0.75737400  0.28174600  0.97763900  1
  H  2265  1  0.79749400  0.32659800  0.02150500  1
  H  2272  1  0.24884900  0.28449700  0.95133600  1
  H  2273  1  0.23973100  0.27900000  0.00857400  1
  H  2274  1  0.21401500  0.32203600  0.97897400  1
  H  2276  1  0.20262300  0.30650700  0.01042600  1
  H  2278  1  0.25237400  0.25373700  0.97342300  1
  H  2280  1  0.24012900  0.31842900  0.94054700  1
  H  2287  1  0.54787100  0.75253000  0.25076200  1
  H  2288  1  0.49073300  0.75686600  0.26109000  1
  H  2289  1  0.52181700  0.71466600  0.28643000  1
  H  2291  1  0.49076000  0.72961700  0.29858800  1
  H  2293  1  0.52504200  0.78275800  0.24762500  1
  H  2295  1  0.55990100  0.71914300  0.25970300  1
  H  2302  1  0.49075200  0.75338900  0.71093900  1
  H  2303  1  0.54792700  0.75727900  0.70058800  1
  H  2304  1  0.51659800  0.71499500  0.67569800  1
  H  2306  1  0.54778600  0.72951900  0.66343600  1
  H  2308  1  0.51373300  0.78349500  0.71390300  1
  H  2310  1  0.47864400  0.71988200  0.70244400  1
  H  2317  1  0.48953200  0.28446900  0.25015200  1
  H  2318  1  0.54681500  0.28033100  0.25975300  1
  H  2319  1  0.51596000  0.32265300  0.28518000  1
  H  2321  1  0.54721100  0.30793000  0.29702000  1
  H  2323  1  0.51236600  0.25426400  0.24688700  1
  H  2325  1  0.47771000  0.31802700  0.25885500  1
  H  2332  1  0.54709300  0.29195800  0.71711300  1
  H  2333  1  0.48952600  0.28983800  0.70859500  1
  H  2334  1  0.52220800  0.32655900  0.67746000  1
  H  2336  1  0.48969400  0.31412700  0.66804700  1
  H  2338  1  0.52208100  0.28188000  0.74106900  1
  H  2340  1  0.56098700  0.32210300  0.70436700  1
  H  2347  1  0.25352600  0.78874700  0.50853000  1
  H  2348  1  0.25814500  0.79772900  0.45117600  1
  H  2349  1  0.21567200  0.82361700  0.48144800  1
  H  2351  1  0.23069700  0.83510800  0.45025500  1
  H  2353  1  0.28391100  0.78525200  0.48593600  1
  H  2355  1  0.21995600  0.79769500  0.52004100  1
  H  2362  1  0.25176500  0.24654500  0.44973500  1
  H  2363  1  0.25745300  0.24331400  0.50759900  1
  H  2364  1  0.21421400  0.21488800  0.48088500  1
  H  2366  1  0.22919700  0.20669300  0.51312000  1
  H  2368  1  0.28315600  0.25282600  0.48406900  1
  H  2370  1  0.21760400  0.23716300  0.44026000  1
  H  2377  1  0.79477300  0.78255500  0.44856700  1
  H  2378  1  0.78646800  0.78841300  0.50591000  1
  H  2379  1  0.82438300  0.82286600  0.47823900  1
  H  2381  1  0.80728600  0.83002300  0.50950200  1
  H  2383  1  0.78201700  0.75789700  0.48395300  1
  H  2385  1  0.82616000  0.79773200  0.43882500  1
  H  2392  1  0.79461100  0.25548100  0.51230000  1
  H  2393  1  0.78637200  0.24941800  0.45496900  1
  H  2394  1  0.82429700  0.21510000  0.48279300  1
  H  2396  1  0.80721900  0.20781000  0.45152800  1
  H  2398  1  0.78193600  0.28002800  0.47684300  1
  H  2400  1  0.82603500  0.24041800  0.52209100  1
  H  2407  1  0.54623800  0.78167400  0.75345300  1
  H  2408  1  0.48873300  0.79048000  0.75081600  1
  H  2409  1  0.52126200  0.82154200  0.78773300  1
  H  2411  1  0.48888700  0.83109600  0.77484300  1
  H  2413  1  0.52122300  0.75783500  0.74320900  1
  H  2415  1  0.56011500  0.79441100  0.78339900  1
  H  2422  1  0.49133100  0.24962500  0.74534700  1
  H  2423  1  0.54850000  0.23920000  0.74147900  1
  H  2424  1  0.51707700  0.21417500  0.78361700  1
  H  2426  1  0.54817100  0.20188800  0.76899700  1
  H  2428  1  0.51431700  0.25272400  0.71531600  1
  H  2430  1  0.47892500  0.24081200  0.77858700  1
  H  2437  1  0.49241800  0.78081600  0.20822500  1
  H  2438  1  0.54992100  0.78971900  0.21057600  1
  H  2439  1  0.51714600  0.82074600  0.17384400  1
  H  2441  1  0.54955900  0.83036200  0.18667700  1
  H  2443  1  0.51753300  0.75702100  0.21840400  1
  H  2445  1  0.47827600  0.79358100  0.17845600  1
  H  2452  1  0.54421800  0.25577200  0.20714200  1
  H  2453  1  0.48662700  0.24762900  0.21000000  1
  H  2454  1  0.51865500  0.21626900  0.17288800  1
  H  2456  1  0.48620200  0.20710300  0.18573700  1
  H  2458  1  0.51940000  0.27989800  0.21746200  1
  H  2460  1  0.55737400  0.24297100  0.17642800  1
  H  2467  1  0.28264300  0.74519200  0.45479600  1
  H  2468  1  0.29032400  0.74874200  0.51240600  1
  H  2469  1  0.32225300  0.71155500  0.48102000  1
  H  2471  1  0.33093100  0.72401200  0.51339500  1
  H  2473  1  0.25829800  0.75571600  0.47930100  1
  H  2475  1  0.29599600  0.71370200  0.44255300  1
  H  2482  1  0.74668200  0.75199200  0.51006400  1
  H  2483  1  0.74289800  0.75708400  0.45219100  1
  H  2484  1  0.71514100  0.71381500  0.47955900  1
  H  2486  1  0.70652000  0.72836100  0.44720900  1
  H  2488  1  0.75253900  0.78306500  0.47531500  1
  H  2490  1  0.73780900  0.71796600  0.51996900  1
  H  2497  1  0.28277200  0.29486900  0.51090400  1
  H  2498  1  0.28819700  0.28678900  0.45349100  1
  H  2499  1  0.32304000  0.32440200  0.48108400  1
  H  2501  1  0.32987500  0.30737400  0.44967400  1
  H  2503  1  0.25784000  0.28222600  0.47560800  1
  H  2505  1  0.29822900  0.32620300  0.52062900  1
  H  2512  1  0.74663900  0.28594200  0.45056400  1
  H  2513  1  0.74271600  0.28095200  0.50843500  1
  H  2514  1  0.71503900  0.32418900  0.48093500  1
  H  2516  1  0.70631900  0.30969500  0.51326900  1
  H  2518  1  0.75238100  0.25492100  0.48536500  1
  H  2520  1  0.73774300  0.31992800  0.44053500  1
  H  2527  1  0.78224000  0.55154700  0.20479000  1
  H  2528  1  0.78842800  0.49430600  0.21353100  1
  H  2529  1  0.82275100  0.52188500  0.17543500  1
  H  2531  1  0.83010000  0.49082600  0.19285000  1
  H  2533  1  0.75773500  0.51622300  0.21771900  1
  H  2535  1  0.79732300  0.56110800  0.17330300  1
  H  2542  1  0.25645300  0.48690800  0.20554000  1
  H  2543  1  0.24982700  0.54412900  0.21413900  1
  H  2544  1  0.21562500  0.51616900  0.17622100  1
  H  2546  1  0.20810600  0.54726000  0.19347200  1
  H  2548  1  0.28068200  0.52247400  0.21835700  1
  H  2550  1  0.24128600  0.47731300  0.17382800  1
  H  2557  1  0.78239300  0.48650000  0.75632100  1
  H  2558  1  0.78859100  0.54368800  0.74723600  1
  H  2559  1  0.82312400  0.51626400  0.78525500  1
  H  2561  1  0.83035400  0.54727600  0.76772800  1
  H  2563  1  0.75789500  0.52180100  0.74319100  1
  H  2565  1  0.79773600  0.47730200  0.78808300  1
  H  2572  1  0.25584600  0.55103600  0.75606400  1
  H  2573  1  0.24943800  0.49376500  0.74768500  1
  H  2574  1  0.21520400  0.52172100  0.78558300  1
  H  2576  1  0.20780300  0.49046400  0.76856800  1
  H  2578  1  0.28019200  0.51551300  0.74339700  1
  H  2580  1  0.24079000  0.56054400  0.78789200  1
  H  2587  1  0.75168500  0.54761800  0.70796100  1
  H  2588  1  0.75732900  0.48982400  0.70384900  1
  H  2589  1  0.71399000  0.51697600  0.67598200  1
  H  2591  1  0.72910800  0.48490300  0.66716400  1
  H  2593  1  0.78303100  0.51301100  0.71373000  1
  H  2595  1  0.71765100  0.55732900  0.69891100  1
  H  2602  1  0.75152800  0.49004400  0.25275500  1
  H  2603  1  0.75717500  0.54781100  0.25723400  1
  H  2604  1  0.71372000  0.52051500  0.28477300  1
  H  2606  1  0.72873900  0.55255500  0.29381300  1
  H  2608  1  0.78289900  0.52466400  0.24725100  1
  H  2610  1  0.71745800  0.48028900  0.26163900  1
  H  2617  1  0.28629800  0.48910900  0.70830700  1
  H  2618  1  0.28117500  0.54694300  0.70401500  1
  H  2619  1  0.32463600  0.51939100  0.67674200  1
  H  2621  1  0.31008000  0.55162300  0.66775100  1
  H  2623  1  0.25517000  0.52391700  0.71373500  1
  H  2625  1  0.32034500  0.47910400  0.69966700  1
  H  2632  1  0.28662300  0.54879700  0.25353300  1
  H  2633  1  0.28156300  0.49095500  0.25771100  1
  H  2634  1  0.32484200  0.51851800  0.28525500  1
  H  2636  1  0.31028800  0.48627000  0.29412500  1
  H  2638  1  0.25558400  0.51394900  0.24792200  1
  H  2640  1  0.32059000  0.55887200  0.26242400  1
  H  2671  1  0.69436700  0.62293000  0.45442700  1
  H  2672  1  0.66882300  0.63454900  0.43698000  1
  H  2673  1  0.71417300  0.59524400  0.40691100  1
  H  2674  1  0.68849600  0.60646900  0.38959400  1
  H  2675  1  0.62261000  0.65681600  0.41400000  1
  H  2676  1  0.63083900  0.61379400  0.37557700  1
  H  2677  1  0.58690400  0.65146800  0.36829300  1
  H  2678  1  0.61928100  0.60700900  0.31731300  1
  H  2679  1  0.58085300  0.69465600  0.42990300  1
  H  2680  1  0.56392500  0.72212800  0.43768700  1
  H  2681  1  0.58121800  0.74694600  0.38769100  1
  H  2682  1  0.59795600  0.71951500  0.37977900  1
  H  2683  1  0.61080100  0.59125900  0.28944300  1
  H  2684  1  0.55692100  0.61365400  0.29324100  1
  H  2685  1  0.56544200  0.62954100  0.32087900  1
  H  2686  1  0.61437300  0.69064800  0.39652200  1
  H  2687  1  0.57996500  0.67026800  0.39944100  1
  H  2688  1  0.66409900  0.63250400  0.38840700  1
  H  2689  1  0.64040300  0.62339100  0.41941300  1
  H  2690  1  0.59777200  0.64333200  0.33635900  1
  H  2691  1  0.60346200  0.60790100  0.35414300  1
  H  2693  1  0.58064200  0.57661900  0.27272800  1
  H  2694  1  0.58946300  0.59594800  0.26056000  1
  H  2696  1  0.54599600  0.75072200  0.41968000  1
  H  2697  1  0.56197600  0.76474400  0.40767800  1
  H  2699  1  0.71690100  0.59366600  0.45603100  1
  H  2700  1  0.72964900  0.61347900  0.44930700  1
  H  2731  1  0.84406700  0.97513730  0.45206600  1
  H  2732  1  0.86981200  0.96243830  0.43568300  1
  H  2733  1  0.82678200  0.00261100  0.40346100  1
  H  2734  1  0.85267500  0.99039231  0.38725500  1
  H  2735  1  0.91655480  0.93806030  0.41333300  1
  H  2736  1  0.91034880  0.98235030  0.37595100  1
  H  2737  1  0.95346280  0.94380330  0.36856500  1
  H  2738  1  0.92327780  0.96836130  0.30565100  1
  H  2739  1  0.95803480  0.89986200  0.42966000  1
  H  2740  1  0.97479380  0.87227300  0.43738100  1
  H  2741  1  0.95788380  0.84791200  0.38703600  1
  H  2742  1  0.94131780  0.87546600  0.37918400  1
  H  2743  1  0.93213780  0.98485930  0.27838200  1
  H  2744  1  0.97970380  0.00488000  0.30575500  1
  H  2745  1  0.97091580  0.98829330  0.33313500  1
  H  2746  1  0.92491780  0.90438830  0.39590000  1
  H  2747  1  0.95947880  0.92438030  0.39943700  1
  H  2748  1  0.87640700  0.96417330  0.38703200  1
  H  2749  1  0.89918100  0.97180930  0.41908600  1
  H  2750  1  0.93832480  0.95343030  0.33573300  1
  H  2751  1  0.94035180  0.98787730  0.35605900  1
  H  2753  1  0.96402280  0.02122900  0.27571100  1
  H  2754  1  0.95172780  0.00544400  0.26181700  1
  H  2756  1  0.99287277  0.84385600  0.41917000  1
  H  2757  1  0.97693980  0.82990500  0.40702900  1
  H  2759  1  0.82244400  0.00558400  0.45218700  1
  H  2760  1  0.80949000  0.98572730  0.44600800  1
  H  2791  1  0.69413200  0.97138230  0.00808400  1
  H  2792  1  0.66860400  0.95997830  0.02569300  1
  H  2793  1  0.71432300  0.99912131  0.05540400  1
  H  2794  1  0.68866000  0.98810830  0.07288600  1
  H  2795  1  0.62247600  0.93814130  0.04872900  1
  H  2796  1  0.63084900  0.98109730  0.08719000  1
  H  2797  1  0.58681200  0.94354130  0.09446000  1
  H  2798  1  0.61921300  0.98796130  0.14544500  1
  H  2799  1  0.58039500  0.90059930  0.03281100  1
  H  2800  1  0.56346300  0.87316000  0.02493000  1
  H  2801  1  0.58127100  0.84792500  0.07453300  1
  H  2802  1  0.59801800  0.87531800  0.08254300  1
  H  2803  1  0.61073300  0.00371600  0.17331300  1
  H  2804  1  0.55685700  0.98132130  0.16953100  1
  H  2805  1  0.56537500  0.96543030  0.14189300  1
  H  2806  1  0.61421200  0.90435130  0.06595800  1
  H  2807  1  0.57979300  0.92475830  0.06338100  1
  H  2808  1  0.66408700  0.96215230  0.07422900  1
  H  2809  1  0.64034000  0.97153030  0.04334200  1
  H  2810  1  0.59764800  0.95163430  0.12638800  1
  H  2811  1  0.60349400  0.98705530  0.10863800  1
  H  2813  1  0.58057800  0.01837100  0.19001500  1
  H  2814  1  0.58938600  0.99904931  0.20220400  1
  H  2816  1  0.54575800  0.84437400  0.04281000  1
  H  2817  1  0.56184000  0.83029700  0.05460200  1
  H  2819  1  0.71669600  0.00049200  0.00622100  1
  H  2820  1  0.72952400  0.98074630  0.01299900  1
  H  2851  1  0.84358900  0.61864300  0.00864300  1
  H  2852  1  0.86929200  0.63162600  0.02489000  1
  H  2853  1  0.82556700  0.59287900  0.05792400  1
  H  2854  1  0.85138300  0.60540500  0.07401000  1
  H  2855  1  0.91560680  0.65625200  0.04702100  1
  H  2856  1  0.90891880  0.61344900  0.08596000  1
  H  2857  1  0.95152780  0.65265800  0.09276800  1
  H  2858  1  0.92165480  0.60580400  0.14371100  1
  H  2859  1  0.93315880  0.70566700  0.02670300  1
  H  2860  1  0.94839480  0.73323500  0.01702800  1
  H  2861  1  0.97606780  0.73611800  0.06846600  1
  H  2862  1  0.96090780  0.70828100  0.07811400  1
  H  2863  1  0.93177080  0.59069100  0.17142000  1
  H  2864  1  0.98287380  0.61892400  0.16803900  1
  H  2865  1  0.97272280  0.63412400  0.14061000  1
  H  2866  1  0.92236080  0.68964700  0.05930200  1
  H  2867  1  0.95809080  0.67186600  0.06308500  1
  H  2868  1  0.87516500  0.63175800  0.07350100  1
  H  2869  1  0.89845400  0.62205700  0.04235900  1
  H  2870  1  0.93948280  0.64449900  0.12498800  1
  H  2871  1  0.93748280  0.60875000  0.10697700  1
  H  2873  1  0.96376980  0.57922600  0.18782700  1
  H  2874  1  0.95253280  0.59696700  0.20044300  1
  H  2876  1  0.98785480  0.75287600  0.03673100  1
  H  2877  1  0.96999180  0.76536500  0.04791900  1
  H  2879  1  0.82162000  0.58854500  0.00920000  1
  H  2880  1  0.80876700  0.60862900  0.01485600  1
  H  2911  1  0.59043200  0.51975000  0.65327300  1
  H  2912  1  0.60417300  0.50336500  0.62806400  1
  H  2913  1  0.56901800  0.46952700  0.67415800  1
  H  2914  1  0.58229500  0.45325000  0.64882400  1
  H  2915  1  0.62981500  0.47971300  0.58268700  1
  H  2916  1  0.58689500  0.44108500  0.59040500  1
  H  2917  1  0.62492400  0.43412000  0.54672700  1
  H  2918  1  0.58048700  0.38322100  0.57933200  1
  H  2919  1  0.66765300  0.49608600  0.54104700  1
  H  2920  1  0.69513200  0.50411500  0.52423900  1
  H  2921  1  0.72037700  0.45442100  0.54176800  1
  H  2922  1  0.69294500  0.44626500  0.55838700  1
  H  2923  1  0.56450600  0.35539900  0.57116100  1
  H  2924  1  0.58655000  0.35867000  0.51709800  1
  H  2925  1  0.60267000  0.38627300  0.52531200  1
  H  2926  1  0.66377600  0.46275200  0.57460100  1
  H  2927  1  0.64363800  0.46529200  0.54002100  1
  H  2928  1  0.60762100  0.45462800  0.62398800  1
  H  2929  1  0.59473700  0.48412100  0.60008600  1
  H  2930  1  0.61669800  0.40198200  0.55768800  1
  H  2931  1  0.58122700  0.41985700  0.56289700  1
  H  2933  1  0.54951800  0.33862300  0.54122600  1
  H  2934  1  0.56881000  0.32636600  0.55000200  1
  H  2936  1  0.72395900  0.48632000  0.50645300  1
  H  2937  1  0.73803300  0.47449500  0.52251300  1
  H  2939  1  0.56089800  0.51801800  0.67549400  1
  H  2940  1  0.58126200  0.51438500  0.68864000  1
  H  2971  1  0.94998280  0.51943900  0.80923500  1
  H  2972  1  0.93665880  0.50320000  0.83477000  1
  H  2973  1  0.97013280  0.46895700  0.78772300  1
  H  2974  1  0.95723480  0.45281400  0.81335100  1
  H  2975  1  0.91079880  0.47929900  0.87918300  1
  H  2976  1  0.95412980  0.44093600  0.87290200  1
  H  2977  1  0.91464680  0.43364500  0.91521980  1
  H  2978  1  0.95981180  0.38290700  0.88336700  1
  H  2979  1  0.86184200  0.49970500  0.89569600  1
  H  2980  1  0.83405000  0.50978800  0.91023580  1
  H  2981  1  0.83004600  0.45864100  0.93829680  1
  H  2982  1  0.85812000  0.44858200  0.92383380  1
  H  2983  1  0.97583480  0.35515900  0.89172500  1
  H  2984  1  0.95364580  0.35867700  0.94571880  1
  H  2985  1  0.93747680  0.38620200  0.93731280  1
  H  2986  1  0.87770000  0.46705300  0.88545900  1
  H  2987  1  0.89483700  0.46306900  0.92147680  1
  H  2988  1  0.93213480  0.45474300  0.83866200  1
  H  2989  1  0.94688780  0.48339500  0.86253600  1
  H  2990  1  0.92355280  0.40155400  0.90421580  1
  H  2991  1  0.95904080  0.41982700  0.90069480  1
  H  2993  1  0.99077777  0.33859500  0.92180180  1
  H  2994  1  0.97154880  0.32623300  0.91302580  1
  H  2996  1  0.81331900  0.49060400  0.94941680  1
  H  2997  1  0.80111300  0.47944700  0.93133780  1
  H  2999  1  0.97877280  0.51746000  0.78637500  1
  H  3000  1  0.95823580  0.51386500  0.77349400  1
  H  3031  1  0.94522280  0.07405200  0.65475700  1
  H  3032  1  0.93391180  0.09177600  0.62926500  1
  H  3033  1  0.97265680  0.12134100  0.67541700  1
  H  3034  1  0.96171980  0.13894600  0.64979900  1
  H  3035  1  0.91146480  0.11513900  0.58416100  1
  H  3036  1  0.95451580  0.15361900  0.59152400  1
  H  3037  1  0.91540980  0.16136300  0.54893700  1
  H  3038  1  0.96046780  0.21215700  0.58063100  1
  H  3039  1  0.86262900  0.09475500  0.56703700  1
  H  3040  1  0.83501600  0.08477800  0.55209200  1
  H  3041  1  0.83130000  0.13615300  0.52441800  1
  H  3042  1  0.85919100  0.14611000  0.53929000  1
  H  3043  1  0.97619480  0.24000700  0.57205000  1
  H  3044  1  0.95355280  0.23617300  0.51827400  1
  H  3045  1  0.93768380  0.20855100  0.52689800  1
  H  3046  1  0.87836000  0.12720100  0.57775900  1
  H  3047  1  0.89583200  0.13199700  0.54200800  1
  H  3048  1  0.93562880  0.14027300  0.62525800  1
  H  3049  1  0.94546480  0.10983100  0.60111300  1
  H  3050  1  0.92406980  0.19317100  0.55966400  1
  H  3051  1  0.95959280  0.17522700  0.56419600  1
  H  3053  1  0.99072377  0.25664800  0.54183300  1
  H  3054  1  0.97143780  0.26886500  0.55068800  1
  H  3056  1  0.81470300  0.10424300  0.51285000  1
  H  3057  1  0.80231400  0.11530700  0.53086000  1
  H  3059  1  0.97413980  0.07215300  0.67759100  1
  H  3060  1  0.95425480  0.07883500  0.69025200  1
  H  3091  1  0.59085700  0.07603700  0.80845300  1
  H  3092  1  0.60438400  0.09224700  0.83389100  1
  H  3093  1  0.57010300  0.12648000  0.78742300  1
  H  3094  1  0.58318600  0.14259100  0.81297300  1
  H  3095  1  0.62951900  0.11580900  0.87940600  1
  H  3096  1  0.58645500  0.15431500  0.87180200  1
  H  3097  1  0.62427900  0.16111500  0.91568480  1
  H  3098  1  0.57997000  0.21209900  0.88301400  1
  H  3099  1  0.66725000  0.10002400  0.92167180  1
  H  3100  1  0.69480800  0.09212900  0.93838080  1
  H  3101  1  0.72019700  0.14136300  0.91979980  1
  H  3102  1  0.69266500  0.14941100  0.90328980  1
  H  3103  1  0.56406300  0.23995600  0.89122200  1
  H  3104  1  0.58613600  0.23657000  0.94526880  1
  H  3105  1  0.60218000  0.20893500  0.93701780  1
  H  3106  1  0.66334200  0.13333500  0.88771100  1
  H  3107  1  0.64314200  0.12988500  0.92217880  1
  H  3108  1  0.60826400  0.14083000  0.83820800  1
  H  3109  1  0.59419400  0.11159300  0.86177300  1
  H  3110  1  0.61615200  0.19328000  0.90456780  1
  H  3111  1  0.58065300  0.17540200  0.89950200  1
  H  3113  1  0.54914800  0.25674100  0.92121780  1
  H  3114  1  0.56845000  0.26895700  0.91239780  1
  H  3116  1  0.72391100  0.10989100  0.95556180  1
  H  3117  1  0.73790600  0.12145000  0.93923380  1
  H  3119  1  0.56168600  0.07795300  0.78607800  1
  H  3120  1  0.58200900  0.08165200  0.77288800  1
  H  3151  1  0.49406800  0.72214500  0.55785500  1
  H  3152  1  0.47682600  0.69664800  0.56984800  1
  H  3153  1  0.44666000  0.74064400  0.52911100  1
  H  3154  1  0.42955800  0.71498700  0.54069100  1
  H  3155  1  0.45380000  0.65068100  0.59331200  1
  H  3156  1  0.41683300  0.65691200  0.54868600  1
  H  3157  1  0.40891400  0.61396800  0.58731000  1
  H  3158  1  0.36772400  0.63561600  0.52835800  1
  H  3159  1  0.47066900  0.60815500  0.62996200  1
  H  3160  1  0.47939800  0.59175200  0.65748000  1
  H  3161  1  0.43094100  0.61064100  0.68409400  1
  H  3162  1  0.42214900  0.62696600  0.65668400  1
  H  3163  1  0.34209400  0.62320900  0.51155600  1
  H  3164  1  0.32757300  0.59068400  0.55789800  1
  H  3165  1  0.35334400  0.60266700  0.57448200  1
  H  3166  1  0.43808700  0.64243900  0.62676700  1
  H  3167  1  0.43917900  0.60766100  0.60690200  1
  H  3168  1  0.42823400  0.69110300  0.56697600  1
  H  3169  1  0.45995000  0.66774700  0.55966000  1
  H  3170  1  0.37580500  0.63031300  0.57627500  1
  H  3171  1  0.39801600  0.62505000  0.54337200  1
  H  3173  1  0.32190500  0.59186500  0.50919400  1
  H  3174  1  0.30823600  0.61040800  0.51753900  1
  H  3176  1  0.46347200  0.57500500  0.68727100  1
  H  3177  1  0.45084600  0.59064300  0.70106000  1
  H  3179  1  0.49571600  0.74398600  0.52801900  1
  H  3180  1  0.48868600  0.75706500  0.54751000  1
  H  3211  1  0.49358700  0.87397600  0.90606180  1
  H  3212  1  0.47616200  0.89958000  0.89454000  1
  H  3213  1  0.44610500  0.85422200  0.93383580  1
  H  3214  1  0.42881000  0.87994800  0.92269780  1
  H  3215  1  0.45251900  0.94440430  0.87112900  1
  H  3216  1  0.41554600  0.93888230  0.91578680  1
  H  3217  1  0.40696700  0.98050130  0.87587800  1
  H  3218  1  0.36656300  0.96071230  0.93590780  1
  H  3219  1  0.47357100  0.96218230  0.82250300  1
  H  3220  1  0.48339600  0.97729530  0.79491000  1
  H  3221  1  0.43179000  0.00455100  0.79136200  1
  H  3222  1  0.42198400  0.98951230  0.81919800  1
  H  3223  1  0.34081300  0.97339030  0.95231780  1
  H  3224  1  0.32512800  0.00316700  0.90452980  1
  H  3225  1  0.35102100  0.99094031  0.88831900  1
  H  3226  1  0.44151500  0.95114030  0.83842100  1
  H  3227  1  0.43546200  0.98685230  0.85549400  1
  H  3228  1  0.42763100  0.90422530  0.89651600  1
  H  3229  1  0.45851300  0.92810930  0.90558180  1
  H  3230  1  0.37411500  0.96387330  0.88763900  1
  H  3231  1  0.39643600  0.97087430  0.92013680  1
  H  3233  1  0.31993900  0.00438900  0.95324280  1
  H  3234  1  0.30663900  0.98509330  0.94609380  1
  H  3236  1  0.46360900  0.01634000  0.77459200  1
  H  3237  1  0.45242200  0.99829531  0.76238900  1
  H  3239  1  0.49525300  0.85134600  0.93521180  1
  H  3240  1  0.48834800  0.83864000  0.91543180  1
  H  3271  1  0.04823700  0.72364000  0.90871080  1
  H  3272  1  0.06435600  0.69776300  0.89593800  1
  H  3273  1  0.09737200  0.74113300  0.93508280  1
  H  3274  1  0.11332000  0.71512700  0.92278880  1
  H  3275  1  0.08696700  0.65169700  0.87060200  1
  H  3276  1  0.12396700  0.65674600  0.91528980  1
  H  3277  1  0.13176300  0.61469800  0.87570300  1
  H  3278  1  0.17296700  0.63533100  0.93507080  1
  H  3279  1  0.06584000  0.63347900  0.82175100  1
  H  3280  1  0.05623600  0.61830100  0.79411200  1
  H  3281  1  0.10774900  0.59079400  0.79121800  1
  H  3282  1  0.11732600  0.60589400  0.81910000  1
  H  3283  1  0.19850700  0.62273700  0.95187480  1
  H  3284  1  0.21264800  0.58992200  0.90562280  1
  H  3285  1  0.18696700  0.60210800  0.88903000  1
  H  3286  1  0.09797600  0.64442900  0.83789900  1
  H  3287  1  0.10329100  0.60876600  0.85529200  1
  H  3288  1  0.11307500  0.69130400  0.89674200  1
  H  3289  1  0.08123900  0.66840900  0.90490280  1
  H  3290  1  0.16486400  0.63018400  0.88723400  1
  H  3291  1  0.14254200  0.62483700  0.92005280  1
  H  3293  1  0.21847100  0.59125700  0.95431380  1
  H  3294  1  0.23224400  0.60966000  0.94583780  1
  H  3296  1  0.07610600  0.57906200  0.77416300  1
  H  3297  1  0.08741500  0.59704800  0.76198200  1
  H  3299  1  0.04869100  0.74560200  0.93886680  1
  H  3300  1  0.05461100  0.75837600  0.91881280  1
  H  3331  1  0.04547800  0.87228900  0.55701900  1
  H  3332  1  0.06301400  0.89762200  0.56895200  1
  H  3333  1  0.09256700  0.85344300  0.52796300  1
  H  3334  1  0.10995400  0.87892100  0.53948500  1
  H  3335  1  0.08721300  0.94306630  0.59246500  1
  H  3336  1  0.12262900  0.93723730  0.54652900  1
  H  3337  1  0.13188200  0.97984230  0.58523100  1
  H  3338  1  0.16995300  0.95952030  0.52402300  1
  H  3339  1  0.07174200  0.98522730  0.62973700  1
  H  3340  1  0.06414200  0.00227900  0.65716400  1
  H  3341  1  0.11373800  0.98415330  0.68219100  1
  H  3342  1  0.12149600  0.96730130  0.65476700  1
  H  3343  1  0.19517500  0.97177830  0.50655600  1
  H  3344  1  0.21373100  0.00078400  0.55378500  1
  H  3345  1  0.18834900  0.98893630  0.57111100  1
  H  3346  1  0.10469800  0.95130630  0.62559300  1
  H  3347  1  0.10194500  0.98596230  0.60563400  1
  H  3348  1  0.11161600  0.90277930  0.56579100  1
  H  3349  1  0.08009500  0.92639630  0.55840200  1
  H  3350  1  0.16470900  0.96243730  0.57264500  1
  H  3351  1  0.14112900  0.96968630  0.54108400  1
  H  3353  1  0.21678200  0.00188500  0.50473400  1
  H  3354  1  0.22997200  0.98242630  0.51163800  1
  H  3356  1  0.08240700  0.01994500  0.68576000  1
  H  3357  1  0.09394500  0.00373500  0.69991800  1
  H  3359  1  0.04347000  0.85049500  0.52715000  1
  H  3360  1  0.05054000  0.83732100  0.54656500  1
  H  3391  1  0.59284800  0.72671600  0.00833200  1
  H  3392  1  0.60605700  0.70094100  0.02425100  1
  H  3393  1  0.56553200  0.74293000  0.05739800  1
  H  3394  1  0.57824900  0.71700300  0.07313700  1
  H  3395  1  0.63141800  0.65398400  0.04642700  1
  H  3396  1  0.58631100  0.65928900  0.08303800  1
  H  3397  1  0.62496400  0.61631100  0.09048700  1
  H  3398  1  0.56367800  0.63373600  0.12936500  1
  H  3399  1  0.66895400  0.61008800  0.03127900  1
  H  3400  1  0.69628800  0.59264700  0.02429200  1
  H  3401  1  0.72145300  0.61248500  0.07315100  1
  H  3402  1  0.69411900  0.62970500  0.08032300  1
  H  3403  1  0.54773800  0.61981300  0.15474800  1
  H  3404  1  0.59823500  0.59776500  0.17428200  1
  H  3405  1  0.61406200  0.61120100  0.14874800  1
  H  3406  1  0.66496300  0.64492000  0.06417300  1
  H  3407  1  0.64459900  0.61068100  0.05991000  1
  H  3408  1  0.60452600  0.69357600  0.07293100  1
  H  3409  1  0.59751300  0.67124900  0.04042400  1
  H  3410  1  0.61244400  0.63658600  0.12414500  1
  H  3411  1  0.58202300  0.62472600  0.10089300  1
  H  3413  1  0.54975200  0.58993600  0.17645600  1
  H  3414  1  0.55370900  0.61009200  0.18982300  1
  H  3416  1  0.72478500  0.57551800  0.04307800  1
  H  3417  1  0.73899100  0.59197300  0.05418400  1
  H  3419  1  0.56210800  0.74790000  0.00876100  1
  H  3420  1  0.58181300  0.76106900  0.01498500  1
  H  3451  1  0.94421980  0.87106900  0.00680500  1
  H  3452  1  0.93160880  0.89585400  0.02464800  1
  H  3453  1  0.97260480  0.85157300  0.05404000  1
  H  3454  1  0.96041280  0.87650600  0.07174100  1
  H  3455  1  0.90412180  0.93708930  0.05190600  1
  H  3456  1  0.95253280  0.93597730  0.08437100  1
  H  3457  1  0.90944080  0.97303430  0.09754100  1
  H  3458  1  0.97373980  0.95539230  0.13273800  1
  H  3459  1  0.86461500  0.96817330  0.02371800  1
  H  3460  1  0.83486600  0.97983830  0.01579900  1
  H  3461  1  0.83087300  0.00556300  0.06815000  1
  H  3462  1  0.86090200  0.99408031  0.07602800  1
  H  3463  1  0.99149577  0.96798630  0.15763000  1
  H  3464  1  0.94400880  0.99583431  0.17732700  1
  H  3465  1  0.92637280  0.98356530  0.15234100  1
  H  3466  1  0.89274800  0.97416930  0.04531800  1
  H  3467  1  0.87724500  0.96187930  0.08020200  1
  H  3468  1  0.93362080  0.89961600  0.07347500  1
  H  3469  1  0.94062680  0.92446630  0.04280400  1
  H  3470  1  0.92549480  0.95621730  0.12868000  1
  H  3471  1  0.95527280  0.96755730  0.10435100  1
  H  3473  1  0.99340077  0.99778031  0.17877000  1
  H  3474  1  0.98660280  0.97896130  0.19292000  1
  H  3476  1  0.81182500  0.01614400  0.03732300  1
  H  3477  1  0.80158500  0.99686231  0.04845200  1
  H  3479  1  0.97432780  0.84940300  0.00498500  1
  H  3480  1  0.95473480  0.83615500  0.01138400  1
  H  3511  1  0.94764980  0.72493500  0.45293600  1
  H  3512  1  0.93492080  0.69897400  0.43692600  1
  H  3513  1  0.97405180  0.74223100  0.40374300  1
  H  3514  1  0.96180980  0.71613900  0.38790600  1
  H  3515  1  0.90922280  0.65313200  0.41384900  1
  H  3516  1  0.95499180  0.65739900  0.37807200  1
  H  3517  1  0.91519080  0.61569500  0.36950000  1
  H  3518  1  0.97687380  0.63527800  0.33134500  1
  H  3519  1  0.86040500  0.63548800  0.43384900  1
  H  3520  1  0.83284500  0.62028000  0.44359700  1
  H  3521  1  0.82996300  0.59239800  0.39227600  1
  H  3522  1  0.85779700  0.60753100  0.38255400  1
  H  3523  1  0.99424577  0.62321200  0.30596100  1
  H  3524  1  0.94673080  0.59499600  0.28691400  1
  H  3525  1  0.92948880  0.60666800  0.31244800  1
  H  3526  1  0.87665000  0.64608900  0.40135500  1
  H  3527  1  0.89414100  0.61020900  0.39790500  1
  H  3528  1  0.93590180  0.69225700  0.38819500  1
  H  3529  1  0.94383480  0.66956100  0.42024300  1
  H  3530  1  0.92838480  0.63324000  0.33637100  1
  H  3531  1  0.95951480  0.62442400  0.36000900  1
  H  3533  1  0.99582977  0.59348900  0.28401800  1
  H  3534  1  0.98904080  0.61306600  0.27094000  1
  H  3536  1  0.81328200  0.58069300  0.42406400  1
  H  3537  1  0.80071200  0.59848600  0.41285700  1
  H  3539  1  0.97777680  0.74692900  0.45240500  1
  H  3540  1  0.95771280  0.75965000  0.44640500  1
  H  3571  1  0.59333800  0.86823200  0.45399900  1
  H  3572  1  0.60655200  0.89401800  0.43810800  1
  H  3573  1  0.56545700  0.85248300  0.40510500  1
  H  3574  1  0.57817700  0.87842600  0.38940200  1
  H  3575  1  0.63194300  0.94111430  0.41610300  1
  H  3576  1  0.58674000  0.93598730  0.37959300  1
  H  3577  1  0.62541500  0.97894430  0.37219300  1
  H  3578  1  0.56399500  0.96159530  0.33344700  1
  H  3579  1  0.66980600  0.98455530  0.43149400  1
  H  3580  1  0.69717000  0.00199500  0.43839000  1
  H  3581  1  0.72169000  0.98315330  0.38881400  1
  H  3582  1  0.69433200  0.96593230  0.38174400  1
  H  3583  1  0.54791300  0.97544030  0.30811500  1
  H  3584  1  0.59824300  0.99772531  0.28842600  1
  H  3585  1  0.61421000  0.98436730  0.31391200  1
  H  3586  1  0.66548900  0.95025130  0.39819900  1
  H  3587  1  0.64511800  0.98444530  0.40279200  1
  H  3588  1  0.60457800  0.90168330  0.38947000  1
  H  3589  1  0.59817700  0.92385630  0.42219900  1
  H  3590  1  0.61279900  0.95894330  0.33847700  1
  H  3591  1  0.58238200  0.97051730  0.36187800  1
  H  3593  1  0.54973100  0.00532600  0.28634800  1
  H  3594  1  0.55372300  0.98514730  0.27302600  1
  H  3596  1  0.72531200  0.01959900  0.41942400  1
  H  3597  1  0.73943600  0.00337500  0.40788000  1
  H  3599  1  0.56243300  0.84720800  0.45370700  1
  H  3600  1  0.58205900  0.83401800  0.44728800  1
  H  3631  1  0.49169400  0.62596300  0.80603800  1
  H  3632  1  0.47456400  0.63719300  0.83198300  1
  H  3633  1  0.44440100  0.59712500  0.78735600  1
  H  3634  1  0.42741000  0.60799200  0.81341200  1
  H  3635  1  0.45201500  0.65877600  0.87826100  1
  H  3636  1  0.41460400  0.61465800  0.87161200  1
  H  3637  1  0.40614200  0.65386500  0.91394880  1
  H  3638  1  0.34421400  0.62908000  0.88142200  1
  H  3639  1  0.47205700  0.70734700  0.89513500  1
  H  3640  1  0.48211200  0.73499900  0.90994680  1
  H  3641  1  0.43100700  0.73860600  0.93814580  1
  H  3642  1  0.42096800  0.71067600  0.92339880  1
  H  3643  1  0.31681800  0.61208700  0.88888300  1
  H  3644  1  0.34260800  0.59142700  0.93707180  1
  H  3645  1  0.36999500  0.60865100  0.92981680  1
  H  3646  1  0.43961800  0.69147600  0.88477200  1
  H  3647  1  0.43528800  0.67408200  0.92061980  1
  H  3648  1  0.42636600  0.63430500  0.83778200  1
  H  3649  1  0.45777800  0.62490200  0.86087500  1
  H  3650  1  0.37368500  0.64378300  0.89704200  1
  H  3651  1  0.39411600  0.60961300  0.90146980  1
  H  3653  1  0.31360700  0.57482900  0.91862980  1
  H  3654  1  0.29937800  0.59155600  0.90795680  1
  H  3656  1  0.46303500  0.75528600  0.94934780  1
  H  3657  1  0.45167900  0.76762100  0.93148280  1
  H  3659  1  0.49365300  0.59681200  0.78392700  1
  H  3660  1  0.48589400  0.61594200  0.77072500  1
  H  3691  1  0.49309300  0.97074130  0.65584000  1
  H  3692  1  0.47608100  0.95915130  0.62997400  1
  H  3693  1  0.44496100  0.99753331  0.67542700  1
  H  3694  1  0.42807300  0.98630830  0.64946000  1
  H  3695  1  0.45365200  0.93724730  0.58398400  1
  H  3696  1  0.41493300  0.98016830  0.59118400  1
  H  3697  1  0.40762600  0.94115330  0.54844400  1
  H  3698  1  0.35695500  0.98784030  0.57953200  1
  H  3699  1  0.47354500  0.88800200  0.56701300  1
  H  3700  1  0.48320400  0.86018700  0.55223500  1
  H  3701  1  0.43187700  0.85703900  0.52437900  1
  H  3702  1  0.42224400  0.88513100  0.53908500  1
  H  3703  1  0.32920400  0.00305600  0.56965700  1
  H  3704  1  0.33220800  0.97501430  0.51841400  1
  H  3705  1  0.35966000  0.95971330  0.52832500  1
  H  3706  1  0.44100900  0.90409630  0.57752900  1
  H  3707  1  0.43726900  0.92166230  0.54167900  1
  H  3708  1  0.42781100  0.96012630  0.62479600  1
  H  3709  1  0.45840000  0.97148130  0.60146000  1
  H  3710  1  0.37548100  0.94928130  0.56173200  1
  H  3711  1  0.39372200  0.98498530  0.56247000  1
  H  3713  1  0.31277200  0.01475200  0.53778300  1
  H  3714  1  0.30001700  0.99703631  0.54891300  1
  H  3716  1  0.46366500  0.83995300  0.51305100  1
  H  3717  1  0.45226200  0.82781600  0.53102400  1
  H  3719  1  0.49416300  0.99972531  0.67830300  1
  H  3720  1  0.48737200  0.98008230  0.69128600  1
  H  3751  1  0.04762300  0.97394130  0.80298100  1
  H  3752  1  0.06381900  0.96093930  0.82870200  1
  H  3753  1  0.09596900  0.00275100  0.78720400  1
  H  3754  1  0.11196600  0.99022331  0.81306200  1
  H  3755  1  0.08571700  0.93666130  0.87643600  1
  H  3756  1  0.12333600  0.98063830  0.86943400  1
  H  3757  1  0.13101400  0.94235930  0.91271780  1
  H  3758  1  0.19328400  0.96695430  0.87995200  1
  H  3759  1  0.07018200  0.89848500  0.91851780  1
  H  3760  1  0.06285900  0.87101400  0.93563980  1
  H  3761  1  0.11313300  0.84680500  0.91830280  1
  H  3762  1  0.12059600  0.87424600  0.90137780  1
  H  3763  1  0.22070800  0.98373030  0.88779700  1
  H  3764  1  0.19502300  0.00316800  0.93654680  1
  H  3765  1  0.16758200  0.98618630  0.92886980  1
  H  3766  1  0.10372800  0.90288830  0.88497200  1
  H  3767  1  0.09985800  0.92328530  0.91926480  1
  H  3768  1  0.11236300  0.96348230  0.83606000  1
  H  3769  1  0.07986100  0.96982230  0.85859000  1
  H  3770  1  0.16382200  0.95171330  0.89586600  1
  H  3771  1  0.14358900  0.98611130  0.89947900  1
  H  3773  1  0.22400700  0.02022500  0.91842680  1
  H  3774  1  0.23818700  0.00375700  0.90730880  1
  H  3776  1  0.08139200  0.84283100  0.95370580  1
  H  3777  1  0.09349700  0.82885100  0.93776680  1
  H  3779  1  0.04734100  0.00490300  0.78193100  1
  H  3780  1  0.05407800  0.98535630  0.76878000  1
  H  3811  1  0.04717800  0.62435900  0.65523600  1
  H  3812  1  0.06428000  0.63593000  0.62942500  1
  H  3813  1  0.09510000  0.59712800  0.67472100  1
  H  3814  1  0.11207000  0.60831400  0.64879300  1
  H  3815  1  0.08734800  0.65841200  0.58360400  1
  H  3816  1  0.12497500  0.61450200  0.59047900  1
  H  3817  1  0.13355800  0.65385000  0.54829900  1
  H  3818  1  0.19529800  0.62922600  0.58149400  1
  H  3819  1  0.06717700  0.70684000  0.56661900  1
  H  3820  1  0.05694200  0.73431400  0.55160100  1
  H  3821  1  0.10818000  0.73826500  0.52368400  1
  H  3822  1  0.11839900  0.71050900  0.53863400  1
  H  3823  1  0.22285800  0.61240100  0.57423900  1
  H  3824  1  0.19771100  0.59193100  0.52563100  1
  H  3825  1  0.17016700  0.60899100  0.53267900  1
  H  3826  1  0.09968600  0.69124500  0.57721500  1
  H  3827  1  0.10427000  0.67383200  0.54140100  1
  H  3828  1  0.11268700  0.63435900  0.62425700  1
  H  3829  1  0.08175700  0.62421200  0.60082800  1
  H  3830  1  0.16594500  0.64390100  0.56561100  1
  H  3831  1  0.14573100  0.60965600  0.56075800  1
  H  3833  1  0.22659800  0.57536600  0.54429200  1
  H  3834  1  0.24063000  0.59211100  0.55520100  1
  H  3836  1  0.07603000  0.75457500  0.51220700  1
  H  3837  1  0.08720900  0.76709600  0.53005200  1
  H  3839  1  0.04593500  0.59525600  0.67764800  1
  H  3840  1  0.05276700  0.61490400  0.69059800  1
  H  3871  1  0.69592400  0.52309600  0.90448480  1
  H  3872  1  0.67018300  0.50627200  0.89240900  1
  H  3873  1  0.71386900  0.47523100  0.93282680  1
  H  3874  1  0.68798300  0.45855700  0.92117380  1
  H  3875  1  0.62431400  0.48303800  0.86821500  1
  H  3876  1  0.62974300  0.44689900  0.91360180  1
  H  3877  1  0.58790800  0.43783500  0.87407000  1
  H  3878  1  0.60549100  0.40034700  0.93639080  1
  H  3879  1  0.60267900  0.50376400  0.81984200  1
  H  3880  1  0.58650700  0.51185900  0.79223800  1
  H  3881  1  0.56504400  0.45758000  0.78881800  1
  H  3882  1  0.58109400  0.44951800  0.81663900  1
  H  3883  1  0.59172300  0.37515700  0.95277380  1
  H  3884  1  0.56970600  0.35468700  0.90263180  1
  H  3885  1  0.58300800  0.38001400  0.88636200  1
  H  3886  1  0.61701500  0.47178400  0.83566500  1
  H  3887  1  0.58152800  0.46549300  0.85315800  1
  H  3888  1  0.66415400  0.45767300  0.89499000  1
  H  3889  1  0.64103500  0.48959600  0.90222080  1
  H  3890  1  0.60844100  0.40483700  0.88768400  1
  H  3891  1  0.59560100  0.42840500  0.91746280  1
  H  3893  1  0.56195000  0.35332400  0.95119980  1
  H  3894  1  0.58210300  0.33991300  0.94735480  1
  H  3896  1  0.54971700  0.48750100  0.77218200  1
  H  3897  1  0.56902100  0.47887200  0.75982800  1
  H  3899  1  0.71789100  0.52421300  0.93425580  1
  H  3900  1  0.73081900  0.51713700  0.91467880  1
  H  3931  1  0.84110000  0.52019700  0.55485100  1
  H  3932  1  0.86626200  0.50385600  0.56870700  1
  H  3933  1  0.82515100  0.47157100  0.52663100  1
  H  3934  1  0.85047700  0.45541800  0.53998900  1
  H  3935  1  0.90845980  0.47787900  0.59853400  1
  H  3936  1  0.90970980  0.44639600  0.54942800  1
  H  3937  1  0.94620780  0.43373300  0.59311400  1
  H  3938  1  0.93499780  0.40052000  0.52673300  1
  H  3939  1  0.94490580  0.50617800  0.63830300  1
  H  3940  1  0.95777380  0.51277500  0.66792400  1
  H  3941  1  0.97705480  0.45774200  0.67191100  1
  H  3942  1  0.96445680  0.45119100  0.64205700  1
  H  3943  1  0.94958480  0.37603100  0.50997400  1
  H  3944  1  0.96898180  0.35330700  0.56022300  1
  H  3945  1  0.95482080  0.37789200  0.57689800  1
  H  3946  1  0.94822780  0.48380300  0.61013400  1
  H  3947  1  0.93253480  0.45030800  0.62561800  1
  H  3948  1  0.87278000  0.45498200  0.56700900  1
  H  3949  1  0.89605400  0.48720000  0.56198900  1
  H  3950  1  0.92903380  0.40235600  0.57524800  1
  H  3951  1  0.94328380  0.42778000  0.54774000  1
  H  3953  1  0.97890680  0.35368300  0.51194500  1
  H  3954  1  0.95851680  0.34034700  0.51459800  1
  H  3956  1  0.99141977  0.48660600  0.69082000  1
  H  3957  1  0.97074580  0.47850300  0.70116700  1
  H  3959  1  0.82057200  0.52018600  0.52349500  1
  H  3960  1  0.80703700  0.51403500  0.54297200  1
  H  3991  1  0.69717200  0.07255400  0.55750500  1
  H  3992  1  0.67209600  0.08990200  0.57022200  1
  H  3993  1  0.71562600  0.12015100  0.52904900  1
  H  3994  1  0.69039300  0.13735500  0.54133700  1
  H  3995  1  0.63088300  0.11689400  0.59852300  1
  H  3996  1  0.63034900  0.14840200  0.54942000  1
  H  3997  1  0.59387200  0.16163500  0.59297600  1
  H  3998  1  0.60539800  0.19469500  0.52666000  1
  H  3999  1  0.59463500  0.08894600  0.63812500  1
  H  4000  1  0.58168500  0.08234200  0.66770700  1
  H  4001  1  0.56229400  0.13734500  0.67160600  1
  H  4002  1  0.57496700  0.14390100  0.64178300  1
  H  4003  1  0.59069500  0.21915200  0.50995700  1
  H  4004  1  0.57150600  0.24188100  0.56029000  1
  H  4005  1  0.58577800  0.21732200  0.57691000  1
  H  4006  1  0.59145500  0.11128300  0.60995900  1
  H  4007  1  0.60691400  0.14486800  0.62549200  1
  H  4008  1  0.66734400  0.13873900  0.56804200  1
  H  4009  1  0.64310500  0.10742400  0.56184400  1
  H  4010  1  0.61145200  0.19276100  0.57518300  1
  H  4011  1  0.59698900  0.16747300  0.54765500  1
  H  4013  1  0.56131100  0.24135300  0.51206800  1
  H  4014  1  0.58164200  0.25480400  0.51458300  1
  H  4016  1  0.54797100  0.10846000  0.69054700  1
  H  4017  1  0.56861700  0.11666300  0.70087100  1
  H  4019  1  0.71874200  0.07116300  0.52731000  1
  H  4020  1  0.73195500  0.07779400  0.54684800  1
  H  4051  1  0.84026300  0.07564700  0.90737080  1
  H  4052  1  0.86547300  0.09220700  0.89385300  1
  H  4053  1  0.82477300  0.12357900  0.93701780  1
  H  4054  1  0.85013900  0.13993400  0.92398080  1
  H  4055  1  0.90799680  0.11776300  0.86517100  1
  H  4056  1  0.90914780  0.14948100  0.91411380  1
  H  4057  1  0.94593380  0.16174600  0.87053800  1
  H  4058  1  0.93470680  0.19519600  0.93677180  1
  H  4059  1  0.94025180  0.08894700  0.82534200  1
  H  4060  1  0.95218080  0.08128900  0.79561800  1
  H  4061  1  0.97735680  0.13392700  0.79200800  1
  H  4062  1  0.96559380  0.14154900  0.82199700  1
  H  4063  1  0.94962080  0.21949200  0.95351680  1
  H  4064  1  0.96929380  0.24194200  0.90324380  1
  H  4065  1  0.95480880  0.21753800  0.88658500  1
  H  4066  1  0.94623080  0.11061100  0.85369200  1
  H  4067  1  0.93302580  0.14515300  0.83815100  1
  H  4068  1  0.87221400  0.14084000  0.89654500  1
  H  4069  1  0.89546000  0.10857300  0.90150780  1
  H  4070  1  0.92872980  0.19333800  0.88828400  1
  H  4071  1  0.94290880  0.16786000  0.91579380  1
  H  4073  1  0.97927080  0.24143900  0.95148880  1
  H  4074  1  0.95901680  0.25499900  0.94891180  1
  H  4076  1  0.98843480  0.10323700  0.77296800  1
  H  4077  1  0.96916480  0.11425300  0.76258100  1
  H  4079  1  0.81984700  0.07494400  0.93884080  1
  H  4080  1  0.80632200  0.08169400  0.91955280  1
  H  4111  1  0.09072600  0.52096600  0.15820100  1
  H  4112  1  0.10399700  0.50518700  0.13235700  1
  H  4113  1  0.06721500  0.47076100  0.17670300  1
  H  4114  1  0.08000500  0.45512500  0.15075500  1
  H  4115  1  0.13101300  0.48155500  0.08697800  1
  H  4116  1  0.08593500  0.44501100  0.09207000  1
  H  4117  1  0.12603700  0.43610700  0.05071600  1
  H  4118  1  0.06555100  0.39683600  0.07261700  1
  H  4119  1  0.18060400  0.50096300  0.06978900  1
  H  4120  1  0.20837300  0.51025600  0.05467700  1
  H  4121  1  0.21077100  0.45872800  0.02714100  1
  H  4122  1  0.18273800  0.44945800  0.04218600  1
  H  4123  1  0.04850300  0.37092700  0.06119700  1
  H  4124  1  0.09570400  0.35289400  0.03179000  1
  H  4125  1  0.11261400  0.37892400  0.04285600  1
  H  4126  1  0.16388100  0.46886000  0.08053200  1
  H  4127  1  0.14664000  0.46482500  0.04458600  1
  H  4128  1  0.10547600  0.45628700  0.12659200  1
  H  4129  1  0.09584500  0.48745600  0.10332900  1
  H  4130  1  0.11354800  0.40324200  0.06951200  1
  H  4131  1  0.08191400  0.42581100  0.05965300  1
  H  4133  1  0.04645700  0.34930900  0.03170100  1
  H  4134  1  0.05436000  0.33581400  0.05056800  1
  H  4136  1  0.22784200  0.49020600  0.01527700  1
  H  4137  1  0.24027400  0.47906300  0.03321100  1
  H  4139  1  0.06112400  0.51933600  0.18063700  1
  H  4140  1  0.08149800  0.51432100  0.19329300  1
  H  4171  1  0.44099500  0.51957700  0.30454200  1
  H  4172  1  0.42960400  0.50246100  0.33042900  1
  H  4173  1  0.47026500  0.47238500  0.28627800  1
  H  4174  1  0.45924100  0.45541700  0.31227200  1
  H  4175  1  0.40775500  0.47958400  0.37657600  1
  H  4176  1  0.45289600  0.44323200  0.37077700  1
  H  4177  1  0.41363000  0.43436700  0.41297000  1
  H  4178  1  0.47422200  0.39551000  0.39068600  1
  H  4179  1  0.35939100  0.49948400  0.39393300  1
  H  4180  1  0.33192800  0.50955000  0.40909600  1
  H  4181  1  0.32864900  0.45844100  0.43732200  1
  H  4182  1  0.35639100  0.44839200  0.42222200  1
  H  4183  1  0.49146800  0.36973500  0.40212200  1
  H  4184  1  0.44429800  0.35116700  0.43124300  1
  H  4185  1  0.42719300  0.37706200  0.42017200  1
  H  4186  1  0.37526800  0.46699400  0.38344900  1
  H  4187  1  0.39289800  0.46312500  0.41923700  1
  H  4188  1  0.43277700  0.45429300  0.33646300  1
  H  4189  1  0.44187800  0.48585200  0.35947800  1
  H  4190  1  0.42609600  0.40144600  0.39368500  1
  H  4191  1  0.45753800  0.42430000  0.40351200  1
  H  4193  1  0.49356600  0.34805300  0.43158100  1
  H  4194  1  0.48590500  0.33453400  0.41263100  1
  H  4196  1  0.31222500  0.49046600  0.44879800  1
  H  4197  1  0.29955800  0.47920200  0.43110500  1
  H  4199  1  0.47039300  0.52162600  0.28277100  1
  H  4200  1  0.45147000  0.51375400  0.26933700  1
  H  4231  1  0.44079400  0.07542200  0.15789200  1
  H  4232  1  0.42931300  0.09245200  0.13199500  1
  H  4233  1  0.47026400  0.12261400  0.17581000  1
  H  4234  1  0.45916000  0.13949600  0.14979300  1
  H  4235  1  0.40716700  0.11516200  0.08569100  1
  H  4236  1  0.45229200  0.15152900  0.09143200  1
  H  4237  1  0.41305400  0.16030200  0.04920300  1
  H  4238  1  0.47370800  0.19907600  0.07149000  1
  H  4239  1  0.35883500  0.09501000  0.06809900  1
  H  4240  1  0.33133000  0.08501700  0.05296600  1
  H  4241  1  0.32803300  0.13621400  0.02491000  1
  H  4242  1  0.35581500  0.14619000  0.03997600  1
  H  4243  1  0.49104800  0.22482500  0.06014800  1
  H  4244  1  0.44401000  0.24356600  0.03092900  1
  H  4245  1  0.42680800  0.21769400  0.04190800  1
  H  4246  1  0.37469600  0.12745000  0.07869400  1
  H  4247  1  0.39232700  0.13163500  0.04295200  1
  H  4248  1  0.43271300  0.14066400  0.12573400  1
  H  4249  1  0.44109000  0.10884700  0.10281600  1
  H  4250  1  0.42557400  0.19329600  0.06838600  1
  H  4251  1  0.45697800  0.17034500  0.05867300  1
  H  4253  1  0.49327600  0.24659500  0.03074100  1
  H  4254  1  0.48560100  0.26004900  0.04973100  1
  H  4256  1  0.31148100  0.10425200  0.01340000  1
  H  4257  1  0.29893000  0.11550000  0.03118300  1
  H  4259  1  0.47031900  0.07341900  0.17956100  1
  H  4260  1  0.45140800  0.08132800  0.19299000  1
  H  4291  1  0.09197300  0.07469200  0.30649800  1
  H  4292  1  0.10609300  0.09036200  0.33195100  1
  H  4293  1  0.07103100  0.12561000  0.28684500  1
  H  4294  1  0.08467000  0.14117000  0.31242200  1
  H  4295  1  0.13310900  0.11450400  0.37732600  1
  H  4296  1  0.08784000  0.15078800  0.37152700  1
  H  4297  1  0.12665600  0.15928600  0.41418700  1
  H  4298  1  0.06635900  0.19832600  0.39114800  1
  H  4299  1  0.17090400  0.09955400  0.42013200  1
  H  4300  1  0.19857300  0.09231400  0.43693700  1
  H  4301  1  0.22352900  0.14122300  0.41696000  1
  H  4302  1  0.19586600  0.14863600  0.40035900  1
  H  4303  1  0.04895400  0.22404800  0.40246800  1
  H  4304  1  0.09579000  0.24259900  0.43213900  1
  H  4305  1  0.11305100  0.21676100  0.42117000  1
  H  4306  1  0.16642600  0.13211600  0.38544900  1
  H  4307  1  0.14672300  0.12900300  0.42022000  1
  H  4308  1  0.10982300  0.13911300  0.33712300  1
  H  4309  1  0.09723500  0.10901200  0.36042600  1
  H  4310  1  0.11437700  0.19243100  0.39451100  1
  H  4311  1  0.08297600  0.16953900  0.40442200  1
  H  4313  1  0.04649300  0.24564800  0.43194900  1
  H  4314  1  0.05439100  0.25924000  0.41314600  1
  H  4316  1  0.22753800  0.11079600  0.45356700  1
  H  4317  1  0.24146200  0.12194300  0.43688600  1
  H  4319  1  0.06230500  0.07725300  0.28465000  1
  H  4320  1  0.08252500  0.08093900  0.27130000  1
  H  4351  1  0.19366600  0.52148100  0.40676600  1
  H  4352  1  0.16814400  0.50400500  0.39516200  1
  H  4353  1  0.21317800  0.47417800  0.43500500  1
  H  4354  1  0.18751400  0.45683500  0.42380000  1
  H  4355  1  0.12248200  0.48052900  0.37208100  1
  H  4356  1  0.12943900  0.44324400  0.41633900  1
  H  4357  1  0.08658900  0.43494700  0.37766400  1
  H  4358  1  0.11764100  0.37252600  0.40257300  1
  H  4359  1  0.08166500  0.49673700  0.33384300  1
  H  4360  1  0.06487800  0.50450900  0.30627500  1
  H  4361  1  0.08131900  0.45396400  0.28201300  1
  H  4362  1  0.09792400  0.44607100  0.30954100  1
  H  4363  1  0.10880800  0.34516000  0.41893500  1
  H  4364  1  0.06065500  0.37203900  0.43822000  1
  H  4365  1  0.06940500  0.39949900  0.42176300  1
  H  4366  1  0.11468000  0.46332200  0.33839000  1
  H  4367  1  0.07992600  0.46566400  0.35825000  1
  H  4368  1  0.16329800  0.45539400  0.39774200  1
  H  4369  1  0.13958100  0.48665300  0.40583800  1
  H  4370  1  0.10236400  0.40242900  0.38735300  1
  H  4371  1  0.09970000  0.42277300  0.42175600  1
  H  4373  1  0.07644000  0.34213100  0.45479500  1
  H  4374  1  0.08896100  0.32832200  0.43909600  1
  H  4376  1  0.04657200  0.48631600  0.27795300  1
  H  4377  1  0.06240700  0.47406000  0.26398700  1
  H  4379  1  0.21613500  0.52328100  0.43614000  1
  H  4380  1  0.22886400  0.51634700  0.41638600  1
  H  4411  1  0.34637600  0.52150200  0.05702800  1
  H  4412  1  0.37215000  0.50444700  0.06868200  1
  H  4413  1  0.32766400  0.47389200  0.02878500  1
  H  4414  1  0.35360100  0.45697000  0.04001900  1
  H  4415  1  0.41846800  0.48181500  0.09190000  1
  H  4416  1  0.41162300  0.44418700  0.04793800  1
  H  4417  1  0.45480600  0.43656700  0.08637200  1
  H  4418  1  0.42356800  0.37393700  0.06179200  1
  H  4419  1  0.46117000  0.49838800  0.12870900  1
  H  4420  1  0.47735700  0.50715000  0.15634200  1
  H  4421  1  0.45766700  0.45910200  0.18309700  1
  H  4422  1  0.44155200  0.45028200  0.15557700  1
  H  4423  1  0.43197000  0.34657000  0.04521500  1
  H  4424  1  0.48002400  0.37317200  0.02532500  1
  H  4425  1  0.47169700  0.40064300  0.04199400  1
  H  4426  1  0.42656600  0.46597500  0.12548300  1
  H  4427  1  0.46136300  0.46712100  0.10566000  1
  H  4428  1  0.37783200  0.45583200  0.06593000  1
  H  4429  1  0.40100100  0.48764900  0.05853600  1
  H  4430  1  0.43908100  0.40374300  0.07682400  1
  H  4431  1  0.44150600  0.42405900  0.04239800  1
  H  4433  1  0.46377200  0.34348200  0.00883900  1
  H  4434  1  0.45133400  0.32969300  0.02461900  1
  H  4436  1  0.49359800  0.49134400  0.18644100  1
  H  4437  1  0.47773900  0.47887800  0.20011300  1
  H  4439  1  0.32395900  0.52288600  0.02754200  1
  H  4440  1  0.31134800  0.51592300  0.04735700  1
  H  4471  1  0.19288500  0.07319100  0.05616600  1
  H  4472  1  0.16724400  0.09048600  0.06779300  1
  H  4473  1  0.21214100  0.12068000  0.02807100  1
  H  4474  1  0.18636500  0.13783900  0.03929600  1
  H  4475  1  0.12162200  0.11395600  0.09124300  1
  H  4476  1  0.12836000  0.15122200  0.04700800  1
  H  4477  1  0.08640100  0.16017600  0.08646200  1
  H  4478  1  0.11752500  0.22216200  0.06115700  1
  H  4479  1  0.10088500  0.09294600  0.13969100  1
  H  4480  1  0.08531500  0.08462000  0.16756400  1
  H  4481  1  0.06359500  0.13874500  0.17166600  1
  H  4482  1  0.07903800  0.14703800  0.14357200  1
  H  4483  1  0.10894400  0.24960100  0.04479000  1
  H  4484  1  0.06066100  0.22308900  0.02533600  1
  H  4485  1  0.06914800  0.19556200  0.04181300  1
  H  4486  1  0.11486400  0.12469400  0.12390800  1
  H  4487  1  0.07938800  0.13223700  0.10692100  1
  H  4488  1  0.16223100  0.13911100  0.06534100  1
  H  4489  1  0.13852500  0.10779300  0.05745200  1
  H  4490  1  0.10224800  0.19241000  0.07627600  1
  H  4491  1  0.09883200  0.17196100  0.04201500  1
  H  4493  1  0.07671400  0.25293600  0.00885800  1
  H  4494  1  0.08923500  0.26664200  0.02465400  1
  H  4496  1  0.04883700  0.10874100  0.18859300  1
  H  4497  1  0.06842900  0.11733700  0.20050200  1
  H  4499  1  0.21537700  0.07159700  0.02682800  1
  H  4500  1  0.22808200  0.07856800  0.04658200  1
  H  4531  1  0.34321000  0.07658100  0.40575200  1
  H  4532  1  0.36907800  0.09287300  0.39317000  1
  H  4533  1  0.32908900  0.12361000  0.43744400  1
  H  4534  1  0.35510300  0.13968100  0.42531300  1
  H  4535  1  0.41755100  0.11356800  0.37019300  1
  H  4536  1  0.41118600  0.15118500  0.41424200  1
  H  4537  1  0.45472300  0.15808600  0.37610100  1
  H  4538  1  0.42390500  0.22108100  0.40043600  1
  H  4539  1  0.46066200  0.09666500  0.33352500  1
  H  4540  1  0.47693000  0.08792700  0.30593300  1
  H  4541  1  0.45758900  0.13616700  0.27927200  1
  H  4542  1  0.44140800  0.14497100  0.30675400  1
  H  4543  1  0.43232600  0.24838600  0.41709700  1
  H  4544  1  0.47999200  0.22145300  0.43746800  1
  H  4545  1  0.47164300  0.19403600  0.42072100  1
  H  4546  1  0.42625300  0.12949900  0.33669900  1
  H  4547  1  0.46084400  0.12745600  0.35679700  1
  H  4548  1  0.37762300  0.14091800  0.39795900  1
  H  4549  1  0.39951700  0.10774000  0.40273300  1
  H  4550  1  0.43925300  0.19118000  0.38558200  1
  H  4551  1  0.44135400  0.17080500  0.41999100  1
  H  4553  1  0.46383500  0.25125400  0.45378600  1
  H  4554  1  0.45154700  0.26509800  0.43794200  1
  H  4556  1  0.49338100  0.10380800  0.27594300  1
  H  4557  1  0.47758500  0.11632200  0.26223700  1
  H  4559  1  0.32279300  0.07505200  0.43711100  1
  H  4560  1  0.30941200  0.08309000  0.41822700  1
  H  4567  1  0.53322900  0.82263300  0.45816100  1
  H  4568  1  0.54073200  0.76496900  0.46113100  1
  H  4569  1  0.57242900  0.79655700  0.42392500  1
  H  4571  1  0.58119300  0.76410100  0.43633600  1
  H  4573  1  0.50883700  0.79809100  0.46856900  1
  H  4575  1  0.54632000  0.83545200  0.42715600  1
  H  4582  1  0.00605700  0.77184000  0.45709500  1
  H  4583  1  0.99809177  0.82941000  0.46054400  1
  H  4584  1  0.96667780  0.79788500  0.42304700  1
  H  4586  1  0.95768580  0.83022900  0.43563600  1
  H  4588  1  0.03024100  0.79649400  0.46768600  1
  H  4590  1  0.99316077  0.75937700  0.42573500  1
  H  4597  1  0.53307900  0.77242500  0.00424400  1
  H  4598  1  0.54037600  0.83010700  0.00112000  1
  H  4599  1  0.57222100  0.79871600  0.03836900  1
  H  4601  1  0.58084700  0.83120400  0.02577900  1
  H  4603  1  0.50859200  0.79687500  0.99380981  1
  H  4605  1  0.54620800  0.75980900  0.03536600  1
  H  4612  1  0.00034900  0.82438200  0.99617581  1
  H  4613  1  0.99098277  0.76710400  0.99147181  1
  H  4614  1  0.96524580  0.79748200  0.03395600  1
  H  4616  1  0.95352680  0.76640400  0.01879000  1
  H  4618  1  0.00377900  0.80178500  0.96577780  1
  H  4620  1  0.99142477  0.83591300  0.02976600  1
  H  4627  1  0.79601200  0.52489700  0.49412400  1
  H  4628  1  0.73827900  0.52794800  0.50113000  1
  H  4629  1  0.76955700  0.49073700  0.53312400  1
  H  4631  1  0.73702200  0.50327300  0.54161100  1
  H  4633  1  0.77168900  0.53528300  0.46950700  1
  H  4635  1  0.80861900  0.49383500  0.50728200  1
  H  4642  1  0.74235200  0.53223400  0.96050080  1
  H  4643  1  0.79984400  0.53594100  0.95205480  1
  H  4644  1  0.76916000  0.49397800  0.92583780  1
  H  4646  1  0.80074400  0.50845600  0.91467580  1
  H  4648  1  0.76536800  0.56222200  0.96433080  1
  H  4650  1  0.73042400  0.49886400  0.95141980  1
  H  4657  1  0.74357900  0.06279200  0.50112600  1
  H  4658  1  0.80101300  0.05885600  0.50989200  1
  H  4659  1  0.77033600  0.10090900  0.53597300  1
  H  4661  1  0.80176300  0.08618600  0.54734500  1
  H  4663  1  0.76653300  0.03270100  0.49745600  1
  H  4665  1  0.73170800  0.09623700  0.51019600  1
  H  4672  1  0.79489900  0.06996600  0.96834380  1
  H  4673  1  0.73723500  0.06760300  0.96054880  1
  H  4674  1  0.76929800  0.10494300  0.92949480  1
  H  4676  1  0.73670200  0.09265600  0.92041080  1
  H  4678  1  0.77011700  0.05953500  0.99247381  1
  H  4680  1  0.80810500  0.10090600  0.95578780  1
  H  4687  1  0.50264900  0.57005800  0.76158900  1
  H  4688  1  0.50765300  0.57480900  0.70378000  1
  H  4689  1  0.46435300  0.60201600  0.73165300  1
  H  4691  1  0.47875600  0.61117300  0.69942400  1
  H  4693  1  0.53365700  0.56478400  0.72661500  1
  H  4695  1  0.46858500  0.57875800  0.77170100  1
  H  4702  1  0.50244500  0.02623000  0.70126700  1
  H  4703  1  0.50863800  0.01951800  0.75876100  1
  H  4704  1  0.46573900  0.99196031  0.73061200  1
  H  4706  1  0.48177000  0.98186630  0.76181500  1
  H  4708  1  0.53391000  0.03094200  0.73595700  1
  H  4710  1  0.46863300  0.01659400  0.69116000  1
  H  4717  1  0.03754400  0.56880800  0.70072300  1
  H  4718  1  0.03118600  0.57587500  0.75815500  1
  H  4719  1  0.07424700  0.60315500  0.72998600  1
  H  4721  1  0.05811100  0.61349800  0.76105300  1
  H  4723  1  0.00596500  0.56438700  0.73535000  1
  H  4725  1  0.07137700  0.57833300  0.69061700  1
  H  4732  1  0.04277000  0.03418500  0.75668100  1
  H  4733  1  0.04036100  0.02559300  0.69913100  1
  H  4734  1  0.07734900  0.99460331  0.73166300  1
  H  4736  1  0.06499400  0.98515230  0.69924800  1
  H  4738  1  0.03251100  0.05806500  0.73165800  1
  H  4740  1  0.07354600  0.02147000  0.77012300  1
  H  4747  1  0.79632200  0.56026000  0.00451800  1
  H  4748  1  0.73886100  0.56896100  0.00074900  1
  H  4749  1  0.77066700  0.60030200  0.03807600  1
  H  4751  1  0.73850700  0.60966400  0.02463200  1
  H  4753  1  0.77143800  0.53637600  0.99379281  1
  H  4755  1  0.80890500  0.57330000  0.03575500  1
  H  4762  1  0.74092700  0.02641200  0.99725981  1
  H  4763  1  0.79828200  0.01804900  0.99177381  1
  H  4764  1  0.76899700  0.99190131  0.03477400  1
  H  4766  1  0.80061800  0.98097530  0.01936800  1
  H  4768  1  0.76291400  0.03040200  0.96655080  1
  H  4770  1  0.73024900  0.01753400  0.03115400  1
  H  4777  1  0.74189300  0.56796300  0.46469500  1
  H  4778  1  0.79912400  0.57763300  0.46937400  1
  H  4779  1  0.76860300  0.60314700  0.42685700  1
  H  4781  1  0.79967800  0.61501100  0.44195700  1
  H  4783  1  0.76445700  0.56470100  0.49509900  1
  H  4785  1  0.73037000  0.57673600  0.43105100  1
  H  4792  1  0.79749400  0.03447200  0.45703700  1
  H  4793  1  0.74004200  0.02595900  0.46126500  1
  H  4794  1  0.77142700  0.99459031  0.42360800  1
  H  4796  1  0.73940100  0.98526330  0.43722200  1
  H  4798  1  0.77283800  0.05844400  0.46795400  1
  H  4800  1  0.80989100  0.02147900  0.42585700  1
  H  4807  1  0.50396200  0.82650400  0.96091680  1
  H  4808  1  0.50832100  0.76916800  0.95178280  1
  H  4809  1  0.46582600  0.79964000  0.92617280  1
  H  4811  1  0.48057800  0.76829500  0.91460680  1
  H  4813  1  0.53425200  0.80386000  0.96438280  1
  H  4815  1  0.47026100  0.83800700  0.95226180  1
  H  4822  1  0.50421000  0.76844600  0.50161200  1
  H  4823  1  0.50878700  0.82580600  0.51049200  1
  H  4824  1  0.46626800  0.79559700  0.53636300  1
  H  4826  1  0.48120000  0.82687100  0.54777600  1
  H  4828  1  0.53453400  0.79095700  0.49792900  1
  H  4830  1  0.47070600  0.75686500  0.51061900  1
  H  4837  1  0.04397600  0.77045400  0.96727380  1
  H  4838  1  0.04013600  0.82800300  0.95932280  1
  H  4839  1  0.07766600  0.79670000  0.92771680  1
  H  4841  1  0.06470700  0.82891000  0.91874080  1
  H  4843  1  0.03320000  0.79491200  0.99147281  1
  H  4845  1  0.07532900  0.75815800  0.95423480  1
  H  4852  1  0.03474900  0.82582900  0.50076500  1
  H  4853  1  0.03059600  0.76841800  0.50956700  1
  H  4854  1  0.07297200  0.79889600  0.53535700  1
  H  4856  1  0.05820000  0.76753500  0.54681500  1
  H  4858  1  0.00454000  0.80306200  0.49716800  1
  H  4860  1  0.06825000  0.83753400  0.50953500  1
  H  4867  1  0.53260200  0.52251600  0.69932500  1
  H  4868  1  0.53960100  0.53085700  0.75653900  1
  H  4869  1  0.57352500  0.49295600  0.72821100  1
  H  4871  1  0.58131600  0.51023400  0.75930100  1
  H  4873  1  0.50859600  0.53517600  0.73506900  1
  H  4875  1  0.54752800  0.49100500  0.68939700  1
  H  4882  1  0.00670100  0.52205000  0.76315600  1
  H  4883  1  0.00100100  0.53040300  0.70581900  1
  H  4884  1  0.96650580  0.49241000  0.73330300  1
  H  4886  1  0.95949280  0.50990300  0.70179000  1
  H  4888  1  0.03148300  0.53483500  0.72814900  1
  H  4890  1  0.99175777  0.49020900  0.77243000  1
  H  4897  1  0.53331000  0.07340900  0.76329500  1
  H  4898  1  0.53851300  0.06475800  0.70595300  1
  H  4899  1  0.57322000  0.10291700  0.73293400  1
  H  4901  1  0.57997800  0.08526400  0.70149700  1
  H  4903  1  0.50826100  0.06033500  0.72851700  1
  H  4905  1  0.54838100  0.10518700  0.77238300  1
  H  4912  1  0.99973577  0.06308600  0.70221400  1
  H  4913  1  0.99061777  0.05758900  0.75945200  1
  H  4914  1  0.96490180  0.10062500  0.72985200  1
  H  4916  1  0.95350980  0.08509600  0.76130400  1
  H  4918  1  0.00326100  0.03232600  0.72430100  1
  H  4920  1  0.99101577  0.09701800  0.69142500  1
  H  4927  1  0.29875800  0.53111900  0.00164000  1
  H  4928  1  0.24162000  0.53545500  0.01196800  1
  H  4929  1  0.27270400  0.49325500  0.03730800  1
  H  4931  1  0.24164700  0.50820600  0.04946600  1
  H  4933  1  0.27592900  0.56134700  0.99850281  1
  H  4935  1  0.31078800  0.49773200  0.01058100  1
  H  4942  1  0.24163900  0.53197800  0.46181700  1
  H  4943  1  0.29881400  0.53586800  0.45146600  1
  H  4944  1  0.26748500  0.49358400  0.42657600  1
  H  4946  1  0.29867300  0.50810800  0.41431400  1
  H  4948  1  0.26462000  0.56208400  0.46478100  1
  H  4950  1  0.22953100  0.49847100  0.45332200  1
  H  4957  1  0.24041900  0.06305800  0.00103000  1
  H  4958  1  0.29770200  0.05892000  0.01063100  1
  H  4959  1  0.26684700  0.10124200  0.03605800  1
  H  4961  1  0.29809800  0.08651900  0.04789800  1
  H  4963  1  0.26325300  0.03285300  0.99776481  1
  H  4965  1  0.22859700  0.09661600  0.00973300  1
  H  4972  1  0.29798000  0.07054700  0.46799100  1
  H  4973  1  0.24041300  0.06842700  0.45947300  1
  H  4974  1  0.27309500  0.10514800  0.42833800  1
  H  4976  1  0.24058100  0.09271600  0.41892500  1
  H  4978  1  0.27296800  0.06046900  0.49194700  1
  H  4980  1  0.31187400  0.10069200  0.45524500  1
  H  4987  1  0.00441300  0.56733600  0.25940800  1
  H  4988  1  0.00903200  0.57631800  0.20205400  1
  H  4989  1  0.96655880  0.60220600  0.23232600  1
  H  4991  1  0.98158380  0.61369700  0.20113300  1
  H  4993  1  0.03479800  0.56384100  0.23681400  1
  H  4995  1  0.97084280  0.57628400  0.27091900  1
  H  5002  1  0.00265200  0.02513400  0.20061300  1
  H  5003  1  0.00834000  0.02190300  0.25847700  1
  H  5004  1  0.96510080  0.99347731  0.23176300  1
  H  5006  1  0.98008380  0.98528230  0.26399800  1
  H  5008  1  0.03404300  0.03141500  0.23494700  1
  H  5010  1  0.96849080  0.01575200  0.19113800  1
  H  5017  1  0.54566000  0.56114400  0.19944500  1
  H  5018  1  0.53735500  0.56700200  0.25678800  1
  H  5019  1  0.57527000  0.60145500  0.22911700  1
  H  5021  1  0.55817300  0.60861200  0.26038000  1
  H  5023  1  0.53290400  0.53648600  0.23483100  1
  H  5025  1  0.57704700  0.57632100  0.18970300  1
  H  5032  1  0.54549800  0.03407000  0.26317800  1
  H  5033  1  0.53725900  0.02800700  0.20584700  1
  H  5034  1  0.57518400  0.99368931  0.23367100  1
  H  5036  1  0.55810600  0.98639930  0.20240600  1
  H  5038  1  0.53282300  0.05861700  0.22772100  1
  H  5040  1  0.57692200  0.01900700  0.27296900  1
  H  5047  1  0.29712500  0.56026300  0.50433100  1
  H  5048  1  0.23962000  0.56906900  0.50169400  1
  H  5049  1  0.27214900  0.60013100  0.53861100  1
  H  5051  1  0.23977400  0.60968500  0.52572100  1
  H  5053  1  0.27211000  0.53642400  0.49408700  1
  H  5055  1  0.31100200  0.57300000  0.53427700  1
  H  5062  1  0.24221800  0.02821400  0.49622500  1
  H  5063  1  0.29938700  0.01778900  0.49235700  1
  H  5064  1  0.26796400  0.99276431  0.53449500  1
  H  5066  1  0.29905800  0.98047730  0.51987500  1
  H  5068  1  0.26520400  0.03131300  0.46619400  1
  H  5070  1  0.22981200  0.01940100  0.52946500  1
  H  5077  1  0.24330500  0.55940500  0.95910280  1
  H  5078  1  0.30080800  0.56830800  0.96145380  1
  H  5079  1  0.26803300  0.59933500  0.92472180  1
  H  5081  1  0.30044600  0.60895100  0.93755480  1
  H  5083  1  0.26842000  0.53561000  0.96928180  1
  H  5085  1  0.22916300  0.57217000  0.92933380  1
  H  5092  1  0.29510500  0.03436100  0.95801980  1
  H  5093  1  0.23751400  0.02621800  0.96087780  1
  H  5094  1  0.26954200  0.99485831  0.92376580  1
  H  5096  1  0.23708900  0.98569230  0.93661480  1
  H  5098  1  0.27028700  0.05848700  0.96833980  1
  H  5100  1  0.30826100  0.02156000  0.92730580  1
  H  5107  1  0.03353000  0.52378100  0.20567400  1
  H  5108  1  0.04121100  0.52733100  0.26328400  1
  H  5109  1  0.07314000  0.49014400  0.23189800  1
  H  5111  1  0.08181800  0.50260100  0.26427300  1
  H  5113  1  0.00918500  0.53430500  0.23017900  1
  H  5115  1  0.04688300  0.49229100  0.19343100  1
  H  5122  1  0.49756900  0.53058100  0.26094200  1
  H  5123  1  0.49378500  0.53567300  0.20306900  1
  H  5124  1  0.46602800  0.49240400  0.23043700  1
  H  5126  1  0.45740700  0.50695000  0.19808700  1
  H  5128  1  0.50342600  0.56165400  0.22619300  1
  H  5130  1  0.48869600  0.49655500  0.27084700  1
  H  5137  1  0.03365900  0.07345800  0.26178200  1
  H  5138  1  0.03908400  0.06537800  0.20436900  1
  H  5139  1  0.07392700  0.10299100  0.23196200  1
  H  5141  1  0.08076200  0.08596300  0.20055200  1
  H  5143  1  0.00872700  0.06081500  0.22648600  1
  H  5145  1  0.04911600  0.10479200  0.27150700  1
  H  5152  1  0.49752600  0.06453100  0.20144200  1
  H  5153  1  0.49360300  0.05954100  0.25931300  1
  H  5154  1  0.46592600  0.10277800  0.23181300  1
  H  5156  1  0.45720600  0.08828400  0.26414700  1
  H  5158  1  0.50326800  0.03351000  0.23624300  1
  H  5160  1  0.48863000  0.09851700  0.19141300  1
  H  5167  1  0.53312700  0.33013600  0.95566780  1
  H  5168  1  0.53931500  0.27289500  0.96440880  1
  H  5169  1  0.57363800  0.30047400  0.92631280  1
  H  5171  1  0.58098700  0.26941500  0.94372780  1
  H  5173  1  0.50862200  0.29481200  0.96859680  1
  H  5175  1  0.54821000  0.33969700  0.92418080  1
  H  5182  1  0.00734000  0.26549700  0.95641780  1
  H  5183  1  0.00071400  0.32271800  0.96501680  1
  H  5184  1  0.96651180  0.29475800  0.92709880  1
  H  5186  1  0.95899280  0.32584900  0.94434980  1
  H  5188  1  0.03156900  0.30106300  0.96923480  1
  H  5190  1  0.99217277  0.25590200  0.92470580  1
  H  5197  1  0.53328000  0.26508900  0.50719900  1
  H  5198  1  0.53947800  0.32227700  0.49811400  1
  H  5199  1  0.57401100  0.29485300  0.53613300  1
  H  5201  1  0.58124100  0.32586500  0.51860600  1
  H  5203  1  0.50878200  0.30039000  0.49406900  1
  H  5205  1  0.54862300  0.25589100  0.53896100  1
  H  5212  1  0.00673300  0.32962500  0.50694200  1
  H  5213  1  0.00032500  0.27235400  0.49856300  1
  H  5214  1  0.96609080  0.30031000  0.53646100  1
  H  5216  1  0.95868980  0.26905300  0.51944600  1
  H  5218  1  0.03107900  0.29410200  0.49427500  1
  H  5220  1  0.99167677  0.33913300  0.53877000  1
  H  5227  1  0.50257200  0.32620700  0.45883900  1
  H  5228  1  0.50821600  0.26841300  0.45472700  1
  H  5229  1  0.46487700  0.29556500  0.42686000  1
  H  5231  1  0.47999500  0.26349200  0.41804200  1
  H  5233  1  0.53391800  0.29160000  0.46460800  1
  H  5235  1  0.46853800  0.33591800  0.44978900  1
  H  5242  1  0.50241500  0.26863300  0.00363300  1
  H  5243  1  0.50806200  0.32640000  0.00811200  1
  H  5244  1  0.46460700  0.29910400  0.03565100  1
  H  5246  1  0.47962600  0.33114400  0.04469100  1
  H  5248  1  0.53378600  0.30325300  0.99812881  1
  H  5250  1  0.46834500  0.25887800  0.01251700  1
  H  5257  1  0.03718500  0.26769800  0.45918500  1
  H  5258  1  0.03206200  0.32553200  0.45489300  1
  H  5259  1  0.07552300  0.29798000  0.42762000  1
  H  5261  1  0.06096700  0.33021200  0.41862900  1
  H  5263  1  0.00605700  0.30250600  0.46461300  1
  H  5265  1  0.07123200  0.25769300  0.45054500  1
  H  5272  1  0.03751000  0.32738600  0.00441100  1
  H  5273  1  0.03245000  0.26954400  0.00858900  1
  H  5274  1  0.07572900  0.29710700  0.03613300  1
  H  5276  1  0.06117500  0.26485900  0.04500300  1
  H  5278  1  0.00647100  0.29253800  0.99879981  1
  H  5280  1  0.07147700  0.33746100  0.01330200  1
  C  1  1  0.95583500  0.82913600  0.68166100  1
  C  2  1  0.94233800  0.84066500  0.68991300  1
  C  3  1  0.92724400  0.84744600  0.67965200  1
  C  4  1  0.92503700  0.84273100  0.66077300  1
  C  5  1  0.93863300  0.83142300  0.65240500  1
  C  6  1  0.95377200  0.82473200  0.66267800  1
  C  7  1  0.91035600  0.84938600  0.65023500  1
  C  8  1  0.89263700  0.84941300  0.65594000  1
  C  9  1  0.87816700  0.85596800  0.64522200  1
  C  10  1  0.87273400  0.84669300  0.62887900  1
  C  11  1  0.85743400  0.85286700  0.61833200  1
  C  12  1  0.84738500  0.86845700  0.62466600  1
  C  13  1  0.85269700  0.87806200  0.64084900  1
  C  14  1  0.86800300  0.87156900  0.65114900  1
  C  15  1  0.84261900  0.89333800  0.64662600  1
  C  16  1  0.85012400  0.91025900  0.64850500  1
  C  17  1  0.83994100  0.92583500  0.65312800  1
  C  18  1  0.82999500  0.92694400  0.66994500  1
  C  19  1  0.83992600  0.94128200  0.64114200  1
  C  20  1  0.83006400  0.95740800  0.64578700  1
  C  21  1  0.82006500  0.95856800  0.66257000  1
  C  22  1  0.82009300  0.94308200  0.67453700  1
  C  23  1  0.85218000  0.84307600  0.60258000  1
  C  24  1  0.84723100  0.85101900  0.58648500  1
  C  25  1  0.84220500  0.84102100  0.57093000  1
  C  26  1  0.85514100  0.82973600  0.56158400  1
  C  27  1  0.82419000  0.84278300  0.56356700  1
  C  28  1  0.81920900  0.83343400  0.54721600  1
  C  29  1  0.83217800  0.82233900  0.53757700  1
  C  30  1  0.85014000  0.82051000  0.54518000  1
  C  52  1  0.82807400  0.81291300  0.51965400  1
  C  55  1  0.80977500  0.97566900  0.66766500  1
  C  58  1  0.97162000  0.82257600  0.69324600  1
  C  61  1  0.08203900  0.21175200  0.67866300  1
  C  62  1  0.09489700  0.19995500  0.68754300  1
  C  63  1  0.11011200  0.19253300  0.67790600  1
  C  64  1  0.11313400  0.19688200  0.65905000  1
  C  65  1  0.10018100  0.20847400  0.65006500  1
  C  66  1  0.08489400  0.21575900  0.65969200  1
  C  67  1  0.12799000  0.18972700  0.64907400  1
  C  68  1  0.14546900  0.18892300  0.65543800  1
  C  69  1  0.16013700  0.18232000  0.64499800  1
  C  70  1  0.16625600  0.19196900  0.62911700  1
  C  71  1  0.18167000  0.18570200  0.61882500  1
  C  72  1  0.19117300  0.16968400  0.62486200  1
  C  73  1  0.18526800  0.15979100  0.64067000  1
  C  74  1  0.16982400  0.16634500  0.65075100  1
  C  75  1  0.19506000  0.14431100  0.64641400  1
  C  76  1  0.18736400  0.12745300  0.64808700  1
  C  77  1  0.19736200  0.11174900  0.65272100  1
  C  78  1  0.20714100  0.11045800  0.66962700  1
  C  79  1  0.19743400  0.09639000  0.64062300  1
  C  80  1  0.20719200  0.08018700  0.64523600  1
  C  81  1  0.21703900  0.07885700  0.66209600  1
  C  82  1  0.21694200  0.09424700  0.67418600  1
  C  83  1  0.18765900  0.19572500  0.60355300  1
  C  84  1  0.19011300  0.18823300  0.58669000  1
  C  85  1  0.19522300  0.19837800  0.57120700  1
  C  86  1  0.18427100  0.19750500  0.55503200  1
  C  87  1  0.21162900  0.20905800  0.57086500  1
  C  88  1  0.21682600  0.21875600  0.55477900  1
  C  89  1  0.20582500  0.21798300  0.53861900  1
  C  90  1  0.18946000  0.20725300  0.53899800  1
  C  112  1  0.21161700  0.22795800  0.52152600  1
  C  115  1  0.22732800  0.06172000  0.66709900  1
  C  118  1  0.06610500  0.21907700  0.68960200  1
  C  121  1  0.95578800  0.20800700  0.27898000  1
  C  122  1  0.94219600  0.19651200  0.27083700  1
  C  123  1  0.92710900  0.18986400  0.28119300  1
  C  124  1  0.92501000  0.19467000  0.30006100  1
  C  125  1  0.93871700  0.20591700  0.30832900  1
  C  126  1  0.95384700  0.21248300  0.29796000  1
  C  127  1  0.91032300  0.18815300  0.31067200  1
  C  128  1  0.89258100  0.18828700  0.30503900  1
  C  129  1  0.87810600  0.18177000  0.31577100  1
  C  130  1  0.87271000  0.19104500  0.33212800  1
  C  131  1  0.85739600  0.18490500  0.34267600  1
  C  132  1  0.84730100  0.16934800  0.33633300  1
  C  133  1  0.85257900  0.15974000  0.32013700  1
  C  134  1  0.86789500  0.16620600  0.30983600  1
  C  135  1  0.84246000  0.14449500  0.31434900  1
  C  136  1  0.84994400  0.12758000  0.31231600  1
  C  137  1  0.83973900  0.11203100  0.30765100  1
  C  138  1  0.82964400  0.11105100  0.29091400  1
  C  139  1  0.83987400  0.09647300  0.31948800  1
  C  140  1  0.83000700  0.08036700  0.31478700  1
  C  141  1  0.81985600  0.07933700  0.29808700  1
  C  142  1  0.81974100  0.09493100  0.28626200  1
  C  143  1  0.85216800  0.19470300  0.35843600  1
  C  144  1  0.84716000  0.18677000  0.37451800  1
  C  145  1  0.84213800  0.19677200  0.39007400  1
  C  146  1  0.85507400  0.20805800  0.39942000  1
  C  147  1  0.82412600  0.19501000  0.39744500  1
  C  148  1  0.81914400  0.20436100  0.41379600  1
  C  149  1  0.83211200  0.21546000  0.42342900  1
  C  150  1  0.85007500  0.21728500  0.41582400  1
  C  172  1  0.82800400  0.22490000  0.44134500  1
  C  175  1  0.80955000  0.06226100  0.29293700  1
  C  178  1  0.97150800  0.21449600  0.26726500  1
  C  181  1  0.08120800  0.82567000  0.28065100  1
  C  182  1  0.09425600  0.83706100  0.27152700  1
  C  183  1  0.10943800  0.84465000  0.28108000  1
  C  184  1  0.11219700  0.84088700  0.30010000  1
  C  185  1  0.09906700  0.82969700  0.30932300  1
  C  186  1  0.08383200  0.82223200  0.29976900  1
  C  187  1  0.12694900  0.84829600  0.31000100  1
  C  188  1  0.14455400  0.84846300  0.30395300  1
  C  189  1  0.15905700  0.85546700  0.31433100  1
  C  190  1  0.16485800  0.84652100  0.33072500  1
  C  191  1  0.17997100  0.85332200  0.34112200  1
  C  192  1  0.18944400  0.86920200  0.33465600  1
  C  193  1  0.18379700  0.87849200  0.31839200  1
  C  194  1  0.16870800  0.87130700  0.30818900  1
  C  195  1  0.19344500  0.89405300  0.31251300  1
  C  196  1  0.18521400  0.91013300  0.30804700  1
  C  197  1  0.19485400  0.92567800  0.30235800  1
  C  198  1  0.19139900  0.93330700  0.28470800  1
  C  199  1  0.20744900  0.93475000  0.31424800  1
  C  200  1  0.21632400  0.95113100  0.30857200  1
  C  201  1  0.21279300  0.95899100  0.29098000  1
  C  202  1  0.20037000  0.94963000  0.27905100  1
  C  203  1  0.18566200  0.84389200  0.35690400  1
  C  204  1  0.18949700  0.85220500  0.37310500  1
  C  205  1  0.19541800  0.84268800  0.38862800  1
  C  206  1  0.18377200  0.82992700  0.39777300  1
  C  207  1  0.21311900  0.84631100  0.39605200  1
  C  208  1  0.21905800  0.83735500  0.41228500  1
  C  209  1  0.20736700  0.82478100  0.42174300  1
  C  210  1  0.18972500  0.82108400  0.41407400  1
  C  232  1  0.21258800  0.81556000  0.43947400  1
  C  235  1  0.22203800  0.97678900  0.28603500  1
  C  238  1  0.06528700  0.81818700  0.26981600  1
  C  241  1  0.82724300  0.71778900  0.91525000  1
  C  242  1  0.83769400  0.72713900  0.90159100  1
  C  243  1  0.84572800  0.71749600  0.88670400  1
  C  244  1  0.84339200  0.69814100  0.88489100  1
  C  245  1  0.83327100  0.68869400  0.89871100  1
  C  246  1  0.82534100  0.69835400  0.91364400  1
  C  247  1  0.85096000  0.68822600  0.87022900  1
  C  248  1  0.84990900  0.69360300  0.85244200  1
  C  249  1  0.85672000  0.68308300  0.83797800  1
  C  250  1  0.84753100  0.66675300  0.83240200  1
  C  251  1  0.85384900  0.65631400  0.81709600  1
  C  252  1  0.86950900  0.66272500  0.80720900  1
  C  253  1  0.87901700  0.67892500  0.81267100  1
  C  254  1  0.87237000  0.68913400  0.82798000  1
  C  255  1  0.89431900  0.68483000  0.80270500  1
  C  256  1  0.91115700  0.68695100  0.81033600  1
  C  257  1  0.92675300  0.69172800  0.80025400  1
  C  258  1  0.92774200  0.70853600  0.79028100  1
  C  259  1  0.94232700  0.67990900  0.80034800  1
  C  260  1  0.95845500  0.68469800  0.79055600  1
  C  261  1  0.95949100  0.70146400  0.78051900  1
  C  262  1  0.94388400  0.71327300  0.78045100  1
  C  263  1  0.84411000  0.64057900  0.81173300  1
  C  264  1  0.85208500  0.62444200  0.80699500  1
  C  265  1  0.84206200  0.60885100  0.80215000  1
  C  266  1  0.83081300  0.59966600  0.81523300  1
  C  267  1  0.84365700  0.60135500  0.78417600  1
  C  268  1  0.83416800  0.58503200  0.77937500  1
  C  269  1  0.82309000  0.57556700  0.79248700  1
  C  270  1  0.82144400  0.58329600  0.81041200  1
  C  292  1  0.81348400  0.55770200  0.78857600  1
  C  295  1  0.97657700  0.70668100  0.77025500  1
  C  298  1  0.81898300  0.72880800  0.93063400  1
  C  301  1  0.21073900  0.71732900  0.04515900  1
  C  302  1  0.20076500  0.72680200  0.05908900  1
  C  303  1  0.19298700  0.71725000  0.07416900  1
  C  304  1  0.19508500  0.69786100  0.07587900  1
  C  305  1  0.20470800  0.68829000  0.06179200  1
  C  306  1  0.21240300  0.69786600  0.04668400  1
  C  307  1  0.18762600  0.68804000  0.09064500  1
  C  308  1  0.18938600  0.69317300  0.10844600  1
  C  309  1  0.18237700  0.68280400  0.12291600  1
  C  310  1  0.19149200  0.66655500  0.12879600  1
  C  311  1  0.18472500  0.65609200  0.14388900  1
  C  312  1  0.16863900  0.66233900  0.15318400  1
  C  313  1  0.15915600  0.67845600  0.14740200  1
  C  314  1  0.16636700  0.68874700  0.13238200  1
  C  315  1  0.14339100  0.68418200  0.15683100  1
  C  316  1  0.12747400  0.68876300  0.14834000  1
  C  317  1  0.11182500  0.69468800  0.15766700  1
  C  318  1  0.10445000  0.71238100  0.15389700  1
  C  319  1  0.10236700  0.68300600  0.17017100  1
  C  320  1  0.08584500  0.68892500  0.17862900  1
  C  321  1  0.07823300  0.70655500  0.17476500  1
  C  322  1  0.08799100  0.71827900  0.16245400  1
  C  323  1  0.19438700  0.64042800  0.14955500  1
  C  324  1  0.18637300  0.62417000  0.15376100  1
  C  325  1  0.19637600  0.60862300  0.15873800  1
  C  326  1  0.20767900  0.59940600  0.14572700  1
  C  327  1  0.19475300  0.60124200  0.17675200  1
  C  328  1  0.20427300  0.58497200  0.18166300  1
  C  329  1  0.21539900  0.57545900  0.16862400  1
  C  330  1  0.21707500  0.58308600  0.15065900  1
  C  352  1  0.22503700  0.55764300  0.17265600  1
  C  355  1  0.06027600  0.71176200  0.18355500  1
  C  358  1  0.21880900  0.72826600  0.02961200  1
  C  361  1  0.20939200  0.31721000  0.91665400  1
  C  362  1  0.19803000  0.30910800  0.90292600  1
  C  363  1  0.19144000  0.31952800  0.88785700  1
  C  364  1  0.19617500  0.33842700  0.88591500  1
  C  365  1  0.20731000  0.34665000  0.89974000  1
  C  366  1  0.21382300  0.33621300  0.91484700  1
  C  367  1  0.18956700  0.34913100  0.87134000  1
  C  368  1  0.18977000  0.34371600  0.85353100  1
  C  369  1  0.18288100  0.35448300  0.83925700  1
  C  370  1  0.19194000  0.37090000  0.83372900  1
  C  371  1  0.18526900  0.38158200  0.81873600  1
  C  372  1  0.16931600  0.37537700  0.80917500  1
  C  373  1  0.15986500  0.35912500  0.81459500  1
  C  374  1  0.16700200  0.34862800  0.82950200  1
  C  375  1  0.14424000  0.35344500  0.80489600  1
  C  376  1  0.12827600  0.34856100  0.81312700  1
  C  377  1  0.11275400  0.34269900  0.80353900  1
  C  378  1  0.10534300  0.32497100  0.80707400  1
  C  379  1  0.10343100  0.35447300  0.79101800  1
  C  380  1  0.08701200  0.34861700  0.78232000  1
  C  381  1  0.07936100  0.33095400  0.78595400  1
  C  382  1  0.08898700  0.31913400  0.79827700  1
  C  383  1  0.19493500  0.39735300  0.81331300  1
  C  384  1  0.18690800  0.41351000  0.80872700  1
  C  385  1  0.19684800  0.42907000  0.80362800  1
  C  386  1  0.20819800  0.43841600  0.81650500  1
  C  387  1  0.19500900  0.43640600  0.78561100  1
  C  388  1  0.20434800  0.45274300  0.78056900  1
  C  389  1  0.21551100  0.46238300  0.79347900  1
  C  390  1  0.21741300  0.45480200  0.81144400  1
  C  412  1  0.22495100  0.48027800  0.78931200  1
  C  415  1  0.06149600  0.32581900  0.77693200  1
  C  418  1  0.21576200  0.30544600  0.93238700  1
  C  421  1  0.82801000  0.32095100  0.04463200  1
  C  422  1  0.83824100  0.31148500  0.05837800  1
  C  423  1  0.84614600  0.32102200  0.07339800  1
  C  424  1  0.84391500  0.34038600  0.07523800  1
  C  425  1  0.83406500  0.34995700  0.06130800  1
  C  426  1  0.82625300  0.34040000  0.04625000  1
  C  427  1  0.85129700  0.35017000  0.09006700  1
  C  428  1  0.84968600  0.34480800  0.10781600  1
  C  429  1  0.85634100  0.35519300  0.12243700  1
  C  430  1  0.84705800  0.37144500  0.12808300  1
  C  431  1  0.85328400  0.38179800  0.14348200  1
  C  432  1  0.86891900  0.37537600  0.15339700  1
  C  433  1  0.87851300  0.35926100  0.14785000  1
  C  434  1  0.87198200  0.34913500  0.13244000  1
  C  435  1  0.89384600  0.35340800  0.15777700  1
  C  436  1  0.91073800  0.35168400  0.15016400  1
  C  437  1  0.92639300  0.34698800  0.16020200  1
  C  438  1  0.92737500  0.33034300  0.17044900  1
  C  439  1  0.94203300  0.35871300  0.15978000  1
  C  440  1  0.95821900  0.35399500  0.16951100  1
  C  441  1  0.95923500  0.33739400  0.17981800  1
  C  442  1  0.94356600  0.32568000  0.18022200  1
  C  443  1  0.84353700  0.39750900  0.14887400  1
  C  444  1  0.85153700  0.41364500  0.15355900  1
  C  445  1  0.84154200  0.42923700  0.15843200  1
  C  446  1  0.83030900  0.43845700  0.14536100  1
  C  447  1  0.84317200  0.43670400  0.17641300  1
  C  448  1  0.83372600  0.45304300  0.18123400  1
  C  449  1  0.82267300  0.46255400  0.16813400  1
  C  450  1  0.82099100  0.45485000  0.15020300  1
  C  472  1  0.81312600  0.48044300  0.17207000  1
  C  475  1  0.97638500  0.33218600  0.18995700  1
  C  478  1  0.81974400  0.31001400  0.02919600  1
  C  481  1  0.72133100  0.95525500  0.79121100  1
  C  482  1  0.72961100  0.94214100  0.80315600  1
  C  483  1  0.71947100  0.92706600  0.81015500  1
  C  484  1  0.70068900  0.92447100  0.80524700  1
  C  485  1  0.69229300  0.93769500  0.79351900  1
  C  486  1  0.70243900  0.95282600  0.78661700  1
  C  487  1  0.69025200  0.90978500  0.81208000  1
  C  488  1  0.69628100  0.89219100  0.81290000  1
  C  489  1  0.68559200  0.87772300  0.81951800  1
  C  490  1  0.66978600  0.87164100  0.80973200  1
  C  491  1  0.65940600  0.85628700  0.81597100  1
  C  492  1  0.66523200  0.84680600  0.83207600  1
  C  493  1  0.68099100  0.85264900  0.84209500  1
  C  494  1  0.69117900  0.86803400  0.83555600  1
  C  495  1  0.68676900  0.84269100  0.85748600  1
  C  496  1  0.68952600  0.85037200  0.87421100  1
  C  497  1  0.69455900  0.84031100  0.88975900  1
  C  498  1  0.71119400  0.83001000  0.89034800  1
  C  499  1  0.68331700  0.84091500  0.90574400  1
  C  500  1  0.68847000  0.83127200  0.92185500  1
  C  501  1  0.70508300  0.82094000  0.92250200  1
  C  502  1  0.71635200  0.82042000  0.90651200  1
  C  503  1  0.64457100  0.84994100  0.80557100  1
  C  504  1  0.62724700  0.84839800  0.81222100  1
  C  505  1  0.61239700  0.84148900  0.80208400  1
  C  506  1  0.60861900  0.84736400  0.78378800  1
  C  507  1  0.60027400  0.82853600  0.81032300  1
  C  508  1  0.58506900  0.82139500  0.80046300  1
  C  509  1  0.58147100  0.82692400  0.78200400  1
  C  510  1  0.59348000  0.84010100  0.77391200  1
  C  532  1  0.56558100  0.81981800  0.77085500  1
  C  535  1  0.71082900  0.81107800  0.93967400  1
  C  538  1  0.73279800  0.97103100  0.78442100  1
  C  541  1  0.72083100  0.08305600  0.17043400  1
  C  542  1  0.72908300  0.09656400  0.15891500  1
  C  543  1  0.71883600  0.11169700  0.15219700  1
  C  544  1  0.69997200  0.11393100  0.15695900  1
  C  545  1  0.69160900  0.10033200  0.16826700  1
  C  546  1  0.70186600  0.08515700  0.17490000  1
  C  547  1  0.68941000  0.12856200  0.15023500  1
  C  548  1  0.69506200  0.14629500  0.15008600  1
  C  549  1  0.68432300  0.16059500  0.14321800  1
  C  550  1  0.66842100  0.16670200  0.15281300  1
  C  551  1  0.65783900  0.18172000  0.14611900  1
  C  552  1  0.66349100  0.19075200  0.12969400  1
  C  553  1  0.67934700  0.18488000  0.11982200  1
  C  554  1  0.68979500  0.16990300  0.12692800  1
  C  555  1  0.68489500  0.19449400  0.10407200  1
  C  556  1  0.69025300  0.18630100  0.08823600  1
  C  557  1  0.69603300  0.19596200  0.07270500  1
  C  558  1  0.71379300  0.19262100  0.06526300  1
  C  559  1  0.68416300  0.20843100  0.06343100  1
  C  560  1  0.68993900  0.21724200  0.04704400  1
  C  561  1  0.70761300  0.21376700  0.03934500  1
  C  562  1  0.71954700  0.20151800  0.04892200  1
  C  563  1  0.64296000  0.18821100  0.15636200  1
  C  564  1  0.62557200  0.18919400  0.14977400  1
  C  565  1  0.61066200  0.19627500  0.15971000  1
  C  566  1  0.60718500  0.19126500  0.17832000  1
  C  567  1  0.59817200  0.20852300  0.15095100  1
  C  568  1  0.58289300  0.21581100  0.16058700  1
  C  569  1  0.57958500  0.21114800  0.17933500  1
  C  570  1  0.59197400  0.19868400  0.18796800  1
  C  592  1  0.56363700  0.21845400  0.19027400  1
  C  595  1  0.71257000  0.22279100  0.02142200  1
  C  598  1  0.73238700  0.06720900  0.17690400  1
  C  601  1  0.32017100  0.95631900  0.17249100  1
  C  602  1  0.31105400  0.94335000  0.16100100  1
  C  603  1  0.32053300  0.92804900  0.15354500  1
  C  604  1  0.33947200  0.92506100  0.15754100  1
  C  605  1  0.34867900  0.93811000  0.16884800  1
  C  606  1  0.33920600  0.95346800  0.17617600  1
  C  607  1  0.34935000  0.91021100  0.15023300  1
  C  608  1  0.34303200  0.89271300  0.14952200  1
  C  609  1  0.35345100  0.87813700  0.14269000  1
  C  610  1  0.36919700  0.87173900  0.15235900  1
  C  611  1  0.37949100  0.85646700  0.14580000  1
  C  612  1  0.37367900  0.84744100  0.12943000  1
  C  613  1  0.35796100  0.85356700  0.11948700  1
  C  614  1  0.34781300  0.86881800  0.12645700  1
  C  615  1  0.35229400  0.84394200  0.10378300  1
  C  616  1  0.34720800  0.85209800  0.08783600  1
  C  617  1  0.34152500  0.84239400  0.07229300  1
  C  618  1  0.32386300  0.84579100  0.06464300  1
  C  619  1  0.35343100  0.82983000  0.06319100  1
  C  620  1  0.34779400  0.82098800  0.04677400  1
  C  621  1  0.33021800  0.82451100  0.03887100  1
  C  622  1  0.31824300  0.83685200  0.04827700  1
  C  623  1  0.39425200  0.84980900  0.15611900  1
  C  624  1  0.41157300  0.84815900  0.14949300  1
  C  625  1  0.42633900  0.84108600  0.15963600  1
  C  626  1  0.43019300  0.84697600  0.17790900  1
  C  627  1  0.43832100  0.82798600  0.15142100  1
  C  628  1  0.45347000  0.82072800  0.16128300  1
  C  629  1  0.45715500  0.82629100  0.17971500  1
  C  630  1  0.44527800  0.83960100  0.18778700  1
  C  652  1  0.47302600  0.81911200  0.19084800  1
  C  655  1  0.32540900  0.81542500  0.02093600  1
  C  658  1  0.30940800  0.97235900  0.17985000  1
  C  661  1  0.31625000  0.08185200  0.79022100  1
  C  662  1  0.30815000  0.09500600  0.80224400  1
  C  663  1  0.31846600  0.10997400  0.80921700  1
  C  664  1  0.33724000  0.11240700  0.80420000  1
  C  665  1  0.34545700  0.09914300  0.79239700  1
  C  666  1  0.33513900  0.08411900  0.78552800  1
  C  667  1  0.34782900  0.12701200  0.81093800  1
  C  668  1  0.34196400  0.14466200  0.81164000  1
  C  669  1  0.35285900  0.15905600  0.81804000  1
  C  670  1  0.36832100  0.16521100  0.80776500  1
  C  671  1  0.37889800  0.18050900  0.81379100  1
  C  672  1  0.37364900  0.18985400  0.83016000  1
  C  673  1  0.35824000  0.18391400  0.84064100  1
  C  674  1  0.34782300  0.16858600  0.83434800  1
  C  675  1  0.35294700  0.19380000  0.85621400  1
  C  676  1  0.35109900  0.18612500  0.87306300  1
  C  677  1  0.34654900  0.19622300  0.88872200  1
  C  678  1  0.32988400  0.20643000  0.88977900  1
  C  679  1  0.35846900  0.19602700  0.90421700  1
  C  680  1  0.35391900  0.20595800  0.92033300  1
  C  681  1  0.33730900  0.21625000  0.92141600  1
  C  682  1  0.32539900  0.21641300  0.90589000  1
  C  683  1  0.39334700  0.18698000  0.80297300  1
  C  684  1  0.41098500  0.18782400  0.80887200  1
  C  685  1  0.42554800  0.19474000  0.79833000  1
  C  686  1  0.42803800  0.18984100  0.77953200  1
  C  687  1  0.43869700  0.20663300  0.80660600  1
  C  688  1  0.45365900  0.21369800  0.79632700  1
  C  689  1  0.45598100  0.20911300  0.77741600  1
  C  690  1  0.44293800  0.19701100  0.76925500  1
  C  712  1  0.47162500  0.21600800  0.76583600  1
  C  715  1  0.33231500  0.22667700  0.93845900  1
  C  718  1  0.30462300  0.06618300  0.78346600  1
  C  721  1  0.82679400  0.95874000  0.28026000  1
  C  722  1  0.83870100  0.94618000  0.27110500  1
  C  723  1  0.84642300  0.93094400  0.28046700  1
  C  724  1  0.84228000  0.92760500  0.29931800  1
  C  725  1  0.83057000  0.94026200  0.30857100  1
  C  726  1  0.82298500  0.95556600  0.29921900  1
  C  727  1  0.84967600  0.91270000  0.30904200  1
  C  728  1  0.85080500  0.89535100  0.30238300  1
  C  729  1  0.85736300  0.88059400  0.31271100  1
  C  730  1  0.84739600  0.87413900  0.32826300  1
  C  731  1  0.85359000  0.85859400  0.33834500  1
  C  732  1  0.86975000  0.84925300  0.33253800  1
  C  733  1  0.87988700  0.85544500  0.31700700  1
  C  734  1  0.87348700  0.87105700  0.30708200  1
  C  735  1  0.89532600  0.84558800  0.31130900  1
  C  736  1  0.91232000  0.85305600  0.31003500  1
  C  737  1  0.92798600  0.84284100  0.30568000  1
  C  738  1  0.92899900  0.83201400  0.28940000  1
  C  739  1  0.94351300  0.84339300  0.31755900  1
  C  740  1  0.95958000  0.83323000  0.31336500  1
  C  741  1  0.96059200  0.82231000  0.29715700  1
  C  742  1  0.94505800  0.82179400  0.28527100  1
  C  743  1  0.84327500  0.85189500  0.35300900  1
  C  744  1  0.84916400  0.85254300  0.37065400  1
  C  745  1  0.83951200  0.84494600  0.38547600  1
  C  746  1  0.82022100  0.84742600  0.38775300  1
  C  747  1  0.84917700  0.83458800  0.39896900  1
  C  748  1  0.83978500  0.82656800  0.41402300  1
  C  749  1  0.82040200  0.82859200  0.41606600  1
  C  750  1  0.81084100  0.83928400  0.40274500  1
  C  772  1  0.80963300  0.82017900  0.43153900  1
  C  775  1  0.97757200  0.81160000  0.29255500  1
  C  778  1  0.81914300  0.97471400  0.26961100  1
  C  781  1  0.20897400  0.08035900  0.27763800  1
  C  782  1  0.19699500  0.09357300  0.26957100  1
  C  783  1  0.18962600  0.10822400  0.28006700  1
  C  784  1  0.19420900  0.11027700  0.29899600  1
  C  785  1  0.20606100  0.09701200  0.30714400  1
  C  786  1  0.21331900  0.08230300  0.29664600  1
  C  787  1  0.18683200  0.12436000  0.30985500  1
  C  788  1  0.18554800  0.14213300  0.30449000  1
  C  789  1  0.17837900  0.15580900  0.31578900  1
  C  790  1  0.18873400  0.16268200  0.33087400  1
  C  791  1  0.18147900  0.17668800  0.34242800  1
  C  792  1  0.16376900  0.18404700  0.33852900  1
  C  793  1  0.15338400  0.17759100  0.32327500  1
  C  794  1  0.16077300  0.16339700  0.31201600  1
  C  795  1  0.13606000  0.18495800  0.31969200  1
  C  796  1  0.13206600  0.19422000  0.30405000  1
  C  797  1  0.11462300  0.20112000  0.29988500  1
  C  798  1  0.10675300  0.19743100  0.28236900  1
  C  799  1  0.10457600  0.21223800  0.31247800  1
  C  800  1  0.08694300  0.21906000  0.30780400  1
  C  801  1  0.07881200  0.21503900  0.29045200  1
  C  802  1  0.08912100  0.20426000  0.27774200  1
  C  803  1  0.19213900  0.18359800  0.35677600  1
  C  804  1  0.18693200  0.18292800  0.37463300  1
  C  805  1  0.19752300  0.18997000  0.38904300  1
  C  806  1  0.21646800  0.18547900  0.39106500  1
  C  807  1  0.18922200  0.20158700  0.40240400  1
  C  808  1  0.19968400  0.20890000  0.41710900  1
  C  809  1  0.21876000  0.20480000  0.41894200  1
  C  810  1  0.22690100  0.19283900  0.40575800  1
  C  832  1  0.23059300  0.21223000  0.43413100  1
  C  835  1  0.05998000  0.22244400  0.28635100  1
  C  838  1  0.21596900  0.06489800  0.26588000  1
  C  841  1  0.21143000  0.95752400  0.67919600  1
  C  842  1  0.19994500  0.94458600  0.68836500  1
  C  843  1  0.19251400  0.92923600  0.67894900  1
  C  844  1  0.19653300  0.92616800  0.66002700  1
  C  845  1  0.20783800  0.93918400  0.65076900  1
  C  846  1  0.21513800  0.95459300  0.66017800  1
  C  847  1  0.18927600  0.91125800  0.65021200  1
  C  848  1  0.18852200  0.89380400  0.65664300  1
  C  849  1  0.18184600  0.87917200  0.64622200  1
  C  850  1  0.19189100  0.87254000  0.63081600  1
  C  851  1  0.18544600  0.85724900  0.62049400  1
  C  852  1  0.16883400  0.84843200  0.62588200  1
  C  853  1  0.15854300  0.85480400  0.64126700  1
  C  854  1  0.16536400  0.87007500  0.65148200  1
  C  855  1  0.14263000  0.84538500  0.64661100  1
  C  856  1  0.12654900  0.85375500  0.65082500  1
  C  857  1  0.11089900  0.84424500  0.65646900  1
  C  858  1  0.10327300  0.84775900  0.67411200  1
  C  859  1  0.10183600  0.83158700  0.64464200  1
  C  860  1  0.08546100  0.82272300  0.65036700  1
  C  861  1  0.07760800  0.82630700  0.66795200  1
  C  862  1  0.08696000  0.83879700  0.67981700  1
  C  863  1  0.19601600  0.85042100  0.60603800  1
  C  864  1  0.19020400  0.85012900  0.58835700  1
  C  865  1  0.20067200  0.84324000  0.57374100  1
  C  866  1  0.21952100  0.84797800  0.57135300  1
  C  867  1  0.19227400  0.83164400  0.56041000  1
  C  868  1  0.20250200  0.82469100  0.54535900  1
  C  869  1  0.22146400  0.82911000  0.54313200  1
  C  870  1  0.22974000  0.84093000  0.55635800  1
  C  892  1  0.23301000  0.82228500  0.52743600  1
  C  895  1  0.05984600  0.81702500  0.67297200  1
  C  898  1  0.21875600  0.97362200  0.68989000  1
  C  901  1  0.82700100  0.07925800  0.68040100  1
  C  902  1  0.83906300  0.09169700  0.68951800  1
  C  903  1  0.84679300  0.10694000  0.68017000  1
  C  904  1  0.84249500  0.11042000  0.66137900  1
  C  905  1  0.83061400  0.09789300  0.65216900  1
  C  906  1  0.82303000  0.08257400  0.66150000  1
  C  907  1  0.84990100  0.12533000  0.65166400  1
  C  908  1  0.85128200  0.14262600  0.65841500  1
  C  909  1  0.85784500  0.15740100  0.64810400  1
  C  910  1  0.84785100  0.16392100  0.63259300  1
  C  911  1  0.85403100  0.17949500  0.62254700  1
  C  912  1  0.87021400  0.18880000  0.62834800  1
  C  913  1  0.88038200  0.18254700  0.64383700  1
  C  914  1  0.87399000  0.16690700  0.65372400  1
  C  915  1  0.89583800  0.19237600  0.64954500  1
  C  916  1  0.91284000  0.18490500  0.65070000  1
  C  917  1  0.92852000  0.19511900  0.65500000  1
  C  918  1  0.92972300  0.20565900  0.67145400  1
  C  919  1  0.94386900  0.19485500  0.64288200  1
  C  920  1  0.95995100  0.20501400  0.64702000  1
  C  921  1  0.96116100  0.21564400  0.66340500  1
  C  922  1  0.94580000  0.21587600  0.67552700  1
  C  923  1  0.84366100  0.18625900  0.60794500  1
  C  924  1  0.84950200  0.18574200  0.59027800  1
  C  925  1  0.83976000  0.19333600  0.57550800  1
  C  926  1  0.82047300  0.19077200  0.57328800  1
  C  927  1  0.84933200  0.20374100  0.56198200  1
  C  928  1  0.83985600  0.21171300  0.54695500  1
  C  929  1  0.82047800  0.20959300  0.54496500  1
  C  930  1  0.81100800  0.19886500  0.55832200  1
  C  952  1  0.80962700  0.21792700  0.52950100  1
  C  955  1  0.97816200  0.22636400  0.66792600  1
  C  958  1  0.81937400  0.06325200  0.69102200  1
  C  961  1  0.71900600  0.83162000  0.04334700  1
  C  962  1  0.72727900  0.84341500  0.05659800  1
  C  963  1  0.71722000  0.84995200  0.07192900  1
  C  964  1  0.69853300  0.84475300  0.07457800  1
  C  965  1  0.69009600  0.83327000  0.06117800  1
  C  966  1  0.70017600  0.82679400  0.04582200  1
  C  967  1  0.68822800  0.85114700  0.08950400  1
  C  968  1  0.69423900  0.85091500  0.10711800  1
  C  969  1  0.68371800  0.85740000  0.12174300  1
  C  970  1  0.66767300  0.84787700  0.12755100  1
  C  971  1  0.65704800  0.85439300  0.14261700  1
  C  972  1  0.66279900  0.87058800  0.15200100  1
  C  973  1  0.67877900  0.88039000  0.14638100  1
  C  974  1  0.68928900  0.87345300  0.13137600  1
  C  975  1  0.68421700  0.89615800  0.15597500  1
  C  976  1  0.68886900  0.91214000  0.14764900  1
  C  977  1  0.69475600  0.92770600  0.15713400  1
  C  978  1  0.71243500  0.93515000  0.15341800  1
  C  979  1  0.68308600  0.93699900  0.16977300  1
  C  980  1  0.68899100  0.95343600  0.17839800  1
  C  981  1  0.70659500  0.96112800  0.17456800  1
  C  982  1  0.71832100  0.95152500  0.16213800  1
  C  983  1  0.64158900  0.84450300  0.14824000  1
  C  984  1  0.62456900  0.85192900  0.14946100  1
  C  985  1  0.60890400  0.84176100  0.15393000  1
  C  986  1  0.59317500  0.84262300  0.14233700  1
  C  987  1  0.60804400  0.83077700  0.17011600  1
  C  988  1  0.59194800  0.82069200  0.17441000  1
  C  989  1  0.57621800  0.82151500  0.16280400  1
  C  990  1  0.57706700  0.83260100  0.14670300  1
  C  1012  1  0.55920500  0.81095700  0.16760400  1
  C  1015  1  0.71177700  0.97901300  0.18351300  1
  C  1018  1  0.73046300  0.82508100  0.02746700  1
  C  1021  1  0.71995900  0.20692300  0.91721700  1
  C  1022  1  0.72852000  0.19560600  0.90373300  1
  C  1023  1  0.71852700  0.18884900  0.88845700  1
  C  1024  1  0.69962000  0.19335600  0.88610900  1
  C  1025  1  0.69091200  0.20436300  0.89973000  1
  C  1026  1  0.70092900  0.21105100  0.91503300  1
  C  1027  1  0.68939800  0.18675900  0.87122600  1
  C  1028  1  0.69514000  0.18762900  0.85354500  1
  C  1029  1  0.68473500  0.18093200  0.83894800  1
  C  1030  1  0.66834200  0.18997900  0.83333900  1
  C  1031  1  0.65782000  0.18327100  0.81827600  1
  C  1032  1  0.66412700  0.16739700  0.80867800  1
  C  1033  1  0.68039200  0.15801800  0.81416900  1
  C  1034  1  0.69074600  0.16511500  0.82919200  1
  C  1035  1  0.68608000  0.14236400  0.80456200  1
  C  1036  1  0.69047700  0.12632200  0.81290100  1
  C  1037  1  0.69618400  0.11070300  0.80341100  1
  C  1038  1  0.71380300  0.10308800  0.80704700  1
  C  1039  1  0.68432400  0.10149500  0.79089100  1
  C  1040  1  0.68999100  0.08496300  0.78228800  1
  C  1041  1  0.70753200  0.07709400  0.78603700  1
  C  1042  1  0.71944600  0.08661500  0.79835100  1
  C  1043  1  0.64197300  0.19269300  0.81282800  1
  C  1044  1  0.62564200  0.18437100  0.80964700  1
  C  1045  1  0.61004600  0.19385500  0.80391700  1
  C  1046  1  0.60100900  0.20657600  0.81568800  1
  C  1047  1  0.60251300  0.19030800  0.78625200  1
  C  1048  1  0.58626800  0.19932600  0.78045600  1
  C  1049  1  0.57692500  0.21188700  0.79225700  1
  C  1050  1  0.58469500  0.21548100  0.80987400  1
  C  1072  1  0.55925400  0.22125500  0.78712000  1
  C  1075  1  0.71245100  0.05911500  0.77714100  1
  C  1078  1  0.73133900  0.21369000  0.93304500  1
  C  1081  1  0.31914900  0.21123700  0.04170900  1
  C  1082  1  0.31027800  0.19898400  0.05414100  1
  C  1083  1  0.31980000  0.19138000  0.06934200  1
  C  1084  1  0.33852200  0.19599300  0.07276700  1
  C  1085  1  0.34748600  0.20808600  0.06026700  1
  C  1086  1  0.33798000  0.21555300  0.04500000  1
  C  1087  1  0.34842300  0.18864800  0.08757300  1
  C  1088  1  0.34187400  0.18729700  0.10495400  1
  C  1089  1  0.35236500  0.18076400  0.11962700  1
  C  1090  1  0.36837900  0.19035200  0.12549500  1
  C  1091  1  0.37881300  0.18411200  0.14081100  1
  C  1092  1  0.37280400  0.16822400  0.15052400  1
  C  1093  1  0.35683300  0.15843000  0.14491200  1
  C  1094  1  0.34661200  0.16491800  0.12953000  1
  C  1095  1  0.35115000  0.14305400  0.15487900  1
  C  1096  1  0.34971400  0.12607800  0.14740000  1
  C  1097  1  0.34528300  0.11044000  0.15759600  1
  C  1098  1  0.32852000  0.10914200  0.16761800  1
  C  1099  1  0.35748400  0.09516100  0.15766700  1
  C  1100  1  0.35310800  0.07902800  0.16764300  1
  C  1101  1  0.33638700  0.07769000  0.17772200  1
  C  1102  1  0.32419900  0.09300200  0.17763900  1
  C  1103  1  0.39427300  0.19400200  0.14645100  1
  C  1104  1  0.41121000  0.18645200  0.14804200  1
  C  1105  1  0.42686500  0.19653700  0.15268800  1
  C  1106  1  0.44257500  0.19594000  0.14105700  1
  C  1107  1  0.42775500  0.20709700  0.16914800  1
  C  1108  1  0.44388100  0.21703200  0.17368900  1
  C  1109  1  0.45959700  0.21648900  0.16204300  1
  C  1110  1  0.45870100  0.20582800  0.14565800  1
  C  1132  1  0.47663200  0.22692800  0.16705000  1
  C  1135  1  0.33160000  0.06060000  0.18818600  1
  C  1138  1  0.30838500  0.21866600  0.02570400  1
  C  1141  1  0.31842200  0.83078900  0.91656400  1
  C  1142  1  0.30994800  0.84220800  0.90310900  1
  C  1143  1  0.31999500  0.84895000  0.88786000  1
  C  1144  1  0.33887000  0.84431800  0.88548800  1
  C  1145  1  0.34748000  0.83318000  0.89906900  1
  C  1146  1  0.33741700  0.82651700  0.91435400  1
  C  1147  1  0.34917800  0.85092600  0.87065700  1
  C  1148  1  0.34337300  0.85052500  0.85297600  1
  C  1149  1  0.35396400  0.85712700  0.83846200  1
  C  1150  1  0.37011600  0.84771300  0.83277800  1
  C  1151  1  0.38083300  0.85433300  0.81782400  1
  C  1152  1  0.37506300  0.87050800  0.80842100  1
  C  1153  1  0.35897300  0.88019700  0.81392100  1
  C  1154  1  0.34837700  0.87317200  0.82882400  1
  C  1155  1  0.35350700  0.89592600  0.80429000  1
  C  1156  1  0.34875100  0.91189500  0.81258100  1
  C  1157  1  0.34279500  0.92739700  0.80303400  1
  C  1158  1  0.32502200  0.93468600  0.80660900  1
  C  1159  1  0.35445300  0.93673600  0.79042000  1
  C  1160  1  0.34843700  0.95306500  0.78166900  1
  C  1161  1  0.33073300  0.96060100  0.78534700  1
  C  1162  1  0.31903100  0.95095700  0.79776700  1
  C  1163  1  0.39638900  0.84454400  0.81230400  1
  C  1164  1  0.41338600  0.85205700  0.81134400  1
  C  1165  1  0.42914700  0.84198600  0.80699700  1
  C  1166  1  0.44473300  0.84284000  0.81878000  1
  C  1167  1  0.43023700  0.83110700  0.79075700  1
  C  1168  1  0.44642300  0.82111300  0.78658700  1
  C  1169  1  0.46201700  0.82194100  0.79837400  1
  C  1170  1  0.46093500  0.83291800  0.81453500  1
  C  1192  1  0.47913900  0.81151200  0.79368500  1
  C  1195  1  0.32543100  0.97838500  0.77627400  1
  C  1198  1  0.30699800  0.82408600  0.93239300  1
  C  1201  1  0.95648600  0.72238500  0.16917600  1
  C  1202  1  0.94344900  0.73093200  0.15733500  1
  C  1203  1  0.92823000  0.72104000  0.15028900  1
  C  1204  1  0.92542200  0.70225500  0.15504800  1
  C  1205  1  0.93854900  0.69360400  0.16670000  1
  C  1206  1  0.95382000  0.70349700  0.17364500  1
  C  1207  1  0.91065600  0.69201800  0.14811700  1
  C  1208  1  0.89312100  0.69821200  0.14723100  1
  C  1209  1  0.87864100  0.68754900  0.14062300  1
  C  1210  1  0.87243200  0.67191700  0.15058900  1
  C  1211  1  0.85730900  0.66136600  0.14415300  1
  C  1212  1  0.84822400  0.66672200  0.12768800  1
  C  1213  1  0.85414000  0.68235100  0.11749400  1
  C  1214  1  0.86927000  0.69279800  0.12428200  1
  C  1215  1  0.84440500  0.68755100  0.10171100  1
  C  1216  1  0.85240100  0.69261600  0.08568600  1
  C  1217  1  0.84239000  0.69735000  0.07004900  1
  C  1218  1  0.84379500  0.71535500  0.06259500  1
  C  1219  1  0.83129200  0.68416700  0.06081900  1
  C  1220  1  0.82187700  0.68892500  0.04445300  1
  C  1221  1  0.82334200  0.70688000  0.03676600  1
  C  1222  1  0.83426900  0.72008700  0.04627300  1
  C  1223  1  0.85071400  0.64673800  0.15458000  1
  C  1224  1  0.85185400  0.62900600  0.14905700  1
  C  1225  1  0.84441700  0.61425600  0.15892800  1
  C  1226  1  0.84694200  0.61231400  0.17825000  1
  C  1227  1  0.83412700  0.60055600  0.14949400  1
  C  1228  1  0.82618400  0.58563000  0.15914900  1
  C  1229  1  0.82822800  0.58393100  0.17856500  1
  C  1230  1  0.83888700  0.59744200  0.18788900  1
  C  1252  1  0.81986100  0.56862500  0.18960600  1
  C  1255  1  0.81366700  0.71076700  0.01893300  1
  C  1258  1  0.97244500  0.73356900  0.17599500  1
  C  1261  1  0.07979100  0.71906600  0.78829700  1
  C  1262  1  0.09213200  0.72798100  0.80060800  1
  C  1263  1  0.10701400  0.71836800  0.80871300  1
  C  1264  1  0.11023200  0.69950400  0.80454700  1
  C  1265  1  0.09784900  0.69052500  0.79234000  1
  C  1266  1  0.08288600  0.70011700  0.78438500  1
  C  1267  1  0.12459800  0.68943100  0.81253300  1
  C  1268  1  0.14194800  0.69577000  0.81485800  1
  C  1269  1  0.15598500  0.68496000  0.82214100  1
  C  1270  1  0.16370700  0.67037900  0.81163000  1
  C  1271  1  0.17799200  0.65924000  0.81897300  1
  C  1272  1  0.18476900  0.66302000  0.83692700  1
  C  1273  1  0.17746900  0.67777100  0.84747400  1
  C  1274  1  0.16304700  0.68867000  0.83999400  1
  C  1275  1  0.18430000  0.68112800  0.86504300  1
  C  1276  1  0.19483900  0.69591500  0.86912100  1
  C  1277  1  0.20217000  0.69934800  0.88657400  1
  C  1278  1  0.20071800  0.71721700  0.89439100  1
  C  1279  1  0.21184800  0.68558500  0.89658300  1
  C  1280  1  0.21936100  0.68947700  0.91412000  1
  C  1281  1  0.21757500  0.70722200  0.92219400  1
  C  1282  1  0.20827000  0.72108000  0.91193000  1
  C  1283  1  0.18574900  0.64535600  0.80829400  1
  C  1284  1  0.18463800  0.62731600  0.81273200  1
  C  1285  1  0.19290800  0.61322300  0.80256800  1
  C  1286  1  0.19144500  0.61219000  0.78306700  1
  C  1287  1  0.20272900  0.59911200  0.81189300  1
  C  1288  1  0.21117700  0.58462300  0.80200600  1
  C  1289  1  0.21008900  0.58375300  0.78245700  1
  C  1290  1  0.19997700  0.59772700  0.77320300  1
  C  1312  1  0.21876800  0.56874500  0.77124400  1
  C  1315  1  0.22560800  0.71037200  0.94095900  1
  C  1318  1  0.06405000  0.72990100  0.78041800  1
  C  1321  1  0.95792500  0.31590500  0.79094600  1
  C  1322  1  0.94491200  0.30758500  0.80297500  1
  C  1323  1  0.93007800  0.31778900  0.81039400  1
  C  1324  1  0.92762400  0.33667300  0.80582900  1
  C  1325  1  0.94068700  0.34506900  0.79391800  1
  C  1326  1  0.95558000  0.33486600  0.78660500  1
  C  1327  1  0.91337400  0.34727600  0.81328700  1
  C  1328  1  0.89574700  0.34152900  0.81494100  1
  C  1329  1  0.88191700  0.35262700  0.82214800  1
  C  1330  1  0.87449600  0.36733600  0.81161000  1
  C  1331  1  0.86036300  0.37869600  0.81890800  1
  C  1332  1  0.85344800  0.37502000  0.83683300  1
  C  1333  1  0.86046900  0.36015400  0.84740400  1
  C  1334  1  0.87473900  0.34903000  0.83997500  1
  C  1335  1  0.85347400  0.35684200  0.86491800  1
  C  1336  1  0.84296100  0.34202300  0.86894600  1
  C  1337  1  0.83554000  0.33858200  0.88635400  1
  C  1338  1  0.83699900  0.32071800  0.89418200  1
  C  1339  1  0.82580200  0.35233200  0.89632000  1
  C  1340  1  0.81824500  0.34843800  0.91383500  1
  C  1341  1  0.82005000  0.33070400  0.92192700  1
  C  1342  1  0.82940100  0.31685200  0.91169900  1
  C  1343  1  0.85280600  0.39266000  0.80819500  1
  C  1344  1  0.85406700  0.41068500  0.81265300  1
  C  1345  1  0.84583800  0.42482700  0.80253100  1
  C  1346  1  0.84721800  0.42585500  0.78302600  1
  C  1347  1  0.83604700  0.43893100  0.81190200  1
  C  1348  1  0.82753400  0.45340100  0.80204600  1
  C  1349  1  0.82851100  0.45424700  0.78249100  1
  C  1350  1  0.83861600  0.44029400  0.77319500  1
  C  1372  1  0.81969500  0.46918700  0.77130300  1
  C  1375  1  0.81201600  0.32757000  0.94069300  1
  C  1378  1  0.97358800  0.30444900  0.78388200  1
  C  1381  1  0.07918300  0.31922600  0.17284400  1
  C  1382  1  0.09140400  0.31057100  0.16022900  1
  C  1383  1  0.10630600  0.32030900  0.15232000  1
  C  1384  1  0.10965700  0.33902800  0.15700100  1
  C  1385  1  0.09740100  0.34775500  0.16951100  1
  C  1386  1  0.08242000  0.33803900  0.17727100  1
  C  1387  1  0.12403800  0.34919800  0.14920900  1
  C  1388  1  0.14139700  0.34286400  0.14696700  1
  C  1389  1  0.15545100  0.35365200  0.13970800  1
  C  1390  1  0.16317600  0.36825200  0.15017900  1
  C  1391  1  0.17754200  0.37928500  0.14284000  1
  C  1392  1  0.18439600  0.37539200  0.12493800  1
  C  1393  1  0.17709300  0.36061300  0.11444100  1
  C  1394  1  0.16257700  0.34983000  0.12191100  1
  C  1395  1  0.18408300  0.35699600  0.09698500  1
  C  1396  1  0.19362800  0.34153200  0.09297900  1
  C  1397  1  0.20057400  0.33752600  0.07552100  1
  C  1398  1  0.19712800  0.32000700  0.06756200  1
  C  1399  1  0.21161300  0.35028400  0.06559800  1
  C  1400  1  0.21860100  0.34576100  0.04799100  1
  C  1401  1  0.21482800  0.32840200  0.03976400  1
  C  1402  1  0.20411500  0.31553600  0.04995000  1
  C  1403  1  0.18536100  0.39313300  0.15350100  1
  C  1404  1  0.18432500  0.41117000  0.14903900  1
  C  1405  1  0.19271500  0.42520000  0.15917700  1
  C  1406  1  0.19126700  0.42625700  0.17867500  1
  C  1407  1  0.20271300  0.43917200  0.14983200  1
  C  1408  1  0.21135300  0.45354900  0.15971200  1
  C  1409  1  0.21029100  0.45442900  0.17926100  1
  C  1410  1  0.19999500  0.44060000  0.18852900  1
  C  1432  1  0.21917100  0.46931400  0.19047100  1
  C  1435  1  0.22244800  0.32444100  0.02098600  1
  C  1438  1  0.06339700  0.30828900  0.18047400  1
  C  1441  1  0.32655600  0.71897200  0.41908300  1
  C  1442  1  0.33737900  0.72850600  0.40584200  1
  C  1443  1  0.34512500  0.71922300  0.39056400  1
  C  1444  1  0.34211700  0.70005700  0.38790300  1
  C  1445  1  0.33146700  0.69045300  0.40121700  1
  C  1446  1  0.32383600  0.69973700  0.41653800  1
  C  1447  1  0.34973500  0.69034400  0.37310800  1
  C  1448  1  0.35002200  0.69644500  0.35552100  1
  C  1449  1  0.35688700  0.68593100  0.34105000  1
  C  1450  1  0.34717200  0.67015700  0.33481300  1
  C  1451  1  0.35388000  0.65955400  0.31983400  1
  C  1452  1  0.37040500  0.66502800  0.31091100  1
  C  1453  1  0.38036100  0.68078000  0.31689700  1
  C  1454  1  0.37329800  0.69127000  0.33187200  1
  C  1455  1  0.39628800  0.68607300  0.30748300  1
  C  1456  1  0.41230800  0.69041700  0.31589700  1
  C  1457  1  0.42806500  0.69581700  0.30641300  1
  C  1458  1  0.43590000  0.71337700  0.30986200  1
  C  1459  1  0.43706400  0.68379000  0.29389200  1
  C  1460  1  0.45356300  0.68924400  0.28508600  1
  C  1461  1  0.46161200  0.70675100  0.28859600  1
  C  1462  1  0.45233700  0.71881300  0.30095800  1
  C  1463  1  0.34369900  0.64461500  0.31350400  1
  C  1464  1  0.34991700  0.62708100  0.31397400  1
  C  1465  1  0.33975600  0.61202800  0.30764800  1
  C  1466  1  0.32113000  0.60918700  0.31297100  1
  C  1467  1  0.34820400  0.59882100  0.29595600  1
  C  1468  1  0.33816800  0.58348700  0.28935800  1
  C  1469  1  0.31937600  0.58085800  0.29426000  1
  C  1470  1  0.31111500  0.59388700  0.30630800  1
  C  1492  1  0.30792800  0.56506200  0.28751800  1
  C  1495  1  0.47945600  0.71151200  0.27933100  1
  C  1498  1  0.31888400  0.72952300  0.43511100  1
  C  1501  1  0.70609600  0.71923800  0.54206800  1
  C  1502  1  0.69411500  0.72748300  0.55517200  1
  C  1503  1  0.68747900  0.71743300  0.57046800  1
  C  1504  1  0.69276100  0.69878400  0.57322200  1
  C  1505  1  0.70441800  0.69037000  0.55995900  1
  C  1506  1  0.71098700  0.70043800  0.54463600  1
  C  1507  1  0.68634300  0.68850000  0.58815100  1
  C  1508  1  0.68646800  0.69457800  0.60574200  1
  C  1509  1  0.68007800  0.68403700  0.62038600  1
  C  1510  1  0.68999300  0.66834600  0.62649500  1
  C  1511  1  0.68362900  0.65781400  0.64167800  1
  C  1512  1  0.66724300  0.66324600  0.65088800  1
  C  1513  1  0.65708600  0.67890000  0.64499400  1
  C  1514  1  0.66383200  0.68934900  0.62985400  1
  C  1515  1  0.64128400  0.68421500  0.65459800  1
  C  1516  1  0.62520800  0.68862400  0.64632100  1
  C  1517  1  0.60967800  0.69446800  0.65588900  1
  C  1518  1  0.60220400  0.71215100  0.65226800  1
  C  1519  1  0.60053700  0.68279500  0.66863000  1
  C  1520  1  0.58421700  0.68870900  0.67746800  1
  C  1521  1  0.57650100  0.70632700  0.67376200  1
  C  1522  1  0.58594300  0.71804300  0.66120100  1
  C  1523  1  0.69400200  0.64297800  0.64792300  1
  C  1524  1  0.68794700  0.62538900  0.64743500  1
  C  1525  1  0.69823500  0.61042000  0.65375600  1
  C  1526  1  0.71691500  0.60777500  0.64851900  1
  C  1527  1  0.68986200  0.59710100  0.66537400  1
  C  1528  1  0.70001300  0.58184600  0.67197500  1
  C  1529  1  0.71885300  0.57941100  0.66716000  1
  C  1530  1  0.72704700  0.59255400  0.65519000  1
  C  1552  1  0.73041700  0.56370500  0.67392000  1
  C  1555  1  0.55878200  0.71154800  0.68300000  1
  C  1558  1  0.71277900  0.73069300  0.52624900  1
  C  1561  1  0.70599800  0.31859000  0.41844400  1
  C  1562  1  0.69394400  0.31031800  0.40542600  1
  C  1563  1  0.68725800  0.32032100  0.39012000  1
  C  1564  1  0.69256300  0.33894500  0.38725400  1
  C  1565  1  0.70430800  0.34738000  0.40042700  1
  C  1566  1  0.71092800  0.33736200  0.41576300  1
  C  1567  1  0.68607400  0.34920300  0.37232400  1
  C  1568  1  0.68588200  0.34302000  0.35476800  1
  C  1569  1  0.67946500  0.35355500  0.34012200  1
  C  1570  1  0.68938600  0.36922900  0.33397000  1
  C  1571  1  0.68303400  0.37972600  0.31875700  1
  C  1572  1  0.66666667  0.37427400  0.30955400  1
  C  1573  1  0.65648800  0.35862900  0.31547300  1
  C  1574  1  0.66323200  0.34822000  0.33064500  1
  C  1575  1  0.64071000  0.35327600  0.30583800  1
  C  1576  1  0.62465100  0.34871000  0.31406700  1
  C  1577  1  0.60913200  0.34288300  0.30446100  1
  C  1578  1  0.60164500  0.32519500  0.30803700  1
  C  1579  1  0.59997300  0.35459600  0.29176500  1
  C  1580  1  0.58362400  0.34872500  0.28294900  1
  C  1581  1  0.57588800  0.33111000  0.28662800  1
  C  1582  1  0.58535800  0.31934400  0.29912400  1
  C  1583  1  0.69343400  0.39452700  0.31247000  1
  C  1584  1  0.68742500  0.41213300  0.31290300  1
  C  1585  1  0.69777800  0.42707000  0.30660300  1
  C  1586  1  0.71645000  0.42965800  0.31189100  1
  C  1587  1  0.68947100  0.44043100  0.29498100  1
  C  1588  1  0.69968000  0.45567300  0.28843600  1
  C  1589  1  0.71850800  0.45805800  0.29331500  1
  C  1590  1  0.72663700  0.44486700  0.30527600  1
  C  1612  1  0.73012400  0.47376300  0.28664300  1
  C  1615  1  0.55810900  0.32595500  0.27745400  1
  C  1618  1  0.71270900  0.30719000  0.43429600  1
  C  1621  1  0.32898700  0.31989600  0.54335800  1
  C  1622  1  0.33943000  0.31012900  0.55672700  1
  C  1623  1  0.34768600  0.31934800  0.57175900  1
  C  1624  1  0.34559500  0.33868600  0.57400200  1
  C  1625  1  0.33548500  0.34854800  0.56046300  1
  C  1626  1  0.32734000  0.33931400  0.54538400  1
  C  1627  1  0.35329500  0.34821100  0.58884700  1
  C  1628  1  0.35238500  0.34241200  0.60650900  1
  C  1629  1  0.35893900  0.35284700  0.62113600  1
  C  1630  1  0.34892800  0.36845900  0.62730400  1
  C  1631  1  0.35513900  0.37888200  0.64261500  1
  C  1632  1  0.37139600  0.37335200  0.65197400  1
  C  1633  1  0.38158800  0.35775500  0.64601500  1
  C  1634  1  0.37514200  0.34747500  0.63065000  1
  C  1635  1  0.39720000  0.35234800  0.65576400  1
  C  1636  1  0.41401200  0.35067900  0.64797000  1
  C  1637  1  0.42981400  0.34629800  0.65793200  1
  C  1638  1  0.43096900  0.32993300  0.66860400  1
  C  1639  1  0.44536600  0.35812300  0.65713700  1
  C  1640  1  0.46162400  0.35378200  0.66692500  1
  C  1641  1  0.46279700  0.33747600  0.67767700  1
  C  1642  1  0.44722400  0.32565500  0.67844300  1
  C  1643  1  0.34473800  0.39369500  0.64883900  1
  C  1644  1  0.35075800  0.41129200  0.64826700  1
  C  1645  1  0.34041000  0.42624600  0.65449800  1
  C  1646  1  0.32178600  0.42887600  0.64906600  1
  C  1647  1  0.34865000  0.43954300  0.66623300  1
  C  1648  1  0.33840400  0.45475900  0.67277400  1
  C  1649  1  0.31960900  0.45717300  0.66777300  1
  C  1650  1  0.31156300  0.44406200  0.65567300  1
  C  1672  1  0.30795100  0.47283900  0.67445800  1
  C  1675  1  0.47999300  0.33268000  0.68794000  1
  C  1678  1  0.32041700  0.30931100  0.52784600  1
  C  1681  1  0.45498800  0.72111800  0.67136900  1
  C  1682  1  0.44156900  0.72930000  0.65969600  1
  C  1683  1  0.42648200  0.71902100  0.65292700  1
  C  1684  1  0.42418700  0.70019200  0.65779600  1
  C  1685  1  0.43770000  0.69190000  0.66926500  1
  C  1686  1  0.45283600  0.70218700  0.67594300  1
  C  1687  1  0.40954600  0.68960700  0.65110700  1
  C  1688  1  0.39185200  0.69537800  0.65064800  1
  C  1689  1  0.37746500  0.68457900  0.64403900  1
  C  1690  1  0.37169600  0.66855200  0.65365500  1
  C  1691  1  0.35653400  0.65793100  0.64732900  1
  C  1692  1  0.34693600  0.66377000  0.63128900  1
  C  1693  1  0.35250700  0.67971400  0.62142600  1
  C  1694  1  0.36769500  0.69012900  0.62804300  1
  C  1695  1  0.34262900  0.68529300  0.60593700  1
  C  1696  1  0.35036500  0.68737100  0.58914200  1
  C  1697  1  0.34032900  0.69199500  0.57347100  1
  C  1698  1  0.33067700  0.70896700  0.57217300  1
  C  1699  1  0.34012000  0.67984700  0.55815700  1
  C  1700  1  0.33034200  0.68448500  0.54197400  1
  C  1701  1  0.32062400  0.70141800  0.54062100  1
  C  1702  1  0.32085800  0.71355000  0.55597800  1
  C  1703  1  0.35080900  0.64255300  0.65733900  1
  C  1704  1  0.34867700  0.62564800  0.64984900  1
  C  1705  1  0.34362200  0.61012600  0.65995500  1
  C  1706  1  0.35475900  0.59407100  0.65925300  1
  C  1707  1  0.32705400  0.60961200  0.67037700  1
  C  1708  1  0.32187800  0.59347700  0.67999800  1
  C  1709  1  0.33305200  0.57743100  0.67938500  1
  C  1710  1  0.34958400  0.57798300  0.66891700  1
  C  1732  1  0.32725300  0.56028100  0.68924100  1
  C  1735  1  0.31032800  0.70644600  0.52349400  1
  C  1738  1  0.47080800  0.73270200  0.67785900  1
  C  1741  1  0.58364700  0.72094600  0.29066300  1
  C  1742  1  0.59692600  0.72934300  0.30234200  1
  C  1743  1  0.61216700  0.71930800  0.30914300  1
  C  1744  1  0.61478700  0.70051800  0.30428500  1
  C  1745  1  0.60141700  0.69201600  0.29279500  1
  C  1746  1  0.58611300  0.70205100  0.28610200  1
  C  1747  1  0.62959000  0.69015500  0.31100600  1
  C  1748  1  0.64716600  0.69625800  0.31176700  1
  C  1749  1  0.66171900  0.68564900  0.31836300  1
  C  1750  1  0.66761300  0.66963100  0.30880800  1
  C  1751  1  0.68294300  0.65921700  0.31508300  1
  C  1752  1  0.69257200  0.66524700  0.33103500  1
  C  1753  1  0.68690100  0.68119600  0.34085300  1
  C  1754  1  0.67155600  0.69140200  0.33424900  1
  C  1755  1  0.69685800  0.68701100  0.35623400  1
  C  1756  1  0.68915600  0.68975000  0.37295700  1
  C  1757  1  0.69916400  0.69476400  0.38855500  1
  C  1758  1  0.70963600  0.71129200  0.38914400  1
  C  1759  1  0.69826500  0.68365900  0.40462300  1
  C  1760  1  0.70778100  0.68883100  0.42080300  1
  C  1761  1  0.71828000  0.70533800  0.42145000  1
  C  1762  1  0.71909200  0.71647500  0.40538100  1
  C  1763  1  0.68875700  0.64386200  0.30508100  1
  C  1764  1  0.69093600  0.62695800  0.31256100  1
  C  1765  1  0.69581000  0.61140500  0.30239700  1
  C  1766  1  0.68457700  0.59541900  0.30320300  1
  C  1767  1  0.71221700  0.61080700  0.29172800  1
  C  1768  1  0.71714400  0.59466600  0.28197900  1
  C  1769  1  0.70586600  0.57869400  0.28269000  1
  C  1770  1  0.68949800  0.57932800  0.29340900  1
  C  1792  1  0.71136000  0.56155000  0.27263700  1
  C  1795  1  0.72800300  0.71110900  0.43869700  1
  C  1798  1  0.56766000  0.73228800  0.28414100  1
  C  1801  1  0.45409300  0.31648600  0.28987600  1
  C  1802  1  0.44070500  0.30819400  0.30150800  1
  C  1803  1  0.42554200  0.31836300  0.30828500  1
  C  1804  1  0.42314400  0.33719200  0.30346800  1
  C  1805  1  0.43661900  0.34558900  0.29202800  1
  C  1806  1  0.45182600  0.33541200  0.28534000  1
  C  1807  1  0.40849200  0.34771100  0.31024000  1
  C  1808  1  0.39081200  0.34190100  0.31083700  1
  C  1809  1  0.37648200  0.35272200  0.31755900  1
  C  1810  1  0.37075500  0.36881100  0.30804000  1
  C  1811  1  0.35584300  0.37961900  0.31461900  1
  C  1812  1  0.34652500  0.37396000  0.33088800  1
  C  1813  1  0.35200300  0.35793100  0.34071200  1
  C  1814  1  0.36687800  0.34727900  0.33369200  1
  C  1815  1  0.34224500  0.35265100  0.35647600  1
  C  1816  1  0.35025600  0.34702500  0.37231500  1
  C  1817  1  0.34036700  0.34211400  0.38799300  1
  C  1818  1  0.34202800  0.32408800  0.39535300  1
  C  1819  1  0.32937000  0.35517800  0.39751500  1
  C  1820  1  0.32032500  0.35028800  0.41405500  1
  C  1821  1  0.32206600  0.33231300  0.42164500  1
  C  1822  1  0.33286400  0.31921800  0.41184300  1
  C  1823  1  0.35012700  0.39502700  0.30464300  1
  C  1824  1  0.34833600  0.41199600  0.31207700  1
  C  1825  1  0.34340800  0.42755800  0.30195700  1
  C  1826  1  0.35466400  0.44353000  0.30268600  1
  C  1827  1  0.32688400  0.42820200  0.29147200  1
  C  1828  1  0.32186100  0.44437700  0.28183600  1
  C  1829  1  0.33314600  0.46034500  0.28250200  1
  C  1830  1  0.34964100  0.45966100  0.29301600  1
  C  1852  1  0.32748400  0.47755600  0.27267300  1
  C  1855  1  0.31284500  0.32830800  0.43970200  1
  C  1858  1  0.46999000  0.30501500  0.28336700  1
  C  1861  1  0.58274700  0.31971700  0.67216500  1
  C  1862  1  0.59474200  0.31126300  0.65919900  1
  C  1863  1  0.61003000  0.32083800  0.65183800  1
  C  1864  1  0.61399600  0.33918700  0.65741100  1
  C  1865  1  0.60191400  0.34776200  0.67019300  1
  C  1866  1  0.58655400  0.33820900  0.67742000  1
  C  1867  1  0.62892200  0.34910800  0.65032700  1
  C  1868  1  0.64614500  0.34226400  0.64847900  1
  C  1869  1  0.66097900  0.35258900  0.64199800  1
  C  1870  1  0.66715900  0.36845300  0.65164400  1
  C  1871  1  0.68271900  0.37859300  0.64549900  1
  C  1872  1  0.69233400  0.37242300  0.62959700  1
  C  1873  1  0.68642600  0.35660900  0.61970400  1
  C  1874  1  0.67082800  0.34669200  0.62616300  1
  C  1875  1  0.69638300  0.35066700  0.60436900  1
  C  1876  1  0.68877600  0.34823900  0.58755500  1
  C  1877  1  0.69882100  0.34320500  0.57197600  1
  C  1878  1  0.70921700  0.32662900  0.57136600  1
  C  1879  1  0.69805500  0.35437400  0.55594200  1
  C  1880  1  0.70761000  0.34921200  0.53978000  1
  C  1881  1  0.71802900  0.33265400  0.53911600  1
  C  1882  1  0.71872200  0.32145900  0.55514900  1
  C  1883  1  0.68870100  0.39385600  0.65554400  1
  C  1884  1  0.69105100  0.41075100  0.64809700  1
  C  1885  1  0.69594800  0.42627000  0.65830500  1
  C  1886  1  0.68483700  0.44233500  0.65738800  1
  C  1887  1  0.71224900  0.42675400  0.66914200  1
  C  1888  1  0.71718900  0.44286400  0.67893700  1
  C  1889  1  0.70602900  0.45891300  0.67811600  1
  C  1890  1  0.68976600  0.45839300  0.66723200  1
  C  1912  1  0.71153000  0.47602500  0.68822400  1
  C  1915  1  0.72779700  0.32689600  0.52188600  1
  C  1918  1  0.56666100  0.30889400  0.67934400  1
  C  1921  1  0.80727100  0.99989500  0.69109400  1
  C  1922  1  0.81168600  0.01722700  0.68318700  1
  C  1923  1  0.80289200  0.03354100  0.68927000  1
  C  1924  1  0.78925000  0.03237000  0.70324300  1
  C  1925  1  0.78420900  0.01505300  0.71082000  1
  C  1926  1  0.79346700  0.99895800  0.70484000  1
  C  1936  1  0.22989900  0.03733700  0.69037700  1
  C  1937  1  0.22561600  0.02002900  0.68233900  1
  C  1938  1  0.23453400  0.00373500  0.68829400  1
  C  1939  1  0.24815800  0.00489800  0.70228400  1
  C  1940  1  0.25304600  0.02218500  0.71002000  1
  C  1941  1  0.24368200  0.03826000  0.70414800  1
  C  1951  1  0.80697500  0.03811400  0.26942600  1
  C  1952  1  0.81146700  0.02081200  0.27735900  1
  C  1953  1  0.80272100  0.00445700  0.27133000  1
  C  1954  1  0.78906600  0.00554300  0.25736400  1
  C  1955  1  0.78396600  0.02282200  0.24974200  1
  C  1956  1  0.79315900  0.03896700  0.25568500  1
  C  1966  1  0.22605500  0.00133100  0.26279200  1
  C  1967  1  0.22313500  0.01834700  0.27197900  1
  C  1968  1  0.23156700  0.03472700  0.26561400  1
  C  1969  1  0.24319200  0.03397600  0.24991400  1
  C  1970  1  0.24668100  0.01698700  0.24084700  1
  C  1971  1  0.23793200  0.00079200  0.24731700  1
  C  1981  1  0.00073300  0.73020400  0.76781400  1
  C  1982  1  0.01802300  0.72228700  0.77238300  1
  C  1983  1  0.03442000  0.72834800  0.76373000  1
  C  1984  1  0.03338800  0.74231900  0.75007800  1
  C  1985  1  0.01612200  0.74990300  0.74487700  1
  C  1986  1  0.99993500  0.74394000  0.75399000  1
  C  1996  1  0.03598900  0.73537500  0.18693400  1
  C  1997  1  0.01886400  0.72648600  0.18373000  1
  C  1998  1  0.00245100  0.73315400  0.19187500  1
  C  1999  1  0.00329500  0.74883200  0.20352300  1
  C  2000  1  0.02037800  0.75760300  0.20728600  1
  C  2001  1  0.03660000  0.75085300  0.19880000  1
  C  2011  1  0.03716300  0.30228300  0.77320100  1
  C  2012  1  0.02005000  0.31122600  0.77632000  1
  C  2013  1  0.00366200  0.30464400  0.76806000  1
  C  2014  1  0.00450800  0.28896600  0.75641200  1
  C  2015  1  0.02158400  0.28013600  0.75273000  1
  C  2016  1  0.03778200  0.28682300  0.76131200  1
  C  2026  1  0.00011800  0.30827100  0.19255600  1
  C  2027  1  0.01753600  0.31608000  0.18832300  1
  C  2028  1  0.03374900  0.30974300  0.19711500  1
  C  2029  1  0.03240900  0.29557100  0.21052800  1
  C  2030  1  0.01499700  0.28809900  0.21540200  1
  C  2031  1  0.99899200  0.29434900  0.20616500  1
  C  2041  1  0.73416400  0.81082900  0.96433600  1
  C  2042  1  0.72486200  0.81502600  0.98103500  1
  C  2043  1  0.73125500  0.80809500  0.99810100  1
  C  2044  1  0.74720800  0.79680000  0.99841000  1
  C  2045  1  0.75656200  0.79226700  0.98190700  1
  C  2046  1  0.74995600  0.79936700  0.96490900  1
  C  2056  1  0.73534500  0.22612300  0.99631200  1
  C  2057  1  0.72585300  0.22227900  0.97963700  1
  C  2058  1  0.73172600  0.23003600  0.96274200  1
  C  2059  1  0.74731000  0.24182900  0.96258200  1
  C  2060  1  0.75680800  0.24604600  0.97908300  1
  C  2061  1  0.75072200  0.23814200  0.99591400  1
  C  2071  1  0.30278600  0.81195800  0.99569300  1
  C  2072  1  0.31234400  0.81567500  0.97902600  1
  C  2073  1  0.30650200  0.80784200  0.96215400  1
  C  2074  1  0.29088800  0.79608100  0.96201900  1
  C  2075  1  0.28133400  0.79197600  0.97851600  1
  C  2076  1  0.28738400  0.79997100  0.99531700  1
  C  2086  1  0.30854800  0.22989200  0.96228100  1
  C  2087  1  0.31631200  0.22583500  0.97976300  1
  C  2088  1  0.31005200  0.23491500  0.99585000  1
  C  2089  1  0.29604900  0.24848500  0.99429600  1
  C  2090  1  0.28862900  0.25318500  0.97681100  1
  C  2091  1  0.29478800  0.24364800  0.96094800  1
  C  2101  1  0.00161100  0.80762700  0.26910000  1
  C  2102  1  0.01894100  0.81175800  0.27716200  1
  C  2103  1  0.03512800  0.80255400  0.27137000  1
  C  2104  1  0.03385300  0.78884400  0.25748000  1
  C  2105  1  0.01653300  0.78412900  0.24970900  1
  C  2106  1  0.00055300  0.79373700  0.25544900  1
  C  2116  1  0.03512900  0.22520300  0.26326500  1
  C  2117  1  0.01830100  0.22195800  0.27268600  1
  C  2118  1  0.00167300  0.23007200  0.26652500  1
  C  2119  1  0.00200600  0.24168500  0.25079300  1
  C  2120  1  0.01879500  0.24542100  0.24145900  1
  C  2121  1  0.03523100  0.23699600  0.24772600  1
  C  2131  1  0.03534900  0.81298100  0.69627400  1
  C  2132  1  0.01830800  0.81580900  0.68709600  1
  C  2133  1  0.00196500  0.80731500  0.69348300  1
  C  2134  1  0.00278500  0.79571800  0.70920200  1
  C  2135  1  0.01979300  0.79232800  0.71827300  1
  C  2136  1  0.03594600  0.80114100  0.71177700  1
  C  2146  1  0.00257800  0.23008100  0.69103900  1
  C  2147  1  0.01982400  0.22592300  0.68280700  1
  C  2148  1  0.03609500  0.23505800  0.68847800  1
  C  2149  1  0.03498000  0.24872900  0.70242500  1
  C  2150  1  0.01773400  0.25351600  0.71032600  1
  C  2151  1  0.00167900  0.24395800  0.70471500  1
  C  2161  1  0.73522200  0.00344500  0.18693200  1
  C  2162  1  0.72613000  0.02050400  0.18395000  1
  C  2163  1  0.73263000  0.03689700  0.19225900  1
  C  2164  1  0.74838700  0.03610800  0.20380700  1
  C  2165  1  0.75740000  0.01909200  0.20731000  1
  C  2166  1  0.75079000  0.00288900  0.19868300  1
  C  2176  1  0.73567700  0.03448700  0.77368800  1
  C  2177  1  0.72651400  0.01748300  0.77675100  1
  C  2178  1  0.73294800  0.00102700  0.76851000  1
  C  2179  1  0.74866700  0.00171500  0.75689800  1
  C  2180  1  0.75772300  0.01868700  0.75329400  1
  C  2181  1  0.75120500  0.03494400  0.76188600  1
  C  2191  1  0.30853800  0.03604300  0.19104900  1
  C  2192  1  0.31666900  0.01878600  0.18673200  1
  C  2193  1  0.31086300  0.00245600  0.19568400  1
  C  2194  1  0.29692700  0.00353700  0.20937200  1
  C  2195  1  0.28911900  0.02078200  0.21430500  1
  C  2196  1  0.29484000  0.03688900  0.20490900  1
  C  2206  1  0.30187200  0.00269400  0.77273800  1
  C  2207  1  0.31092200  0.01976000  0.77578700  1
  C  2208  1  0.30436500  0.03617200  0.76756900  1
  C  2209  1  0.28859900  0.03540500  0.75603200  1
  C  2210  1  0.27965600  0.01837500  0.75242200  1
  C  2211  1  0.28632100  0.00214500  0.76096200  1
  C  2221  1  0.80706700  0.73277800  0.99393600  1
  C  2222  1  0.81207700  0.72379700  0.97729500  1
  C  2223  1  0.80298500  0.72790300  0.96055000  1
  C  2224  1  0.78862300  0.74116500  0.96049400  1
  C  2225  1  0.78323200  0.75009500  0.97697600  1
  C  2226  1  0.79257600  0.74584900  0.99364700  1
  C  2236  1  0.23151400  0.73231300  0.96623100  1
  C  2237  1  0.22612300  0.72330600  0.98273700  1
  C  2238  1  0.23484100  0.72740500  0.99969100  1
  C  2239  1  0.24917000  0.74070400  0.00008200  1
  C  2240  1  0.25490800  0.74967900  0.98374400  1
  C  2241  1  0.24598600  0.74538500  0.96686100  1
  C  2251  1  0.80629800  0.30575500  0.96609600  1
  C  2252  1  0.81182700  0.31485000  0.98250500  1
  C  2253  1  0.80325900  0.31083600  0.99955400  1
  C  2254  1  0.78894500  0.29752900  0.00014500  1
  C  2255  1  0.78307000  0.28846900  0.98390600  1
  C  2256  1  0.79184200  0.29267600  0.96692100  1
  C  2266  1  0.22567300  0.30139700  0.99613800  1
  C  2267  1  0.22264900  0.31082100  0.97927200  1
  C  2268  1  0.23098400  0.30466700  0.96274800  1
  C  2269  1  0.24257100  0.28891700  0.96322400  1
  C  2270  1  0.24608000  0.27957500  0.98005900  1
  C  2271  1  0.23745400  0.28585200  0.99638700  1
  C  2281  1  0.50392800  0.73478600  0.27495300  1
  C  2282  1  0.52106000  0.72573500  0.27763600  1
  C  2283  1  0.53727100  0.73219500  0.26893200  1
  C  2284  1  0.53619600  0.74783600  0.25723700  1
  C  2285  1  0.51908500  0.75678100  0.25401100  1
  C  2286  1  0.50309000  0.75022800  0.26305900  1
  C  2296  1  0.53459400  0.73515400  0.68693400  1
  C  2297  1  0.51741500  0.72617400  0.68434700  1
  C  2298  1  0.50124600  0.73281800  0.69298200  1
  C  2299  1  0.50239700  0.74858600  0.70449000  1
  C  2300  1  0.51956100  0.75746500  0.70762200  1
  C  2301  1  0.53552100  0.75072500  0.69865100  1
  C  2311  1  0.53374900  0.30247900  0.27363700  1
  C  2312  1  0.51662900  0.31150500  0.27647900  1
  C  2313  1  0.50032500  0.30494600  0.26803600  1
  C  2314  1  0.50127700  0.28921300  0.25646300  1
  C  2315  1  0.51836300  0.28027700  0.25307900  1
  C  2316  1  0.53446500  0.28694000  0.26185800  1
  C  2326  1  0.50363800  0.30876600  0.69139900  1
  C  2327  1  0.52115000  0.31643700  0.68730600  1
  C  2328  1  0.53722200  0.31012000  0.69638000  1
  C  2329  1  0.53560500  0.29615600  0.70999100  1
  C  2330  1  0.51808400  0.28885400  0.71474500  1
  C  2331  1  0.50224600  0.29506900  0.70520700  1
  C  2341  1  0.23594200  0.81182300  0.46392600  1
  C  2342  1  0.22677700  0.81484900  0.48094000  1
  C  2343  1  0.23317300  0.80654000  0.49737100  1
  C  2344  1  0.24889000  0.79493500  0.49667800  1
  C  2345  1  0.25794500  0.79134800  0.47970000  1
  C  2346  1  0.25143800  0.79997100  0.46344900  1
  C  2356  1  0.23489000  0.22817800  0.49679000  1
  C  2357  1  0.22547700  0.22344600  0.48030200  1
  C  2358  1  0.23159100  0.23003500  0.46300600  1
  C  2359  1  0.24740400  0.24149400  0.46222300  1
  C  2360  1  0.25688200  0.24654300  0.47850300  1
  C  2361  1  0.25053600  0.23981100  0.49575300  1
  C  2371  1  0.80599000  0.80696900  0.49455200  1
  C  2372  1  0.81495000  0.81231100  0.47800000  1
  C  2373  1  0.81081100  0.80357400  0.46107700  1
  C  2374  1  0.79755400  0.78921400  0.46074900  1
  C  2375  1  0.78862700  0.78350500  0.47712200  1
  C  2376  1  0.79288100  0.79251600  0.49397300  1
  C  2386  1  0.80588800  0.23091000  0.46641200  1
  C  2387  1  0.81483500  0.22563000  0.48299100  1
  C  2388  1  0.81067800  0.23442800  0.49988200  1
  C  2389  1  0.79739800  0.24877100  0.50014700  1
  C  2390  1  0.78848800  0.25442500  0.48374400  1
  C  2391  1  0.79276700  0.24535500  0.46693000  1
  C  2401  1  0.50277100  0.80765600  0.76981800  1
  C  2402  1  0.52023900  0.81168200  0.77762100  1
  C  2403  1  0.53631000  0.80249300  0.77148600  1
  C  2404  1  0.53475100  0.78886900  0.75752800  1
  C  2405  1  0.51727200  0.78419600  0.75007200  1
  C  2406  1  0.50142800  0.79382400  0.75614000  1
  C  2416  1  0.53511500  0.22548900  0.76354000  1
  C  2417  1  0.51793000  0.22291000  0.77250600  1
  C  2418  1  0.50178900  0.23159700  0.76587800  1
  C  2419  1  0.50297000  0.24317000  0.75015800  1
  C  2420  1  0.52015200  0.24631200  0.74131600  1
  C  2421  1  0.53608700  0.23727700  0.74802700  1
  C  2431  1  0.53576000  0.80686500  0.19163500  1
  C  2432  1  0.51824300  0.81086700  0.18392800  1
  C  2433  1  0.50221800  0.80164800  0.19013800  1
  C  2434  1  0.50387600  0.78801700  0.20408000  1
  C  2435  1  0.52140000  0.78337000  0.21144900  1
  C  2436  1  0.53719700  0.79302300  0.20529700  1
  C  2446  1  0.50037900  0.23034000  0.19088600  1
  C  2447  1  0.51778000  0.22611700  0.18302500  1
  C  2448  1  0.53398000  0.23510000  0.18912300  1
  C  2449  1  0.53263300  0.24871500  0.20310700  1
  C  2450  1  0.51524200  0.25356800  0.21064900  1
  C  2451  1  0.49925900  0.24414500  0.20461800  1
  C  2461  1  0.30786800  0.72960700  0.49900300  1
  C  2462  1  0.31232100  0.72162400  0.48171000  1
  C  2463  1  0.30342000  0.72749500  0.46537400  1
  C  2464  1  0.28964000  0.74133100  0.46647700  1
  C  2465  1  0.28460500  0.74902400  0.48374300  1
  C  2466  1  0.29395500  0.74325100  0.49986200  1
  C  2476  1  0.72805800  0.73449200  0.46334700  1
  C  2477  1  0.72357000  0.72518200  0.47996600  1
  C  2478  1  0.73022700  0.73154200  0.49715200  1
  C  2479  1  0.74154000  0.74747300  0.49767000  1
  C  2480  1  0.74636600  0.75683600  0.48125800  1
  C  2481  1  0.73954300  0.75026000  0.46413400  1
  C  2491  1  0.30691600  0.30618500  0.46479600  1
  C  2492  1  0.31243600  0.31502700  0.48135400  1
  C  2493  1  0.30379400  0.31085200  0.49832200  1
  C  2494  1  0.28934900  0.29768900  0.49868600  1
  C  2495  1  0.28348700  0.28886100  0.48231700  1
  C  2496  1  0.29240200  0.29314500  0.46542100  1
  C  2506  1  0.72791500  0.30353400  0.49720900  1
  C  2507  1  0.72346400  0.31281600  0.48056400  1
  C  2508  1  0.73015700  0.30642400  0.46340100  1
  C  2509  1  0.74146900  0.29048600  0.46293800  1
  C  2510  1  0.74626800  0.28115700  0.47937800  1
  C  2511  1  0.73939900  0.28776100  0.49647400  1
  C  2521  1  0.80694600  0.50563000  0.19395700  1
  C  2522  1  0.81219400  0.52213600  0.18486700  1
  C  2523  1  0.80333100  0.53902900  0.18884600  1
  C  2524  1  0.78896800  0.53938100  0.20210200  1
  C  2525  1  0.78335100  0.52304700  0.21115700  1
  C  2526  1  0.79246200  0.50621800  0.20703200  1
  C  2536  1  0.23135100  0.53260100  0.19464900  1
  C  2537  1  0.22620500  0.51602600  0.18562900  1
  C  2538  1  0.23522100  0.49922000  0.18962600  1
  C  2539  1  0.24962400  0.49901300  0.20283800  1
  C  2540  1  0.25512000  0.51542000  0.21183800  1
  C  2541  1  0.24587100  0.53216700  0.20768500  1
  C  2551  1  0.80720200  0.53245400  0.76677600  1
  C  2552  1  0.81250900  0.51597800  0.77589000  1
  C  2553  1  0.80360200  0.49907600  0.77205300  1
  C  2554  1  0.78914500  0.49867300  0.75890600  1
  C  2555  1  0.78350600  0.51496300  0.74978600  1
  C  2556  1  0.79265000  0.53180800  0.75378000  1
  C  2566  1  0.23094200  0.50528800  0.76716300  1
  C  2567  1  0.22573300  0.52188100  0.77611800  1
  C  2568  1  0.23465900  0.53871800  0.77203000  1
  C  2569  1  0.24904400  0.53892400  0.75879600  1
  C  2570  1  0.25459300  0.52250800  0.74984400  1
  C  2571  1  0.24542000  0.50573900  0.75407800  1
  C  2581  1  0.73471300  0.50086400  0.68895700  1
  C  2582  1  0.72527300  0.51742200  0.68452400  1
  C  2583  1  0.73142300  0.53461900  0.69134300  1
  C  2584  1  0.74728800  0.53521300  0.70274600  1
  C  2585  1  0.75677400  0.51885800  0.70752900  1
  C  2586  1  0.75038800  0.50171900  0.70056800  1
  C  2596  1  0.73450900  0.53668800  0.27198600  1
  C  2597  1  0.72504300  0.52011100  0.27628300  1
  C  2598  1  0.73121500  0.50295200  0.26938800  1
  C  2599  1  0.74712500  0.50242000  0.25803900  1
  C  2600  1  0.75663300  0.51880000  0.25338900  1
  C  2601  1  0.75023000  0.53589800  0.26043500  1
  C  2611  1  0.30385600  0.53567900  0.68939400  1
  C  2612  1  0.31322000  0.51904400  0.68511100  1
  C  2613  1  0.30684400  0.50191500  0.69188300  1
  C  2614  1  0.29082900  0.50146400  0.70308500  1
  C  2615  1  0.28142800  0.51790800  0.70773000  1
  C  2616  1  0.28802600  0.53497900  0.70079900  1
  C  2626  1  0.30415600  0.50222500  0.27245700  1
  C  2627  1  0.31347100  0.51886700  0.27682300  1
  C  2628  1  0.30710400  0.53600200  0.27005000  1
  C  2629  1  0.29115600  0.53644200  0.25875100  1
  C  2630  1  0.28180900  0.51999200  0.25402900  1
  C  2631  1  0.28838600  0.50292100  0.26097400  1
  C  2641  1  0.70672200  0.60772500  0.43253900  1
  C  2642  1  0.69322500  0.61925400  0.44079100  1
  C  2643  1  0.67813100  0.62603500  0.43053000  1
  C  2644  1  0.67592400  0.62132000  0.41165100  1
  C  2645  1  0.68952000  0.61001200  0.40328300  1
  C  2646  1  0.70465900  0.60332100  0.41355600  1
  C  2647  1  0.66124300  0.62797500  0.40111300  1
  C  2648  1  0.64352400  0.62800200  0.40681800  1
  C  2649  1  0.62905400  0.63455700  0.39610000  1
  C  2650  1  0.62362100  0.62528200  0.37975700  1
  C  2651  1  0.60832100  0.63145600  0.36921000  1
  C  2652  1  0.59827200  0.64704600  0.37554400  1
  C  2653  1  0.60358400  0.65665100  0.39172700  1
  C  2654  1  0.61889000  0.65015800  0.40202700  1
  C  2655  1  0.59350600  0.67192700  0.39750400  1
  C  2656  1  0.60101100  0.68884800  0.39938300  1
  C  2657  1  0.59082800  0.70442400  0.40400600  1
  C  2658  1  0.58088200  0.70553300  0.42082300  1
  C  2659  1  0.59081300  0.71987100  0.39202000  1
  C  2660  1  0.58095100  0.73599700  0.39666500  1
  C  2661  1  0.57095200  0.73715700  0.41344800  1
  C  2662  1  0.57098000  0.72167100  0.42541500  1
  C  2663  1  0.60306700  0.62166500  0.35345800  1
  C  2664  1  0.59811800  0.62960800  0.33736300  1
  C  2665  1  0.59309200  0.61961000  0.32180800  1
  C  2666  1  0.60602800  0.60832500  0.31246200  1
  C  2667  1  0.57507700  0.62137200  0.31444500  1
  C  2668  1  0.57009600  0.61202300  0.29809400  1
  C  2669  1  0.58306500  0.60092800  0.28845500  1
  C  2670  1  0.60102700  0.59909900  0.29605800  1
  C  2692  1  0.57896100  0.59150200  0.27053200  1
  C  2695  1  0.56066200  0.75425800  0.41854300  1
  C  2698  1  0.72250700  0.60116500  0.44412400  1
  C  2701  1  0.83292600  0.99034131  0.42954100  1
  C  2702  1  0.84578400  0.97854430  0.43842100  1
  C  2703  1  0.86099900  0.97112230  0.42878400  1
  C  2704  1  0.86402100  0.97547130  0.40992800  1
  C  2705  1  0.85106800  0.98706330  0.40094300  1
  C  2706  1  0.83578100  0.99434831  0.41057000  1
  C  2707  1  0.87887700  0.96831630  0.39995200  1
  C  2708  1  0.89635600  0.96751230  0.40631600  1
  C  2709  1  0.91102380  0.96090930  0.39587600  1
  C  2710  1  0.91714280  0.97055830  0.37999500  1
  C  2711  1  0.93255680  0.96429130  0.36970300  1
  C  2712  1  0.94205980  0.94827330  0.37574000  1
  C  2713  1  0.93615480  0.93838030  0.39154800  1
  C  2714  1  0.92071080  0.94493430  0.40162900  1
  C  2715  1  0.94594680  0.92290030  0.39729200  1
  C  2716  1  0.93825080  0.90604230  0.39896500  1
  C  2717  1  0.94824880  0.89033800  0.40359900  1
  C  2718  1  0.95802780  0.88904700  0.42050500  1
  C  2719  1  0.94832080  0.87497900  0.39150100  1
  C  2720  1  0.95807880  0.85877600  0.39611400  1
  C  2721  1  0.96792580  0.85744600  0.41297400  1
  C  2722  1  0.96782880  0.87283600  0.42506400  1
  C  2723  1  0.93854580  0.97431430  0.35443100  1
  C  2724  1  0.94099980  0.96682230  0.33756800  1
  C  2725  1  0.94610980  0.97696730  0.32208500  1
  C  2726  1  0.93515780  0.97609430  0.30591000  1
  C  2727  1  0.96251580  0.98764730  0.32174300  1
  C  2728  1  0.96771280  0.99734531  0.30565700  1
  C  2729  1  0.95671180  0.99657231  0.28949700  1
  C  2730  1  0.94034680  0.98584230  0.28987600  1
  C  2752  1  0.96250380  0.00654700  0.27240400  1
  C  2755  1  0.97821480  0.84030900  0.41797700  1
  C  2758  1  0.81699200  0.99766631  0.44048000  1
  C  2761  1  0.70667500  0.98659630  0.02985800  1
  C  2762  1  0.69308300  0.97510130  0.02171500  1
  C  2763  1  0.67799600  0.96845330  0.03207100  1
  C  2764  1  0.67589700  0.97325930  0.05093900  1
  C  2765  1  0.68960400  0.98450630  0.05920700  1
  C  2766  1  0.70473400  0.99107231  0.04883800  1
  C  2767  1  0.66121000  0.96674230  0.06155000  1
  C  2768  1  0.64346800  0.96687630  0.05591700  1
  C  2769  1  0.62899300  0.96035930  0.06664900  1
  C  2770  1  0.62359700  0.96963430  0.08300600  1
  C  2771  1  0.60828300  0.96349430  0.09355400  1
  C  2772  1  0.59818800  0.94793730  0.08721100  1
  C  2773  1  0.60346600  0.93832930  0.07101500  1
  C  2774  1  0.61878200  0.94479530  0.06071400  1
  C  2775  1  0.59334700  0.92308430  0.06522700  1
  C  2776  1  0.60083100  0.90616930  0.06319400  1
  C  2777  1  0.59062600  0.89062000  0.05852900  1
  C  2778  1  0.58053100  0.88964000  0.04179200  1
  C  2779  1  0.59076100  0.87506200  0.07036600  1
  C  2780  1  0.58089400  0.85895600  0.06566500  1
  C  2781  1  0.57074300  0.85792600  0.04896500  1
  C  2782  1  0.57062800  0.87352000  0.03714000  1
  C  2783  1  0.60305500  0.97329230  0.10931400  1
  C  2784  1  0.59804700  0.96535930  0.12539600  1
  C  2785  1  0.59302500  0.97536130  0.14095200  1
  C  2786  1  0.60596100  0.98664730  0.15029800  1
  C  2787  1  0.57501300  0.97359930  0.14832300  1
  C  2788  1  0.57003100  0.98295030  0.16467400  1
  C  2789  1  0.58299900  0.99404931  0.17430700  1
  C  2790  1  0.60096200  0.99587431  0.16670200  1
  C  2812  1  0.57889100  0.00348900  0.19222300  1
  C  2815  1  0.56043700  0.84085000  0.04381500  1
  C  2818  1  0.72239500  0.99308531  0.01814300  1
  C  2821  1  0.83209500  0.60425900  0.03152900  1
  C  2822  1  0.84514300  0.61565000  0.02240500  1
  C  2823  1  0.86032500  0.62323900  0.03195800  1
  C  2824  1  0.86308400  0.61947600  0.05097800  1
  C  2825  1  0.84995400  0.60828600  0.06020100  1
  C  2826  1  0.83471900  0.60082100  0.05064700  1
  C  2827  1  0.87783600  0.62688500  0.06087900  1
  C  2828  1  0.89544100  0.62705200  0.05483100  1
  C  2829  1  0.90994380  0.63405600  0.06520900  1
  C  2830  1  0.91574480  0.62511000  0.08160300  1
  C  2831  1  0.93085780  0.63191100  0.09200000  1
  C  2832  1  0.94033080  0.64779100  0.08553400  1
  C  2833  1  0.93468380  0.65708100  0.06927000  1
  C  2834  1  0.91959480  0.64989600  0.05906700  1
  C  2835  1  0.94433180  0.67264200  0.06339100  1
  C  2836  1  0.93610080  0.68872200  0.05892500  1
  C  2837  1  0.94574080  0.70426700  0.05323600  1
  C  2838  1  0.94228580  0.71189600  0.03558600  1
  C  2839  1  0.95833580  0.71333900  0.06512600  1
  C  2840  1  0.96721080  0.72972000  0.05945000  1
  C  2841  1  0.96367980  0.73758000  0.04185800  1
  C  2842  1  0.95125680  0.72821900  0.02992900  1
  C  2843  1  0.93654880  0.62248100  0.10778200  1
  C  2844  1  0.94038380  0.63079400  0.12398300  1
  C  2845  1  0.94630480  0.62127700  0.13950600  1
  C  2846  1  0.93465880  0.60851600  0.14865100  1
  C  2847  1  0.96400580  0.62490000  0.14693000  1
  C  2848  1  0.96994480  0.61594400  0.16316300  1
  C  2849  1  0.95825380  0.60337000  0.17262100  1
  C  2850  1  0.94061180  0.59967300  0.16495200  1
  C  2872  1  0.96347480  0.59414900  0.19035200  1
  C  2875  1  0.97292480  0.75537800  0.03691300  1
  C  2878  1  0.81617400  0.59677600  0.02069400  1
  C  2881  1  0.57813000  0.49637800  0.66612800  1
  C  2882  1  0.58858100  0.50572800  0.65246900  1
  C  2883  1  0.59661500  0.49608500  0.63758200  1
  C  2884  1  0.59427900  0.47673000  0.63576900  1
  C  2885  1  0.58415800  0.46728300  0.64958900  1
  C  2886  1  0.57622800  0.47694300  0.66452200  1
  C  2887  1  0.60184700  0.46681500  0.62110700  1
  C  2888  1  0.60079600  0.47219200  0.60332000  1
  C  2889  1  0.60760700  0.46167200  0.58885600  1
  C  2890  1  0.59841800  0.44534200  0.58328000  1
  C  2891  1  0.60473600  0.43490300  0.56797400  1
  C  2892  1  0.62039600  0.44131400  0.55808700  1
  C  2893  1  0.62990400  0.45751400  0.56354900  1
  C  2894  1  0.62325700  0.46772300  0.57885800  1
  C  2895  1  0.64520600  0.46341900  0.55358300  1
  C  2896  1  0.66204400  0.46554000  0.56121400  1
  C  2897  1  0.67764000  0.47031700  0.55113200  1
  C  2898  1  0.67862900  0.48712500  0.54115900  1
  C  2899  1  0.69321400  0.45849800  0.55122600  1
  C  2900  1  0.70934200  0.46328700  0.54143400  1
  C  2901  1  0.71037800  0.48005300  0.53139700  1
  C  2902  1  0.69477100  0.49186200  0.53132900  1
  C  2903  1  0.59499700  0.41916800  0.56261100  1
  C  2904  1  0.60297200  0.40303100  0.55787300  1
  C  2905  1  0.59294900  0.38744000  0.55302800  1
  C  2906  1  0.58170000  0.37825500  0.56611100  1
  C  2907  1  0.59454400  0.37994400  0.53505400  1
  C  2908  1  0.58505500  0.36362100  0.53025300  1
  C  2909  1  0.57397700  0.35415600  0.54336500  1
  C  2910  1  0.57233100  0.36188500  0.56129000  1
  C  2932  1  0.56437100  0.33629100  0.53945400  1
  C  2935  1  0.72746400  0.48527000  0.52113300  1
  C  2938  1  0.56987000  0.50739700  0.68151200  1
  C  2941  1  0.96162580  0.49591800  0.79603700  1
  C  2942  1  0.95165180  0.50539100  0.80996700  1
  C  2943  1  0.94387380  0.49583900  0.82504700  1
  C  2944  1  0.94597180  0.47645000  0.82675700  1
  C  2945  1  0.95559480  0.46687900  0.81267000  1
  C  2946  1  0.96328980  0.47645500  0.79756200  1
  C  2947  1  0.93851280  0.46662900  0.84152300  1
  C  2948  1  0.94027280  0.47176200  0.85932400  1
  C  2949  1  0.93326380  0.46139300  0.87379400  1
  C  2950  1  0.94237880  0.44514400  0.87967400  1
  C  2951  1  0.93561180  0.43468100  0.89476700  1
  C  2952  1  0.91952580  0.44092800  0.90406180  1
  C  2953  1  0.91004280  0.45704500  0.89828000  1
  C  2954  1  0.91725380  0.46733600  0.88326000  1
  C  2955  1  0.89427800  0.46277100  0.90770880  1
  C  2956  1  0.87836100  0.46735200  0.89921800  1
  C  2957  1  0.86271200  0.47327700  0.90854480  1
  C  2958  1  0.85533700  0.49097000  0.90477480  1
  C  2959  1  0.85325400  0.46159500  0.92104880  1
  C  2960  1  0.83673200  0.46751400  0.92950680  1
  C  2961  1  0.82912000  0.48514400  0.92564280  1
  C  2962  1  0.83887800  0.49686800  0.91333180  1
  C  2963  1  0.94527380  0.41901700  0.90043280  1
  C  2964  1  0.93725980  0.40275900  0.90463880  1
  C  2965  1  0.94726280  0.38721200  0.90961580  1
  C  2966  1  0.95856580  0.37799500  0.89660500  1
  C  2967  1  0.94563980  0.37983100  0.92762980  1
  C  2968  1  0.95515980  0.36356100  0.93254080  1
  C  2969  1  0.96628580  0.35404800  0.91950180  1
  C  2970  1  0.96796180  0.36167500  0.90153680  1
  C  2992  1  0.97592380  0.33623200  0.92353380  1
  C  2995  1  0.81116300  0.49035100  0.93443280  1
  C  2998  1  0.96969580  0.50685500  0.78049000  1
  C  3001  1  0.96027880  0.09579900  0.66753200  1
  C  3002  1  0.94891680  0.08769700  0.65380400  1
  C  3003  1  0.94232680  0.09811700  0.63873500  1
  C  3004  1  0.94706180  0.11701600  0.63679300  1
  C  3005  1  0.95819680  0.12523900  0.65061800  1
  C  3006  1  0.96470980  0.11480200  0.66572500  1
  C  3007  1  0.94045380  0.12772000  0.62221800  1
  C  3008  1  0.94065680  0.12230500  0.60440900  1
  C  3009  1  0.93376780  0.13307200  0.59013500  1
  C  3010  1  0.94282680  0.14948900  0.58460700  1
  C  3011  1  0.93615580  0.16017100  0.56961400  1
  C  3012  1  0.92020280  0.15396600  0.56005300  1
  C  3013  1  0.91075180  0.13771400  0.56547300  1
  C  3014  1  0.91788880  0.12721700  0.58038000  1
  C  3015  1  0.89512700  0.13203400  0.55577400  1
  C  3016  1  0.87916300  0.12715000  0.56400500  1
  C  3017  1  0.86364100  0.12128800  0.55441700  1
  C  3018  1  0.85623000  0.10356000  0.55795200  1
  C  3019  1  0.85431800  0.13306200  0.54189600  1
  C  3020  1  0.83789900  0.12720600  0.53319800  1
  C  3021  1  0.83024800  0.10954300  0.53683200  1
  C  3022  1  0.83987400  0.09772300  0.54915500  1
  C  3023  1  0.94582180  0.17594200  0.56419100  1
  C  3024  1  0.93779480  0.19209900  0.55960500  1
  C  3025  1  0.94773480  0.20765900  0.55450600  1
  C  3026  1  0.95908480  0.21700500  0.56738300  1
  C  3027  1  0.94589580  0.21499500  0.53648900  1
  C  3028  1  0.95523480  0.23133200  0.53144700  1
  C  3029  1  0.96639780  0.24097200  0.54435700  1
  C  3030  1  0.96829980  0.23339100  0.56232200  1
  C  3052  1  0.97583780  0.25886700  0.54019000  1
  C  3055  1  0.81238300  0.10440800  0.52781000  1
  C  3058  1  0.96664880  0.08403500  0.68326500  1
  C  3061  1  0.57889700  0.09954000  0.79551000  1
  C  3062  1  0.58912800  0.09007400  0.80925600  1
  C  3063  1  0.59703300  0.09961100  0.82427600  1
  C  3064  1  0.59480200  0.11897500  0.82611600  1
  C  3065  1  0.58495200  0.12854600  0.81218600  1
  C  3066  1  0.57714000  0.11898900  0.79712800  1
  C  3067  1  0.60218400  0.12875900  0.84094500  1
  C  3068  1  0.60057300  0.12339700  0.85869400  1
  C  3069  1  0.60722800  0.13378200  0.87331500  1
  C  3070  1  0.59794500  0.15003400  0.87896100  1
  C  3071  1  0.60417100  0.16038700  0.89436000  1
  C  3072  1  0.61980600  0.15396500  0.90427480  1
  C  3073  1  0.62940000  0.13785000  0.89872800  1
  C  3074  1  0.62286900  0.12772400  0.88331800  1
  C  3075  1  0.64473300  0.13199700  0.90865480  1
  C  3076  1  0.66162500  0.13027300  0.90104180  1
  C  3077  1  0.67728000  0.12557700  0.91107980  1
  C  3078  1  0.67826200  0.10893200  0.92132680  1
  C  3079  1  0.69292000  0.13730200  0.91065780  1
  C  3080  1  0.70910600  0.13258400  0.92038880  1
  C  3081  1  0.71012200  0.11598300  0.93069580  1
  C  3082  1  0.69445300  0.10426900  0.93109980  1
  C  3083  1  0.59442400  0.17609800  0.89975200  1
  C  3084  1  0.60242400  0.19223400  0.90443680  1
  C  3085  1  0.59242900  0.20782600  0.90930980  1
  C  3086  1  0.58119600  0.21704600  0.89623900  1
  C  3087  1  0.59405900  0.21529300  0.92729080  1
  C  3088  1  0.58461300  0.23163200  0.93211180  1
  C  3089  1  0.57356000  0.24114300  0.91901180  1
  C  3090  1  0.57187800  0.23343900  0.90108080  1
  C  3112  1  0.56401300  0.25903200  0.92294780  1
  C  3115  1  0.72727200  0.11077500  0.94083480  1
  C  3118  1  0.57063100  0.08860300  0.78007400  1
  C  3121  1  0.47221800  0.73384400  0.54208900  1
  C  3122  1  0.48049800  0.72073000  0.55403400  1
  C  3123  1  0.47035800  0.70565500  0.56103300  1
  C  3124  1  0.45157600  0.70306000  0.55612500  1
  C  3125  1  0.44318000  0.71628400  0.54439700  1
  C  3126  1  0.45332600  0.73141500  0.53749500  1
  C  3127  1  0.44113900  0.68837400  0.56295800  1
  C  3128  1  0.44716800  0.67078000  0.56377800  1
  C  3129  1  0.43647900  0.65631200  0.57039600  1
  C  3130  1  0.42067300  0.65023000  0.56061000  1
  C  3131  1  0.41029300  0.63487600  0.56684900  1
  C  3132  1  0.41611900  0.62539500  0.58295400  1
  C  3133  1  0.43187800  0.63123800  0.59297300  1
  C  3134  1  0.44206600  0.64662300  0.58643400  1
  C  3135  1  0.43765600  0.62128000  0.60836400  1
  C  3136  1  0.44041300  0.62896100  0.62508900  1
  C  3137  1  0.44544600  0.61890000  0.64063700  1
  C  3138  1  0.46208100  0.60859900  0.64122600  1
  C  3139  1  0.43420400  0.61950400  0.65662200  1
  C  3140  1  0.43935700  0.60986100  0.67273300  1
  C  3141  1  0.45597000  0.59952900  0.67338000  1
  C  3142  1  0.46723900  0.59900900  0.65739000  1
  C  3143  1  0.39545800  0.62853000  0.55644900  1
  C  3144  1  0.37813400  0.62698700  0.56309900  1
  C  3145  1  0.36328400  0.62007800  0.55296200  1
  C  3146  1  0.35950600  0.62595300  0.53466600  1
  C  3147  1  0.35116100  0.60712500  0.56120100  1
  C  3148  1  0.33595600  0.59998400  0.55134100  1
  C  3149  1  0.33235800  0.60551300  0.53288200  1
  C  3150  1  0.34436700  0.61869000  0.52479000  1
  C  3172  1  0.31646800  0.59840700  0.52173300  1
  C  3175  1  0.46171600  0.58966700  0.69055200  1
  C  3178  1  0.48368500  0.74962000  0.53529900  1
  C  3181  1  0.47171800  0.86164500  0.92131180  1
  C  3182  1  0.47997000  0.87515300  0.90979280  1
  C  3183  1  0.46972300  0.89028600  0.90307480  1
  C  3184  1  0.45085900  0.89252000  0.90783680  1
  C  3185  1  0.44249600  0.87892100  0.91914480  1
  C  3186  1  0.45275300  0.86374600  0.92577780  1
  C  3187  1  0.44029700  0.90715130  0.90111280  1
  C  3188  1  0.44594900  0.92488430  0.90096380  1
  C  3189  1  0.43521000  0.93918430  0.89409600  1
  C  3190  1  0.41930800  0.94529130  0.90369080  1
  C  3191  1  0.40872600  0.96030930  0.89699700  1
  C  3192  1  0.41437800  0.96934130  0.88057200  1
  C  3193  1  0.43023400  0.96346930  0.87070000  1
  C  3194  1  0.44068200  0.94849230  0.87780600  1
  C  3195  1  0.43578200  0.97308330  0.85495000  1
  C  3196  1  0.44114000  0.96489030  0.83911400  1
  C  3197  1  0.44692000  0.97455130  0.82358300  1
  C  3198  1  0.46468000  0.97121030  0.81614100  1
  C  3199  1  0.43505000  0.98702030  0.81430900  1
  C  3200  1  0.44082600  0.99583131  0.79792200  1
  C  3201  1  0.45850000  0.99235631  0.79022300  1
  C  3202  1  0.47043400  0.98010730  0.79980000  1
  C  3203  1  0.39384700  0.96680030  0.90723980  1
  C  3204  1  0.37645900  0.96778330  0.90065180  1
  C  3205  1  0.36154900  0.97486430  0.91058780  1
  C  3206  1  0.35807200  0.96985430  0.92919780  1
  C  3207  1  0.34905900  0.98711230  0.90182880  1
  C  3208  1  0.33378000  0.99440031  0.91146480  1
  C  3209  1  0.33047200  0.98973730  0.93021280  1
  C  3210  1  0.34286100  0.97727330  0.93884580  1
  C  3232  1  0.31452400  0.99704331  0.94115180  1
  C  3235  1  0.46345700  0.00138000  0.77230000  1
  C  3238  1  0.48327400  0.84579800  0.92778180  1
  C  3241  1  0.07105800  0.73490800  0.92336880  1
  C  3242  1  0.06194100  0.72193900  0.91187880  1
  C  3243  1  0.07142000  0.70663800  0.90442280  1
  C  3244  1  0.09035900  0.70365000  0.90841880  1
  C  3245  1  0.09956600  0.71669900  0.91972580  1
  C  3246  1  0.09009300  0.73205700  0.92705380  1
  C  3247  1  0.10023700  0.68880000  0.90111080  1
  C  3248  1  0.09391900  0.67130200  0.90039980  1
  C  3249  1  0.10433800  0.65672600  0.89356800  1
  C  3250  1  0.12008400  0.65032800  0.90323680  1
  C  3251  1  0.13037800  0.63505600  0.89667800  1
  C  3252  1  0.12456600  0.62603000  0.88030800  1
  C  3253  1  0.10884800  0.63215600  0.87036500  1
  C  3254  1  0.09870000  0.64740700  0.87733500  1
  C  3255  1  0.10318100  0.62253100  0.85466100  1
  C  3256  1  0.09809500  0.63068700  0.83871400  1
  C  3257  1  0.09241200  0.62098300  0.82317100  1
  C  3258  1  0.07475000  0.62438000  0.81552100  1
  C  3259  1  0.10431800  0.60841900  0.81406900  1
  C  3260  1  0.09868100  0.59957700  0.79765200  1
  C  3261  1  0.08110500  0.60310000  0.78974900  1
  C  3262  1  0.06913000  0.61544100  0.79915500  1
  C  3263  1  0.14513900  0.62839800  0.90699680  1
  C  3264  1  0.16246000  0.62674800  0.90037080  1
  C  3265  1  0.17722600  0.61967500  0.91051380  1
  C  3266  1  0.18108000  0.62556500  0.92878680  1
  C  3267  1  0.18920800  0.60657500  0.90229880  1
  C  3268  1  0.20435700  0.59931700  0.91216080  1
  C  3269  1  0.20804200  0.60488000  0.93059280  1
  C  3270  1  0.19616500  0.61819000  0.93866480  1
  C  3292  1  0.22391300  0.59770100  0.94172580  1
  C  3295  1  0.07629600  0.59401400  0.77181400  1
  C  3298  1  0.06029500  0.75094800  0.93072780  1
  C  3301  1  0.06713700  0.86044100  0.54109900  1
  C  3302  1  0.05903700  0.87359500  0.55312200  1
  C  3303  1  0.06935300  0.88856300  0.56009500  1
  C  3304  1  0.08812700  0.89099600  0.55507800  1
  C  3305  1  0.09634400  0.87773200  0.54327500  1
  C  3306  1  0.08602600  0.86270800  0.53640600  1
  C  3307  1  0.09871600  0.90560130  0.56181600  1
  C  3308  1  0.09285100  0.92325130  0.56251800  1
  C  3309  1  0.10374600  0.93764530  0.56891800  1
  C  3310  1  0.11920800  0.94380030  0.55864300  1
  C  3311  1  0.12978500  0.95909830  0.56466900  1
  C  3312  1  0.12453600  0.96844330  0.58103800  1
  C  3313  1  0.10912700  0.96250330  0.59151900  1
  C  3314  1  0.09871000  0.94717530  0.58522600  1
  C  3315  1  0.10383400  0.97238930  0.60709200  1
  C  3316  1  0.10198600  0.96471430  0.62394100  1
  C  3317  1  0.09743600  0.97481230  0.63960000  1
  C  3318  1  0.08077100  0.98501930  0.64065700  1
  C  3319  1  0.10935600  0.97461630  0.65509500  1
  C  3320  1  0.10480600  0.98454730  0.67121100  1
  C  3321  1  0.08819600  0.99483931  0.67229400  1
  C  3322  1  0.07628600  0.99500231  0.65676800  1
  C  3323  1  0.14423400  0.96556930  0.55385100  1
  C  3324  1  0.16187200  0.96641330  0.55975000  1
  C  3325  1  0.17643500  0.97332930  0.54920800  1
  C  3326  1  0.17892500  0.96843030  0.53041000  1
  C  3327  1  0.18958400  0.98522230  0.55748400  1
  C  3328  1  0.20454600  0.99228731  0.54720500  1
  C  3329  1  0.20686800  0.98770230  0.52829400  1
  C  3330  1  0.19382500  0.97560030  0.52013300  1
  C  3352  1  0.22251200  0.99459731  0.51671400  1
  C  3355  1  0.08320200  0.00526600  0.68933700  1
  C  3358  1  0.05551000  0.84477200  0.53434400  1
  C  3361  1  0.57768100  0.73732900  0.03113800  1
  C  3362  1  0.58958800  0.72476900  0.02198300  1
  C  3363  1  0.59731000  0.70953300  0.03134500  1
  C  3364  1  0.59316700  0.70619400  0.05019600  1
  C  3365  1  0.58145700  0.71885100  0.05944900  1
  C  3366  1  0.57387200  0.73415500  0.05009700  1
  C  3367  1  0.60056300  0.69128900  0.05992000  1
  C  3368  1  0.60169200  0.67394000  0.05326100  1
  C  3369  1  0.60825000  0.65918300  0.06358900  1
  C  3370  1  0.59828300  0.65272800  0.07914100  1
  C  3371  1  0.60447700  0.63718300  0.08922300  1
  C  3372  1  0.62063700  0.62784200  0.08341600  1
  C  3373  1  0.63077400  0.63403400  0.06788500  1
  C  3374  1  0.62437400  0.64964600  0.05796000  1
  C  3375  1  0.64621300  0.62417700  0.06218700  1
  C  3376  1  0.66320700  0.63164500  0.06091300  1
  C  3377  1  0.67887300  0.62143000  0.05655800  1
  C  3378  1  0.67988600  0.61060300  0.04027800  1
  C  3379  1  0.69440000  0.62198200  0.06843700  1
  C  3380  1  0.71046700  0.61181900  0.06424300  1
  C  3381  1  0.71147900  0.60089900  0.04803500  1
  C  3382  1  0.69594500  0.60038300  0.03614900  1
  C  3383  1  0.59416200  0.63048400  0.10388700  1
  C  3384  1  0.60005100  0.63113200  0.12153200  1
  C  3385  1  0.59039900  0.62353500  0.13635400  1
  C  3386  1  0.57110800  0.62601500  0.13863100  1
  C  3387  1  0.60006400  0.61317700  0.14984700  1
  C  3388  1  0.59067200  0.60515700  0.16490100  1
  C  3389  1  0.57128900  0.60718100  0.16694400  1
  C  3390  1  0.56172800  0.61787300  0.15362300  1
  C  3412  1  0.56052000  0.59876800  0.18241700  1
  C  3415  1  0.72845900  0.59018900  0.04343300  1
  C  3418  1  0.57003000  0.75330300  0.02048900  1
  C  3421  1  0.95986080  0.85894800  0.02851600  1
  C  3422  1  0.94788180  0.87216200  0.02044900  1
  C  3423  1  0.94051280  0.88681300  0.03094500  1
  C  3424  1  0.94509580  0.88886600  0.04987400  1
  C  3425  1  0.95694780  0.87560100  0.05802200  1
  C  3426  1  0.96420580  0.86089200  0.04752400  1
  C  3427  1  0.93771880  0.90294930  0.06073300  1
  C  3428  1  0.93643480  0.92072230  0.05536800  1
  C  3429  1  0.92926580  0.93439830  0.06666700  1
  C  3430  1  0.93962080  0.94127130  0.08175200  1
  C  3431  1  0.93236580  0.95527730  0.09330600  1
  C  3432  1  0.91465580  0.96263630  0.08940700  1
  C  3433  1  0.90427080  0.95618030  0.07415300  1
  C  3434  1  0.91165980  0.94198630  0.06289400  1
  C  3435  1  0.88694700  0.96354730  0.07057000  1
  C  3436  1  0.88295300  0.97280930  0.05492800  1
  C  3437  1  0.86551000  0.97970930  0.05076300  1
  C  3438  1  0.85764000  0.97602030  0.03324700  1
  C  3439  1  0.85546300  0.99082731  0.06335600  1
  C  3440  1  0.83783000  0.99764931  0.05868200  1
  C  3441  1  0.82969900  0.99362831  0.04133000  1
  C  3442  1  0.84000800  0.98284930  0.02862000  1
  C  3443  1  0.94302580  0.96218730  0.10765400  1
  C  3444  1  0.93781880  0.96151730  0.12551100  1
  C  3445  1  0.94840980  0.96855930  0.13992100  1
  C  3446  1  0.96735480  0.96406830  0.14194300  1
  C  3447  1  0.94010880  0.98017630  0.15328200  1
  C  3448  1  0.95057080  0.98748930  0.16798700  1
  C  3449  1  0.96964680  0.98338930  0.16982000  1
  C  3450  1  0.97778780  0.97142830  0.15663600  1
  C  3472  1  0.98147980  0.99081931  0.18500900  1
  C  3475  1  0.81086700  0.00103300  0.03722900  1
  C  3478  1  0.96685580  0.84348700  0.01675800  1
  C  3481  1  0.96231680  0.73611300  0.43007400  1
  C  3482  1  0.95083180  0.72317500  0.43924300  1
  C  3483  1  0.94340080  0.70782500  0.42982700  1
  C  3484  1  0.94741980  0.70475700  0.41090500  1
  C  3485  1  0.95872480  0.71777300  0.40164700  1
  C  3486  1  0.96602480  0.73318200  0.41105600  1
  C  3487  1  0.94016280  0.68984700  0.40109000  1
  C  3488  1  0.93940880  0.67239300  0.40752100  1
  C  3489  1  0.93273280  0.65776100  0.39710000  1
  C  3490  1  0.94277780  0.65112900  0.38169400  1
  C  3491  1  0.93633280  0.63583800  0.37137200  1
  C  3492  1  0.91972080  0.62702100  0.37676000  1
  C  3493  1  0.90942980  0.63339300  0.39214500  1
  C  3494  1  0.91625080  0.64866400  0.40236000  1
  C  3495  1  0.89351700  0.62397400  0.39748900  1
  C  3496  1  0.87743600  0.63234400  0.40170300  1
  C  3497  1  0.86178600  0.62283400  0.40734700  1
  C  3498  1  0.85416000  0.62634800  0.42499000  1
  C  3499  1  0.85272300  0.61017600  0.39552000  1
  C  3500  1  0.83634800  0.60131200  0.40124500  1
  C  3501  1  0.82849500  0.60489600  0.41883000  1
  C  3502  1  0.83784700  0.61738600  0.43069500  1
  C  3503  1  0.94690280  0.62901000  0.35691600  1
  C  3504  1  0.94109080  0.62871800  0.33923500  1
  C  3505  1  0.95155880  0.62182900  0.32461900  1
  C  3506  1  0.97040780  0.62656700  0.32223100  1
  C  3507  1  0.94316080  0.61023300  0.31128800  1
  C  3508  1  0.95338880  0.60328000  0.29623700  1
  C  3509  1  0.97235080  0.60769900  0.29401000  1
  C  3510  1  0.98062680  0.61951900  0.30723600  1
  C  3532  1  0.98389680  0.60087400  0.27831400  1
  C  3535  1  0.81073300  0.59561400  0.42385000  1
  C  3538  1  0.96964280  0.75221100  0.44076800  1
  C  3541  1  0.57788800  0.85784700  0.43127900  1
  C  3542  1  0.58995000  0.87028600  0.44039600  1
  C  3543  1  0.59768000  0.88552900  0.43104800  1
  C  3544  1  0.59338200  0.88900900  0.41225700  1
  C  3545  1  0.58150100  0.87648200  0.40304700  1
  C  3546  1  0.57391700  0.86116300  0.41237800  1
  C  3547  1  0.60078800  0.90391930  0.40254200  1
  C  3548  1  0.60216900  0.92121530  0.40929300  1
  C  3549  1  0.60873200  0.93599030  0.39898200  1
  C  3550  1  0.59873800  0.94251030  0.38347100  1
  C  3551  1  0.60491800  0.95808430  0.37342500  1
  C  3552  1  0.62110100  0.96738930  0.37922600  1
  C  3553  1  0.63126900  0.96113630  0.39471500  1
  C  3554  1  0.62487700  0.94549630  0.40460200  1
  C  3555  1  0.64672500  0.97096530  0.40042300  1
  C  3556  1  0.66372700  0.96349430  0.40157800  1
  C  3557  1  0.67940700  0.97370830  0.40587800  1
  C  3558  1  0.68061000  0.98424830  0.42233200  1
  C  3559  1  0.69475600  0.97344430  0.39376000  1
  C  3560  1  0.71083800  0.98360330  0.39789800  1
  C  3561  1  0.71204800  0.99423331  0.41428300  1
  C  3562  1  0.69668700  0.99446531  0.42640500  1
  C  3563  1  0.59454800  0.96484830  0.35882300  1
  C  3564  1  0.60038900  0.96433130  0.34115600  1
  C  3565  1  0.59064700  0.97192530  0.32638600  1
  C  3566  1  0.57136000  0.96936130  0.32416600  1
  C  3567  1  0.60021900  0.98233030  0.31286000  1
  C  3568  1  0.59074300  0.99030231  0.29783300  1
  C  3569  1  0.57136500  0.98818230  0.29584300  1
  C  3570  1  0.56189500  0.97745430  0.30920000  1
  C  3592  1  0.56051400  0.99651631  0.28037900  1
  C  3595  1  0.72904900  0.00495300  0.41880400  1
  C  3598  1  0.57026100  0.84184100  0.44190000  1
  C  3601  1  0.46989300  0.61020900  0.79422500  1
  C  3602  1  0.47816600  0.62200400  0.80747600  1
  C  3603  1  0.46810700  0.62854100  0.82280700  1
  C  3604  1  0.44942000  0.62334200  0.82545600  1
  C  3605  1  0.44098300  0.61185900  0.81205600  1
  C  3606  1  0.45106300  0.60538300  0.79670000  1
  C  3607  1  0.43911500  0.62973600  0.84038200  1
  C  3608  1  0.44512600  0.62950400  0.85799600  1
  C  3609  1  0.43460500  0.63598900  0.87262100  1
  C  3610  1  0.41856000  0.62646600  0.87842900  1
  C  3611  1  0.40793500  0.63298200  0.89349500  1
  C  3612  1  0.41368600  0.64917700  0.90287880  1
  C  3613  1  0.42966600  0.65897900  0.89725900  1
  C  3614  1  0.44017600  0.65204200  0.88225400  1
  C  3615  1  0.43510400  0.67474700  0.90685280  1
  C  3616  1  0.43975600  0.69072900  0.89852700  1
  C  3617  1  0.44564300  0.70629500  0.90801180  1
  C  3618  1  0.46332200  0.71373900  0.90429580  1
  C  3619  1  0.43397300  0.71558800  0.92065080  1
  C  3620  1  0.43987800  0.73202500  0.92927580  1
  C  3621  1  0.45748200  0.73971700  0.92544580  1
  C  3622  1  0.46920800  0.73011400  0.91301580  1
  C  3623  1  0.39247600  0.62309200  0.89911800  1
  C  3624  1  0.37545600  0.63051800  0.90033880  1
  C  3625  1  0.35979100  0.62035000  0.90480780  1
  C  3626  1  0.34406200  0.62121200  0.89321500  1
  C  3627  1  0.35893100  0.60936600  0.92099380  1
  C  3628  1  0.34283500  0.59928100  0.92528780  1
  C  3629  1  0.32710500  0.60010400  0.91368180  1
  C  3630  1  0.32795400  0.61119000  0.89758100  1
  C  3652  1  0.31009200  0.58954600  0.91848180  1
  C  3655  1  0.46266400  0.75760200  0.93439080  1
  C  3658  1  0.48135000  0.60367000  0.77834500  1
  C  3661  1  0.47084600  0.98551230  0.66809500  1
  C  3662  1  0.47940700  0.97419530  0.65461100  1
  C  3663  1  0.46941400  0.96743830  0.63933500  1
  C  3664  1  0.45050700  0.97194530  0.63698700  1
  C  3665  1  0.44179900  0.98295230  0.65060800  1
  C  3666  1  0.45181600  0.98964030  0.66591100  1
  C  3667  1  0.44028500  0.96534830  0.62210400  1
  C  3668  1  0.44602700  0.96621830  0.60442300  1
  C  3669  1  0.43562200  0.95952130  0.58982600  1
  C  3670  1  0.41922900  0.96856830  0.58421700  1
  C  3671  1  0.40870700  0.96186030  0.56915400  1
  C  3672  1  0.41501400  0.94598630  0.55955600  1
  C  3673  1  0.43127900  0.93660730  0.56504700  1
  C  3674  1  0.44163300  0.94370430  0.58007000  1
  C  3675  1  0.43696700  0.92095330  0.55544000  1
  C  3676  1  0.44136400  0.90491130  0.56377900  1
  C  3677  1  0.44707100  0.88929200  0.55428900  1
  C  3678  1  0.46469000  0.88167700  0.55792500  1
  C  3679  1  0.43521100  0.88008400  0.54176900  1
  C  3680  1  0.44087800  0.86355200  0.53316600  1
  C  3681  1  0.45841900  0.85568300  0.53691500  1
  C  3682  1  0.47033300  0.86520400  0.54922900  1
  C  3683  1  0.39286000  0.97128230  0.56370600  1
  C  3684  1  0.37652900  0.96296030  0.56052500  1
  C  3685  1  0.36093300  0.97244430  0.55479500  1
  C  3686  1  0.35189600  0.98516530  0.56656600  1
  C  3687  1  0.35340000  0.96889730  0.53713000  1
  C  3688  1  0.33715500  0.97791530  0.53133400  1
  C  3689  1  0.32781200  0.99047631  0.54313500  1
  C  3690  1  0.33558200  0.99407031  0.56075200  1
  C  3712  1  0.31014100  0.99984431  0.53799800  1
  C  3715  1  0.46333800  0.83770400  0.52801900  1
  C  3718  1  0.48222600  0.99227931  0.68392300  1
  C  3721  1  0.07003600  0.98982630  0.79258700  1
  C  3722  1  0.06116500  0.97757330  0.80501900  1
  C  3723  1  0.07068700  0.96996930  0.82022000  1
  C  3724  1  0.08940900  0.97458230  0.82364500  1
  C  3725  1  0.09837300  0.98667530  0.81114500  1
  C  3726  1  0.08886700  0.99414231  0.79587800  1
  C  3727  1  0.09931000  0.96723730  0.83845100  1
  C  3728  1  0.09276100  0.96588630  0.85583200  1
  C  3729  1  0.10325200  0.95935330  0.87050500  1
  C  3730  1  0.11926600  0.96894130  0.87637300  1
  C  3731  1  0.12970000  0.96270130  0.89168900  1
  C  3732  1  0.12369100  0.94681330  0.90140180  1
  C  3733  1  0.10772000  0.93701930  0.89579000  1
  C  3734  1  0.09749900  0.94350730  0.88040800  1
  C  3735  1  0.10203700  0.92164330  0.90575680  1
  C  3736  1  0.10060100  0.90466730  0.89827800  1
  C  3737  1  0.09617000  0.88902900  0.90847380  1
  C  3738  1  0.07940700  0.88773100  0.91849580  1
  C  3739  1  0.10837100  0.87375000  0.90854480  1
  C  3740  1  0.10399500  0.85761700  0.91852080  1
  C  3741  1  0.08727400  0.85627900  0.92859980  1
  C  3742  1  0.07508600  0.87159100  0.92851680  1
  C  3743  1  0.14516000  0.97259130  0.89732900  1
  C  3744  1  0.16209700  0.96504130  0.89892000  1
  C  3745  1  0.17775200  0.97512630  0.90356580  1
  C  3746  1  0.19346200  0.97452930  0.89193500  1
  C  3747  1  0.17864200  0.98568630  0.92002580  1
  C  3748  1  0.19476800  0.99562131  0.92456680  1
  C  3749  1  0.21048400  0.99507831  0.91292080  1
  C  3750  1  0.20958800  0.98441730  0.89653600  1
  C  3772  1  0.22751900  0.00551700  0.91792780  1
  C  3775  1  0.08248700  0.83918900  0.93906380  1
  C  3778  1  0.05927200  0.99725531  0.77658200  1
  C  3781  1  0.06930900  0.60937800  0.66744200  1
  C  3782  1  0.06083500  0.62079700  0.65398700  1
  C  3783  1  0.07088200  0.62753900  0.63873800  1
  C  3784  1  0.08975700  0.62290700  0.63636600  1
  C  3785  1  0.09836700  0.61176900  0.64994700  1
  C  3786  1  0.08830400  0.60510600  0.66523200  1
  C  3787  1  0.10006500  0.62951500  0.62153500  1
  C  3788  1  0.09426000  0.62911400  0.60385400  1
  C  3789  1  0.10485100  0.63571600  0.58934000  1
  C  3790  1  0.12100300  0.62630200  0.58365600  1
  C  3791  1  0.13172000  0.63292200  0.56870200  1
  C  3792  1  0.12595000  0.64909700  0.55929900  1
  C  3793  1  0.10986000  0.65878600  0.56479900  1
  C  3794  1  0.09926400  0.65176100  0.57970200  1
  C  3795  1  0.10439400  0.67451500  0.55516800  1
  C  3796  1  0.09963800  0.69048400  0.56345900  1
  C  3797  1  0.09368200  0.70598600  0.55391200  1
  C  3798  1  0.07590900  0.71327500  0.55748700  1
  C  3799  1  0.10534000  0.71532500  0.54129800  1
  C  3800  1  0.09932400  0.73165400  0.53254700  1
  C  3801  1  0.08162000  0.73919000  0.53622500  1
  C  3802  1  0.06991800  0.72954600  0.54864500  1
  C  3803  1  0.14727600  0.62313300  0.56318200  1
  C  3804  1  0.16427300  0.63064600  0.56222200  1
  C  3805  1  0.18003400  0.62057500  0.55787500  1
  C  3806  1  0.19562000  0.62142900  0.56965800  1
  C  3807  1  0.18112400  0.60969600  0.54163500  1
  C  3808  1  0.19731000  0.59970200  0.53746500  1
  C  3809  1  0.21290400  0.60053000  0.54925200  1
  C  3810  1  0.21182200  0.61150700  0.56541300  1
  C  3832  1  0.23002600  0.59010100  0.54456300  1
  C  3835  1  0.07631800  0.75697400  0.52715200  1
  C  3838  1  0.05788500  0.60267500  0.68327100  1
  C  3841  1  0.70737300  0.50097400  0.92005380  1
  C  3842  1  0.69433600  0.50952100  0.90821280  1
  C  3843  1  0.67911700  0.49962900  0.90116680  1
  C  3844  1  0.67630900  0.48084400  0.90592580  1
  C  3845  1  0.68943600  0.47219300  0.91757780  1
  C  3846  1  0.70470700  0.48208600  0.92452280  1
  C  3847  1  0.66154300  0.47060700  0.89899500  1
  C  3848  1  0.64400800  0.47680100  0.89810900  1
  C  3849  1  0.62952800  0.46613800  0.89150100  1
  C  3850  1  0.62331900  0.45050600  0.90146680  1
  C  3851  1  0.60819600  0.43995500  0.89503100  1
  C  3852  1  0.59911100  0.44531100  0.87856600  1
  C  3853  1  0.60502700  0.46094000  0.86837200  1
  C  3854  1  0.62015700  0.47138700  0.87516000  1
  C  3855  1  0.59529200  0.46614000  0.85258900  1
  C  3856  1  0.60328800  0.47120500  0.83656400  1
  C  3857  1  0.59327700  0.47593900  0.82092700  1
  C  3858  1  0.59468200  0.49394400  0.81347300  1
  C  3859  1  0.58217900  0.46275600  0.81169700  1
  C  3860  1  0.57276400  0.46751400  0.79533100  1
  C  3861  1  0.57422900  0.48546900  0.78764400  1
  C  3862  1  0.58515600  0.49867600  0.79715100  1
  C  3863  1  0.60160100  0.42532700  0.90545780  1
  C  3864  1  0.60274100  0.40759500  0.89993500  1
  C  3865  1  0.59530400  0.39284500  0.90980580  1
  C  3866  1  0.59782900  0.39090300  0.92912780  1
  C  3867  1  0.58501400  0.37914500  0.90037180  1
  C  3868  1  0.57707100  0.36421900  0.91002680  1
  C  3869  1  0.57911500  0.36252000  0.92944280  1
  C  3870  1  0.58977400  0.37603100  0.93876680  1
  C  3892  1  0.57074800  0.34721400  0.94048380  1
  C  3895  1  0.56455400  0.48935600  0.76981100  1
  C  3898  1  0.72333200  0.51215800  0.92687280  1
  C  3901  1  0.83067800  0.49765500  0.53917500  1
  C  3902  1  0.84301900  0.50657000  0.55148600  1
  C  3903  1  0.85790100  0.49695700  0.55959100  1
  C  3904  1  0.86111900  0.47809300  0.55542500  1
  C  3905  1  0.84873600  0.46911400  0.54321800  1
  C  3906  1  0.83377300  0.47870600  0.53526300  1
  C  3907  1  0.87548500  0.46802000  0.56341100  1
  C  3908  1  0.89283500  0.47435900  0.56573600  1
  C  3909  1  0.90687180  0.46354900  0.57301900  1
  C  3910  1  0.91459380  0.44896800  0.56250800  1
  C  3911  1  0.92887880  0.43782900  0.56985100  1
  C  3912  1  0.93565580  0.44160900  0.58780500  1
  C  3913  1  0.92835580  0.45636000  0.59835200  1
  C  3914  1  0.91393380  0.46725900  0.59087200  1
  C  3915  1  0.93518680  0.45971700  0.61592100  1
  C  3916  1  0.94572580  0.47450400  0.61999900  1
  C  3917  1  0.95305680  0.47793700  0.63745200  1
  C  3918  1  0.95160480  0.49580600  0.64526900  1
  C  3919  1  0.96273480  0.46417400  0.64746100  1
  C  3920  1  0.97024780  0.46806600  0.66499800  1
  C  3921  1  0.96846180  0.48581100  0.67307200  1
  C  3922  1  0.95915680  0.49966900  0.66280800  1
  C  3923  1  0.93663580  0.42394500  0.55917200  1
  C  3924  1  0.93552480  0.40590500  0.56361000  1
  C  3925  1  0.94379480  0.39181200  0.55344600  1
  C  3926  1  0.94233180  0.39077900  0.53394500  1
  C  3927  1  0.95361580  0.37770100  0.56277100  1
  C  3928  1  0.96206380  0.36321200  0.55288400  1
  C  3929  1  0.96097580  0.36234200  0.53333500  1
  C  3930  1  0.95086380  0.37631600  0.52408100  1
  C  3952  1  0.96965480  0.34733400  0.52212200  1
  C  3955  1  0.97649480  0.48896100  0.69183700  1
  C  3958  1  0.81493700  0.50849000  0.53129600  1
  C  3961  1  0.70881200  0.09449400  0.54182400  1
  C  3962  1  0.69579900  0.08617400  0.55385300  1
  C  3963  1  0.68096500  0.09637800  0.56127200  1
  C  3964  1  0.67851100  0.11526200  0.55670700  1
  C  3965  1  0.69157400  0.12365800  0.54479600  1
  C  3966  1  0.70646700  0.11345500  0.53748300  1
  C  3967  1  0.66426100  0.12586500  0.56416500  1
  C  3968  1  0.64663400  0.12011800  0.56581900  1
  C  3969  1  0.63280400  0.13121600  0.57302600  1
  C  3970  1  0.62538300  0.14592500  0.56248800  1
  C  3971  1  0.61125000  0.15728500  0.56978600  1
  C  3972  1  0.60433500  0.15360900  0.58771100  1
  C  3973  1  0.61135600  0.13874300  0.59828200  1
  C  3974  1  0.62562600  0.12761900  0.59085300  1
  C  3975  1  0.60436100  0.13543100  0.61579600  1
  C  3976  1  0.59384800  0.12061200  0.61982400  1
  C  3977  1  0.58642700  0.11717100  0.63723200  1
  C  3978  1  0.58788600  0.09930700  0.64506000  1
  C  3979  1  0.57668900  0.13092100  0.64719800  1
  C  3980  1  0.56913200  0.12702700  0.66471300  1
  C  3981  1  0.57093700  0.10929300  0.67280500  1
  C  3982  1  0.58028800  0.09544100  0.66257700  1
  C  3983  1  0.60369300  0.17124900  0.55907300  1
  C  3984  1  0.60495400  0.18927400  0.56353100  1
  C  3985  1  0.59672500  0.20341600  0.55340900  1
  C  3986  1  0.59810500  0.20444400  0.53390400  1
  C  3987  1  0.58693400  0.21752000  0.56278000  1
  C  3988  1  0.57842100  0.23199000  0.55292400  1
  C  3989  1  0.57939800  0.23283600  0.53336900  1
  C  3990  1  0.58950300  0.21888300  0.52407300  1
  C  4012  1  0.57058200  0.24777600  0.52218100  1
  C  4015  1  0.56290300  0.10615900  0.69157100  1
  C  4018  1  0.72447500  0.08303800  0.53476000  1
  C  4021  1  0.83007000  0.09781500  0.92372180  1
  C  4022  1  0.84229100  0.08916000  0.91110680  1
  C  4023  1  0.85719300  0.09889800  0.90319780  1
  C  4024  1  0.86054400  0.11761700  0.90787880  1
  C  4025  1  0.84828800  0.12634400  0.92038880  1
  C  4026  1  0.83330700  0.11662800  0.92814880  1
  C  4027  1  0.87492500  0.12778700  0.90008680  1
  C  4028  1  0.89228400  0.12145300  0.89784500  1
  C  4029  1  0.90633780  0.13224100  0.89058600  1
  C  4030  1  0.91406280  0.14684100  0.90105680  1
  C  4031  1  0.92842880  0.15787400  0.89371800  1
  C  4032  1  0.93528280  0.15398100  0.87581600  1
  C  4033  1  0.92797980  0.13920200  0.86531900  1
  C  4034  1  0.91346380  0.12841900  0.87278900  1
  C  4035  1  0.93496980  0.13558500  0.84786300  1
  C  4036  1  0.94451480  0.12012100  0.84385700  1
  C  4037  1  0.95146080  0.11611500  0.82639900  1
  C  4038  1  0.94801480  0.09859600  0.81844000  1
  C  4039  1  0.96249980  0.12887300  0.81647600  1
  C  4040  1  0.96948780  0.12435000  0.79886900  1
  C  4041  1  0.96571480  0.10699100  0.79064200  1
  C  4042  1  0.95500180  0.09412500  0.80082800  1
  C  4043  1  0.93624780  0.17172200  0.90437880  1
  C  4044  1  0.93521180  0.18975900  0.89991700  1
  C  4045  1  0.94360180  0.20378900  0.91005480  1
  C  4046  1  0.94215380  0.20484600  0.92955280  1
  C  4047  1  0.95359980  0.21776100  0.90070980  1
  C  4048  1  0.96223980  0.23213800  0.91058980  1
  C  4049  1  0.96117780  0.23301800  0.93013880  1
  C  4050  1  0.95088180  0.21918900  0.93940680  1
  C  4072  1  0.97005780  0.24790300  0.94134880  1
  C  4075  1  0.97333480  0.10303000  0.77186400  1
  C  4078  1  0.81428400  0.08687800  0.93135180  1
  C  4081  1  0.07744300  0.49756100  0.16996100  1
  C  4082  1  0.08826600  0.50709500  0.15672000  1
  C  4083  1  0.09601200  0.49781200  0.14144200  1
  C  4084  1  0.09300400  0.47864600  0.13878100  1
  C  4085  1  0.08235400  0.46904200  0.15209500  1
  C  4086  1  0.07472300  0.47832600  0.16741600  1
  C  4087  1  0.10062200  0.46893300  0.12398600  1
  C  4088  1  0.10090900  0.47503400  0.10639900  1
  C  4089  1  0.10777400  0.46452000  0.09192800  1
  C  4090  1  0.09805900  0.44874600  0.08569100  1
  C  4091  1  0.10476700  0.43814300  0.07071200  1
  C  4092  1  0.12129200  0.44361700  0.06178900  1
  C  4093  1  0.13124800  0.45936900  0.06777500  1
  C  4094  1  0.12418500  0.46985900  0.08275000  1
  C  4095  1  0.14717500  0.46466200  0.05836100  1
  C  4096  1  0.16319500  0.46900600  0.06677500  1
  C  4097  1  0.17895200  0.47440600  0.05729100  1
  C  4098  1  0.18678700  0.49196600  0.06074000  1
  C  4099  1  0.18795100  0.46237900  0.04477000  1
  C  4100  1  0.20445000  0.46783300  0.03596400  1
  C  4101  1  0.21249900  0.48534000  0.03947400  1
  C  4102  1  0.20322400  0.49740200  0.05183600  1
  C  4103  1  0.09458600  0.42320400  0.06438200  1
  C  4104  1  0.10080400  0.40567000  0.06485200  1
  C  4105  1  0.09064300  0.39061700  0.05852600  1
  C  4106  1  0.07201700  0.38777600  0.06384900  1
  C  4107  1  0.09909100  0.37741000  0.04683400  1
  C  4108  1  0.08905500  0.36207600  0.04023600  1
  C  4109  1  0.07026300  0.35944700  0.04513800  1
  C  4110  1  0.06200200  0.37247600  0.05718600  1
  C  4132  1  0.05881500  0.34365100  0.03839600  1
  C  4135  1  0.23034300  0.49010100  0.03020900  1
  C  4138  1  0.06977100  0.50811200  0.18598900  1
  C  4141  1  0.45698300  0.49782700  0.29294600  1
  C  4142  1  0.44500200  0.50607200  0.30605000  1
  C  4143  1  0.43836600  0.49602200  0.32134600  1
  C  4144  1  0.44364800  0.47737300  0.32410000  1
  C  4145  1  0.45530500  0.46895900  0.31083700  1
  C  4146  1  0.46187400  0.47902700  0.29551400  1
  C  4147  1  0.43723000  0.46708900  0.33902900  1
  C  4148  1  0.43735500  0.47316700  0.35662000  1
  C  4149  1  0.43096500  0.46262600  0.37126400  1
  C  4150  1  0.44088000  0.44693500  0.37737300  1
  C  4151  1  0.43451600  0.43640300  0.39255600  1
  C  4152  1  0.41813000  0.44183500  0.40176600  1
  C  4153  1  0.40797300  0.45748900  0.39587200  1
  C  4154  1  0.41471900  0.46793800  0.38073200  1
  C  4155  1  0.39217100  0.46280400  0.40547600  1
  C  4156  1  0.37609500  0.46721300  0.39719900  1
  C  4157  1  0.36056500  0.47305700  0.40676700  1
  C  4158  1  0.35309100  0.49074000  0.40314600  1
  C  4159  1  0.35142400  0.46138400  0.41950800  1
  C  4160  1  0.33510400  0.46729800  0.42834600  1
  C  4161  1  0.32738800  0.48491600  0.42464000  1
  C  4162  1  0.33683000  0.49663200  0.41207900  1
  C  4163  1  0.44488900  0.42156700  0.39880100  1
  C  4164  1  0.43883400  0.40397800  0.39831300  1
  C  4165  1  0.44912200  0.38900900  0.40463400  1
  C  4166  1  0.46780200  0.38636400  0.39939700  1
  C  4167  1  0.44074900  0.37569000  0.41625200  1
  C  4168  1  0.45090000  0.36043500  0.42285300  1
  C  4169  1  0.46974000  0.35800000  0.41803800  1
  C  4170  1  0.47793400  0.37114300  0.40606800  1
  C  4192  1  0.48130400  0.34229400  0.42479800  1
  C  4195  1  0.30966900  0.49013700  0.43387800  1
  C  4198  1  0.46366600  0.50928200  0.27712700  1
  C  4201  1  0.45688500  0.09717900  0.16932200  1
  C  4202  1  0.44483100  0.08890700  0.15630400  1
  C  4203  1  0.43814500  0.09891000  0.14099800  1
  C  4204  1  0.44345000  0.11753400  0.13813200  1
  C  4205  1  0.45519500  0.12596900  0.15130500  1
  C  4206  1  0.46181500  0.11595100  0.16664100  1
  C  4207  1  0.43696100  0.12779200  0.12320200  1
  C  4208  1  0.43676900  0.12160900  0.10564600  1
  C  4209  1  0.43035200  0.13214400  0.09100000  1
  C  4210  1  0.44027300  0.14781800  0.08484800  1
  C  4211  1  0.43392100  0.15831500  0.06963500  1
  C  4212  1  0.41753900  0.15286300  0.06043200  1
  C  4213  1  0.40737500  0.13721800  0.06635100  1
  C  4214  1  0.41411900  0.12680900  0.08152300  1
  C  4215  1  0.39159700  0.13186500  0.05671600  1
  C  4216  1  0.37553800  0.12729900  0.06494500  1
  C  4217  1  0.36001900  0.12147200  0.05533900  1
  C  4218  1  0.35253200  0.10378400  0.05891500  1
  C  4219  1  0.35086000  0.13318500  0.04264300  1
  C  4220  1  0.33451100  0.12731400  0.03382700  1
  C  4221  1  0.32677500  0.10969900  0.03750600  1
  C  4222  1  0.33624500  0.09793300  0.05000200  1
  C  4223  1  0.44432100  0.17311600  0.06334800  1
  C  4224  1  0.43831200  0.19072200  0.06378100  1
  C  4225  1  0.44866500  0.20565900  0.05748100  1
  C  4226  1  0.46733700  0.20824700  0.06276900  1
  C  4227  1  0.44035800  0.21902000  0.04585900  1
  C  4228  1  0.45056700  0.23426200  0.03931400  1
  C  4229  1  0.46939500  0.23664700  0.04419300  1
  C  4230  1  0.47752400  0.22345600  0.05615400  1
  C  4252  1  0.48101100  0.25235200  0.03752100  1
  C  4255  1  0.30899600  0.10454400  0.02833200  1
  C  4258  1  0.46359600  0.08577900  0.18517400  1
  C  4261  1  0.07987400  0.09848500  0.29423600  1
  C  4262  1  0.09031700  0.08871800  0.30760500  1
  C  4263  1  0.09857300  0.09793700  0.32263700  1
  C  4264  1  0.09648200  0.11727500  0.32488000  1
  C  4265  1  0.08637200  0.12713700  0.31134100  1
  C  4266  1  0.07822700  0.11790300  0.29626200  1
  C  4267  1  0.10418200  0.12680000  0.33972500  1
  C  4268  1  0.10327200  0.12100100  0.35738700  1
  C  4269  1  0.10982600  0.13143600  0.37201400  1
  C  4270  1  0.09981500  0.14704800  0.37818200  1
  C  4271  1  0.10602600  0.15747100  0.39349300  1
  C  4272  1  0.12228300  0.15194100  0.40285200  1
  C  4273  1  0.13247500  0.13634400  0.39689300  1
  C  4274  1  0.12602900  0.12606400  0.38152800  1
  C  4275  1  0.14808700  0.13093700  0.40664200  1
  C  4276  1  0.16489900  0.12926800  0.39884800  1
  C  4277  1  0.18070100  0.12488700  0.40881000  1
  C  4278  1  0.18185600  0.10852200  0.41948200  1
  C  4279  1  0.19625300  0.13671200  0.40801500  1
  C  4280  1  0.21251100  0.13237100  0.41780300  1
  C  4281  1  0.21368400  0.11606500  0.42855500  1
  C  4282  1  0.19811100  0.10424400  0.42932100  1
  C  4283  1  0.09562500  0.17228400  0.39971700  1
  C  4284  1  0.10164500  0.18988100  0.39914500  1
  C  4285  1  0.09129700  0.20483500  0.40537600  1
  C  4286  1  0.07267300  0.20746500  0.39994400  1
  C  4287  1  0.09953700  0.21813200  0.41711100  1
  C  4288  1  0.08929100  0.23334800  0.42365200  1
  C  4289  1  0.07049600  0.23576200  0.41865100  1
  C  4290  1  0.06245000  0.22265100  0.40655100  1
  C  4312  1  0.05883800  0.25142800  0.42533600  1
  C  4315  1  0.23088000  0.11126900  0.43881800  1
  C  4318  1  0.07130400  0.08790000  0.27872400  1
  C  4321  1  0.20587500  0.49970700  0.42224700  1
  C  4322  1  0.19245600  0.50788900  0.41057400  1
  C  4323  1  0.17736900  0.49761000  0.40380500  1
  C  4324  1  0.17507400  0.47878100  0.40867400  1
  C  4325  1  0.18858700  0.47048900  0.42014300  1
  C  4326  1  0.20372300  0.48077600  0.42682100  1
  C  4327  1  0.16043300  0.46819600  0.40198500  1
  C  4328  1  0.14273900  0.47396700  0.40152600  1
  C  4329  1  0.12835200  0.46316800  0.39491700  1
  C  4330  1  0.12258300  0.44714100  0.40453300  1
  C  4331  1  0.10742100  0.43652000  0.39820700  1
  C  4332  1  0.09782300  0.44235900  0.38216700  1
  C  4333  1  0.10339400  0.45830300  0.37230400  1
  C  4334  1  0.11858200  0.46871800  0.37892100  1
  C  4335  1  0.09351600  0.46388200  0.35681500  1
  C  4336  1  0.10125200  0.46596000  0.34002000  1
  C  4337  1  0.09121600  0.47058400  0.32434900  1
  C  4338  1  0.08156400  0.48755600  0.32305100  1
  C  4339  1  0.09100700  0.45843600  0.30903500  1
  C  4340  1  0.08122900  0.46307400  0.29285200  1
  C  4341  1  0.07151100  0.48000700  0.29149900  1
  C  4342  1  0.07174500  0.49213900  0.30685600  1
  C  4343  1  0.10169600  0.42114200  0.40821700  1
  C  4344  1  0.09956400  0.40423700  0.40072700  1
  C  4345  1  0.09450900  0.38871500  0.41083300  1
  C  4346  1  0.10564600  0.37266000  0.41013100  1
  C  4347  1  0.07794100  0.38820100  0.42125500  1
  C  4348  1  0.07276500  0.37206600  0.43087600  1
  C  4349  1  0.08393900  0.35602000  0.43026300  1
  C  4350  1  0.10047100  0.35657200  0.41979500  1
  C  4372  1  0.07814000  0.33887000  0.44011900  1
  C  4375  1  0.06121500  0.48503500  0.27437200  1
  C  4378  1  0.22169500  0.51129100  0.42873700  1
  C  4381  1  0.33453400  0.49953500  0.04154100  1
  C  4382  1  0.34781300  0.50793200  0.05322000  1
  C  4383  1  0.36305400  0.49789700  0.06002100  1
  C  4384  1  0.36567400  0.47910700  0.05516300  1
  C  4385  1  0.35230400  0.47060500  0.04367300  1
  C  4386  1  0.33700000  0.48064000  0.03698000  1
  C  4387  1  0.38047700  0.46874400  0.06188400  1
  C  4388  1  0.39805300  0.47484700  0.06264500  1
  C  4389  1  0.41260600  0.46423800  0.06924100  1
  C  4390  1  0.41850000  0.44822000  0.05968600  1
  C  4391  1  0.43383000  0.43780600  0.06596100  1
  C  4392  1  0.44345900  0.44383600  0.08191300  1
  C  4393  1  0.43778800  0.45978500  0.09173100  1
  C  4394  1  0.42244300  0.46999100  0.08512700  1
  C  4395  1  0.44774500  0.46560000  0.10711200  1
  C  4396  1  0.44004300  0.46833900  0.12383500  1
  C  4397  1  0.45005100  0.47335300  0.13943300  1
  C  4398  1  0.46052300  0.48988100  0.14002200  1
  C  4399  1  0.44915200  0.46224800  0.15550100  1
  C  4400  1  0.45866800  0.46742000  0.17168100  1
  C  4401  1  0.46916700  0.48392700  0.17232800  1
  C  4402  1  0.46997900  0.49506400  0.15625900  1
  C  4403  1  0.43964400  0.42245100  0.05595900  1
  C  4404  1  0.44182300  0.40554700  0.06343900  1
  C  4405  1  0.44669700  0.38999400  0.05327500  1
  C  4406  1  0.43546400  0.37400800  0.05408100  1
  C  4407  1  0.46310400  0.38939600  0.04260600  1
  C  4408  1  0.46803100  0.37325500  0.03285700  1
  C  4409  1  0.45675300  0.35728300  0.03356800  1
  C  4410  1  0.44038500  0.35791700  0.04428700  1
  C  4432  1  0.46224700  0.34013900  0.02351500  1
  C  4435  1  0.47889000  0.48969800  0.18957500  1
  C  4438  1  0.31854700  0.51087700  0.03501900  1
  C  4441  1  0.20498000  0.09507500  0.04075400  1
  C  4442  1  0.19159200  0.08678300  0.05238600  1
  C  4443  1  0.17642900  0.09695200  0.05916300  1
  C  4444  1  0.17403100  0.11578100  0.05434600  1
  C  4445  1  0.18750600  0.12417800  0.04290600  1
  C  4446  1  0.20271300  0.11400100  0.03621800  1
  C  4447  1  0.15937900  0.12630000  0.06111800  1
  C  4448  1  0.14169900  0.12049000  0.06171500  1
  C  4449  1  0.12736900  0.13131100  0.06843700  1
  C  4450  1  0.12164200  0.14740000  0.05891800  1
  C  4451  1  0.10673000  0.15820800  0.06549700  1
  C  4452  1  0.09741200  0.15254900  0.08176600  1
  C  4453  1  0.10289000  0.13652000  0.09159000  1
  C  4454  1  0.11776500  0.12586800  0.08457000  1
  C  4455  1  0.09313200  0.13124000  0.10735400  1
  C  4456  1  0.10114300  0.12561400  0.12319300  1
  C  4457  1  0.09125400  0.12070300  0.13887100  1
  C  4458  1  0.09291500  0.10267700  0.14623100  1
  C  4459  1  0.08025700  0.13376700  0.14839300  1
  C  4460  1  0.07121200  0.12887700  0.16493300  1
  C  4461  1  0.07295300  0.11090200  0.17252300  1
  C  4462  1  0.08375100  0.09780700  0.16272100  1
  C  4463  1  0.10101400  0.17361600  0.05552100  1
  C  4464  1  0.09922300  0.19058500  0.06295500  1
  C  4465  1  0.09429500  0.20614700  0.05283500  1
  C  4466  1  0.10555100  0.22211900  0.05356400  1
  C  4467  1  0.07777100  0.20679100  0.04235000  1
  C  4468  1  0.07274800  0.22296600  0.03271400  1
  C  4469  1  0.08403300  0.23893400  0.03338000  1
  C  4470  1  0.10052800  0.23825000  0.04389400  1
  C  4492  1  0.07837100  0.25614500  0.02355100  1
  C  4495  1  0.06373200  0.10689700  0.19058000  1
  C  4498  1  0.22087700  0.08360400  0.03424500  1
  C  4501  1  0.33363400  0.09830600  0.42304300  1
  C  4502  1  0.34562900  0.08985200  0.41007700  1
  C  4503  1  0.36091700  0.09942700  0.40271600  1
  C  4504  1  0.36488300  0.11777600  0.40828900  1
  C  4505  1  0.35280100  0.12635100  0.42107100  1
  C  4506  1  0.33744100  0.11679800  0.42829800  1
  C  4507  1  0.37980900  0.12769700  0.40120500  1
  C  4508  1  0.39703200  0.12085300  0.39935700  1
  C  4509  1  0.41186600  0.13117800  0.39287600  1
  C  4510  1  0.41804600  0.14704200  0.40252200  1
  C  4511  1  0.43360600  0.15718200  0.39637700  1
  C  4512  1  0.44322100  0.15101200  0.38047500  1
  C  4513  1  0.43731300  0.13519800  0.37058200  1
  C  4514  1  0.42171500  0.12528100  0.37704100  1
  C  4515  1  0.44727000  0.12925600  0.35524700  1
  C  4516  1  0.43966300  0.12682800  0.33843300  1
  C  4517  1  0.44970800  0.12179400  0.32285400  1
  C  4518  1  0.46010400  0.10521800  0.32224400  1
  C  4519  1  0.44894200  0.13296300  0.30682000  1
  C  4520  1  0.45849700  0.12780100  0.29065800  1
  C  4521  1  0.46891600  0.11124300  0.28999400  1
  C  4522  1  0.46960900  0.10004800  0.30602700  1
  C  4523  1  0.43958800  0.17244500  0.40642200  1
  C  4524  1  0.44193800  0.18934000  0.39897500  1
  C  4525  1  0.44683500  0.20485900  0.40918300  1
  C  4526  1  0.43572400  0.22092400  0.40826600  1
  C  4527  1  0.46313600  0.20534300  0.42002000  1
  C  4528  1  0.46807600  0.22145300  0.42981500  1
  C  4529  1  0.45691600  0.23750200  0.42899400  1
  C  4530  1  0.44065300  0.23698200  0.41811000  1
  C  4552  1  0.46241700  0.25461400  0.43910200  1
  C  4555  1  0.47868400  0.10548500  0.27276400  1
  C  4558  1  0.31754800  0.08748300  0.43022200  1
  C  4561  1  0.55815800  0.77848400  0.44197200  1
  C  4562  1  0.56257300  0.79581600  0.43406500  1
  C  4563  1  0.55377900  0.81213000  0.44014800  1
  C  4564  1  0.54013700  0.81095900  0.45412100  1
  C  4565  1  0.53509600  0.79364200  0.46169800  1
  C  4566  1  0.54435400  0.77754700  0.45571800  1
  C  4576  1  0.98078580  0.81592600  0.44125500  1
  C  4577  1  0.97650280  0.79861800  0.43321700  1
  C  4578  1  0.98542080  0.78232400  0.43917200  1
  C  4579  1  0.99904477  0.78348700  0.45316200  1
  C  4580  1  0.00393300  0.80077400  0.46089800  1
  C  4581  1  0.99456877  0.81684900  0.45502600  1
  C  4591  1  0.55786200  0.81670300  0.02030400  1
  C  4592  1  0.56235400  0.79940100  0.02823700  1
  C  4593  1  0.55360800  0.78304600  0.02220800  1
  C  4594  1  0.53995300  0.78413200  0.00824200  1
  C  4595  1  0.53485300  0.80141100  0.00062000  1
  C  4596  1  0.54404600  0.81755600  0.00656300  1
  C  4606  1  0.97694180  0.77992000  0.01367000  1
  C  4607  1  0.97402180  0.79693600  0.02285700  1
  C  4608  1  0.98245380  0.81331600  0.01649200  1
  C  4609  1  0.99407877  0.81256500  0.00079200  1
  C  4610  1  0.99756777  0.79557600  0.99172481  1
  C  4611  1  0.98881880  0.77938100  0.99819481  1
  C  4621  1  0.75162000  0.50879300  0.51869200  1
  C  4622  1  0.76891000  0.50087600  0.52326100  1
  C  4623  1  0.78530700  0.50693700  0.51460800  1
  C  4624  1  0.78427500  0.52090800  0.50095600  1
  C  4625  1  0.76700900  0.52849200  0.49575500  1
  C  4626  1  0.75082200  0.52252900  0.50486800  1
  C  4636  1  0.78687600  0.51396400  0.93781180  1
  C  4637  1  0.76975100  0.50507500  0.93460780  1
  C  4638  1  0.75333800  0.51174300  0.94275280  1
  C  4639  1  0.75418200  0.52742100  0.95440080  1
  C  4640  1  0.77126500  0.53619200  0.95816380  1
  C  4641  1  0.78748700  0.52944200  0.94967780  1
  C  4651  1  0.78805000  0.08087200  0.52407900  1
  C  4652  1  0.77093700  0.08981500  0.52719800  1
  C  4653  1  0.75454900  0.08323300  0.51893800  1
  C  4654  1  0.75539500  0.06755500  0.50729000  1
  C  4655  1  0.77247100  0.05872500  0.50360800  1
  C  4656  1  0.78866900  0.06541200  0.51219000  1
  C  4666  1  0.75100500  0.08686000  0.94343380  1
  C  4667  1  0.76842300  0.09466900  0.93920080  1
  C  4668  1  0.78463600  0.08833200  0.94799280  1
  C  4669  1  0.78329600  0.07416000  0.96140580  1
  C  4670  1  0.76588400  0.06668800  0.96627980  1
  C  4671  1  0.74987900  0.07293800  0.95704280  1
  C  4681  1  0.48505100  0.58941800  0.71521400  1
  C  4682  1  0.47574900  0.59361500  0.73191300  1
  C  4683  1  0.48214200  0.58668400  0.74897900  1
  C  4684  1  0.49809500  0.57538900  0.74928800  1
  C  4685  1  0.50744900  0.57085600  0.73278500  1
  C  4686  1  0.50084300  0.57795600  0.71578700  1
  C  4696  1  0.48623200  0.00471200  0.74719000  1
  C  4697  1  0.47674000  0.00086800  0.73051500  1
  C  4698  1  0.48261300  0.00862500  0.71362000  1
  C  4699  1  0.49819700  0.02041800  0.71346000  1
  C  4700  1  0.50769500  0.02463500  0.72996100  1
  C  4701  1  0.50160900  0.01673100  0.74679200  1
  C  4711  1  0.05367300  0.59054700  0.74657100  1
  C  4712  1  0.06323100  0.59426400  0.72990400  1
  C  4713  1  0.05738900  0.58643100  0.71303200  1
  C  4714  1  0.04177500  0.57467000  0.71289700  1
  C  4715  1  0.03222100  0.57056500  0.72939400  1
  C  4716  1  0.03827100  0.57856000  0.74619500  1
  C  4726  1  0.05943500  0.00848100  0.71315900  1
  C  4727  1  0.06719900  0.00442400  0.73064100  1
  C  4728  1  0.06093900  0.01350400  0.74672800  1
  C  4729  1  0.04693600  0.02707400  0.74517400  1
  C  4730  1  0.03951600  0.03177400  0.72768900  1
  C  4731  1  0.04567500  0.02223700  0.71182600  1
  C  4741  1  0.75249800  0.58621600  0.01997800  1
  C  4742  1  0.76982800  0.59034700  0.02804000  1
  C  4743  1  0.78601500  0.58114300  0.02224800  1
  C  4744  1  0.78474000  0.56743300  0.00835800  1
  C  4745  1  0.76742000  0.56271800  0.00058700  1
  C  4746  1  0.75144000  0.57232600  0.00632700  1
  C  4756  1  0.78601600  0.00379200  0.01414300  1
  C  4757  1  0.76918800  0.00054700  0.02356400  1
  C  4758  1  0.75256000  0.00866100  0.01740300  1
  C  4759  1  0.75289300  0.02027400  0.00167100  1
  C  4760  1  0.76968200  0.02401000  0.99233681  1
  C  4761  1  0.78611800  0.01558500  0.99860381  1
  C  4771  1  0.78623600  0.59157000  0.44715200  1
  C  4772  1  0.76919500  0.59439800  0.43797400  1
  C  4773  1  0.75285200  0.58590400  0.44436100  1
  C  4774  1  0.75367200  0.57430700  0.46008000  1
  C  4775  1  0.77068000  0.57091700  0.46915100  1
  C  4776  1  0.78683300  0.57973000  0.46265500  1
  C  4786  1  0.75346500  0.00867000  0.44191700  1
  C  4787  1  0.77071100  0.00451200  0.43368500  1
  C  4788  1  0.78698200  0.01364700  0.43935600  1
  C  4789  1  0.78586700  0.02731800  0.45330300  1
  C  4790  1  0.76862100  0.03210500  0.46120400  1
  C  4791  1  0.75256600  0.02254700  0.45559300  1
  C  4801  1  0.48610900  0.78203400  0.93780980  1
  C  4802  1  0.47701700  0.79909300  0.93482780  1
  C  4803  1  0.48351700  0.81548600  0.94313680  1
  C  4804  1  0.49927400  0.81469700  0.95468480  1
  C  4805  1  0.50828700  0.79768100  0.95818780  1
  C  4806  1  0.50167700  0.78147800  0.94956080  1
  C  4816  1  0.48656400  0.81307600  0.52456600  1
  C  4817  1  0.47740100  0.79607200  0.52762900  1
  C  4818  1  0.48383500  0.77961600  0.51938800  1
  C  4819  1  0.49955400  0.78030400  0.50777600  1
  C  4820  1  0.50861000  0.79727600  0.50417200  1
  C  4821  1  0.50209200  0.81353300  0.51276400  1
  C  4831  1  0.05942500  0.81463200  0.94192680  1
  C  4832  1  0.06755600  0.79737500  0.93760980  1
  C  4833  1  0.06175000  0.78104500  0.94656180  1
  C  4834  1  0.04781400  0.78212600  0.96024980  1
  C  4835  1  0.04000600  0.79937100  0.96518280  1
  C  4836  1  0.04572700  0.81547800  0.95578680  1
  C  4846  1  0.05275900  0.78128300  0.52361600  1
  C  4847  1  0.06180900  0.79834900  0.52666500  1
  C  4848  1  0.05525200  0.81476100  0.51844700  1
  C  4849  1  0.03948600  0.81399400  0.50691000  1
  C  4850  1  0.03054300  0.79696400  0.50330000  1
  C  4851  1  0.03720800  0.78073400  0.51184000  1
  C  4861  1  0.55795400  0.51136700  0.74481400  1
  C  4862  1  0.56296400  0.50238600  0.72817300  1
  C  4863  1  0.55387200  0.50649200  0.71142800  1
  C  4864  1  0.53951000  0.51975400  0.71137200  1
  C  4865  1  0.53411900  0.52868400  0.72785400  1
  C  4866  1  0.54346300  0.52443800  0.74452500  1
  C  4876  1  0.98240080  0.51090200  0.71710900  1
  C  4877  1  0.97700980  0.50189500  0.73361500  1
  C  4878  1  0.98572780  0.50599400  0.75056900  1
  C  4879  1  0.00005700  0.51929300  0.75096000  1
  C  4880  1  0.00579500  0.52826800  0.73462200  1
  C  4881  1  0.99687277  0.52397400  0.71773900  1
  C  4891  1  0.55718500  0.08434400  0.71697400  1
  C  4892  1  0.56271400  0.09343900  0.73338300  1
  C  4893  1  0.55414600  0.08942500  0.75043200  1
  C  4894  1  0.53983200  0.07611800  0.75102300  1
  C  4895  1  0.53395700  0.06705800  0.73478400  1
  C  4896  1  0.54272900  0.07126500  0.71779900  1
  C  4906  1  0.97655980  0.07998600  0.74701600  1
  C  4907  1  0.97353580  0.08941000  0.73015000  1
  C  4908  1  0.98187080  0.08325600  0.71362600  1
  C  4909  1  0.99345777  0.06750600  0.71410200  1
  C  4910  1  0.99696677  0.05816400  0.73093700  1
  C  4911  1  0.98834080  0.06444100  0.74726500  1
  C  4921  1  0.25481500  0.51337500  0.02583100  1
  C  4922  1  0.27194700  0.50432400  0.02851400  1
  C  4923  1  0.28815800  0.51078400  0.01981000  1
  C  4924  1  0.28708300  0.52642500  0.00811500  1
  C  4925  1  0.26997200  0.53537000  0.00488900  1
  C  4926  1  0.25397700  0.52881700  0.01393700  1
  C  4936  1  0.28548100  0.51374300  0.43781200  1
  C  4937  1  0.26830200  0.50476300  0.43522500  1
  C  4938  1  0.25213300  0.51140700  0.44386000  1
  C  4939  1  0.25328400  0.52717500  0.45536800  1
  C  4940  1  0.27044800  0.53605400  0.45850000  1
  C  4941  1  0.28640800  0.52931400  0.44952900  1
  C  4951  1  0.28463600  0.08106800  0.02451500  1
  C  4952  1  0.26751600  0.09009400  0.02735700  1
  C  4953  1  0.25121200  0.08353500  0.01891400  1
  C  4954  1  0.25216400  0.06780200  0.00734100  1
  C  4955  1  0.26925000  0.05886600  0.00395700  1
  C  4956  1  0.28535200  0.06552900  0.01273600  1
  C  4966  1  0.25452500  0.08735500  0.44227700  1
  C  4967  1  0.27203700  0.09502600  0.43818400  1
  C  4968  1  0.28810900  0.08870900  0.44725800  1
  C  4969  1  0.28649200  0.07474500  0.46086900  1
  C  4970  1  0.26897100  0.06744300  0.46562300  1
  C  4971  1  0.25313300  0.07365800  0.45608500  1
  C  4981  1  0.98682880  0.59041200  0.21480400  1
  C  4982  1  0.97766380  0.59343800  0.23181800  1
  C  4983  1  0.98405980  0.58512900  0.24824900  1
  C  4984  1  0.99977677  0.57352400  0.24755600  1
  C  4985  1  0.00883200  0.56993700  0.23057800  1
  C  4986  1  0.00232500  0.57856000  0.21432700  1
  C  4996  1  0.98577680  0.00676700  0.24766800  1
  C  4997  1  0.97636380  0.00203500  0.23118000  1
  C  4998  1  0.98247780  0.00862400  0.21388400  1
  C  4999  1  0.99829077  0.02008300  0.21310100  1
  C  5000  1  0.00776900  0.02513200  0.22938100  1
  C  5001  1  0.00142300  0.01840000  0.24663100  1
  C  5011  1  0.55687700  0.58555800  0.24543000  1
  C  5012  1  0.56583700  0.59090000  0.22887800  1
  C  5013  1  0.56169800  0.58216300  0.21195500  1
  C  5014  1  0.54844100  0.56780300  0.21162700  1
  C  5015  1  0.53951400  0.56209400  0.22800000  1
  C  5016  1  0.54376800  0.57110500  0.24485100  1
  C  5026  1  0.55677500  0.00949900  0.21729000  1
  C  5027  1  0.56572200  0.00421900  0.23386900  1
  C  5028  1  0.56156500  0.01301700  0.25076000  1
  C  5029  1  0.54828500  0.02736000  0.25102500  1
  C  5030  1  0.53937500  0.03301400  0.23462200  1
  C  5031  1  0.54365400  0.02394400  0.21780800  1
  C  5041  1  0.25365800  0.58624500  0.52069600  1
  C  5042  1  0.27112600  0.59027100  0.52849900  1
  C  5043  1  0.28719700  0.58108200  0.52236400  1
  C  5044  1  0.28563800  0.56745800  0.50840600  1
  C  5045  1  0.26815900  0.56278500  0.50095000  1
  C  5046  1  0.25231500  0.57241300  0.50701800  1
  C  5056  1  0.28600200  0.00407800  0.51441800  1
  C  5057  1  0.26881700  0.00149900  0.52338400  1
  C  5058  1  0.25267600  0.01018600  0.51675600  1
  C  5059  1  0.25385700  0.02175900  0.50103600  1
  C  5060  1  0.27103900  0.02490100  0.49219400  1
  C  5061  1  0.28697400  0.01586600  0.49890500  1
  C  5071  1  0.28664700  0.58545400  0.94251280  1
  C  5072  1  0.26913000  0.58945600  0.93480580  1
  C  5073  1  0.25310500  0.58023700  0.94101580  1
  C  5074  1  0.25476300  0.56660600  0.95495780  1
  C  5075  1  0.27228700  0.56195900  0.96232680  1
  C  5076  1  0.28808400  0.57161200  0.95617480  1
  C  5086  1  0.25126600  0.00892900  0.94176380  1
  C  5087  1  0.26866700  0.00470600  0.93390280  1
  C  5088  1  0.28486700  0.01368900  0.94000080  1
  C  5089  1  0.28352000  0.02730400  0.95398480  1
  C  5090  1  0.26612900  0.03215700  0.96152680  1
  C  5091  1  0.25014600  0.02273400  0.95549580  1
  C  5101  1  0.05875500  0.50819600  0.24988100  1
  C  5102  1  0.06320800  0.50021300  0.23258800  1
  C  5103  1  0.05430700  0.50608400  0.21625200  1
  C  5104  1  0.04052700  0.51992000  0.21735500  1
  C  5105  1  0.03549200  0.52761300  0.23462100  1
  C  5106  1  0.04484200  0.52184000  0.25074000  1
  C  5116  1  0.47894500  0.51308100  0.21422500  1
  C  5117  1  0.47445700  0.50377100  0.23084400  1
  C  5118  1  0.48111400  0.51013100  0.24803000  1
  C  5119  1  0.49242700  0.52606200  0.24854800  1
  C  5120  1  0.49725300  0.53542500  0.23213600  1
  C  5121  1  0.49043000  0.52884900  0.21501200  1
  C  5131  1  0.05780300  0.08477400  0.21567400  1
  C  5132  1  0.06332300  0.09361600  0.23223200  1
  C  5133  1  0.05468100  0.08944100  0.24920000  1
  C  5134  1  0.04023600  0.07627800  0.24956400  1
  C  5135  1  0.03437400  0.06745000  0.23319500  1
  C  5136  1  0.04328900  0.07173400  0.21629900  1
  C  5146  1  0.47880200  0.08212300  0.24808700  1
  C  5147  1  0.47435100  0.09140500  0.23144200  1
  C  5148  1  0.48104400  0.08501300  0.21427900  1
  C  5149  1  0.49235600  0.06907500  0.21381600  1
  C  5150  1  0.49715500  0.05974600  0.23025600  1
  C  5151  1  0.49028600  0.06635000  0.24735200  1
  C  5161  1  0.55783300  0.28421900  0.94483480  1
  C  5162  1  0.56308100  0.30072500  0.93574480  1
  C  5163  1  0.55421800  0.31761800  0.93972380  1
  C  5164  1  0.53985500  0.31797000  0.95297980  1
  C  5165  1  0.53423800  0.30163600  0.96203480  1
  C  5166  1  0.54334900  0.28480700  0.95790980  1
  C  5176  1  0.98223780  0.31119000  0.94552680  1
  C  5177  1  0.97709180  0.29461500  0.93650680  1
  C  5178  1  0.98610780  0.27780900  0.94050380  1
  C  5179  1  0.00051100  0.27760200  0.95371580  1
  C  5180  1  0.00600700  0.29400900  0.96271580  1
  C  5181  1  0.99675777  0.31075600  0.95856280  1
  C  5191  1  0.55808900  0.31104300  0.51765400  1
  C  5192  1  0.56339600  0.29456700  0.52676800  1
  C  5193  1  0.55448900  0.27766500  0.52293100  1
  C  5194  1  0.54003200  0.27726200  0.50978400  1
  C  5195  1  0.53439300  0.29355200  0.50066400  1
  C  5196  1  0.54353700  0.31039700  0.50465800  1
  C  5206  1  0.98182880  0.28387700  0.51804100  1
  C  5207  1  0.97661980  0.30047000  0.52699600  1
  C  5208  1  0.98554580  0.31730700  0.52290800  1
  C  5209  1  0.99993077  0.31751300  0.50967400  1
  C  5210  1  0.00548000  0.30109700  0.50072200  1
  C  5211  1  0.99630677  0.28432800  0.50495600  1
  C  5221  1  0.48560000  0.27945300  0.43983500  1
  C  5222  1  0.47616000  0.29601100  0.43540200  1
  C  5223  1  0.48231000  0.31320800  0.44222100  1
  C  5224  1  0.49817500  0.31380200  0.45362400  1
  C  5225  1  0.50766100  0.29744700  0.45840700  1
  C  5226  1  0.50127500  0.28030800  0.45144600  1
  C  5236  1  0.48539600  0.31527700  0.02286400  1
  C  5237  1  0.47593000  0.29870000  0.02716100  1
  C  5238  1  0.48210200  0.28154100  0.02026600  1
  C  5239  1  0.49801200  0.28100900  0.00891700  1
  C  5240  1  0.50752000  0.29738900  0.00426700  1
  C  5241  1  0.50111700  0.31448700  0.01131300  1
  C  5251  1  0.05474300  0.31426800  0.44027200  1
  C  5252  1  0.06410700  0.29763300  0.43598900  1
  C  5253  1  0.05773100  0.28050400  0.44276100  1
  C  5254  1  0.04171600  0.28005300  0.45396300  1
  C  5255  1  0.03231500  0.29649700  0.45860800  1
  C  5256  1  0.03891300  0.31356800  0.45167700  1
  C  5266  1  0.05504300  0.28081400  0.02333500  1
  C  5267  1  0.06435800  0.29745600  0.02770100  1
  C  5268  1  0.05799100  0.31459100  0.02092800  1
  C  5269  1  0.04204300  0.31503100  0.00962900  1
  C  5270  1  0.03269600  0.29858100  0.00490700  1
  C  5271  1  0.03927300  0.28151000  0.01185200  1
  N  1930  1  0.81624100  0.98338000  0.68560200  1
  N  1932  1  0.76932400  0.01305600  0.72333600  1
  N  1934  1  0.80741500  0.05036400  0.68032900  1
  N  1945  1  0.22085100  0.05384400  0.68496300  1
  N  1947  1  0.26792500  0.02417600  0.72254200  1
  N  1949  1  0.23021000  0.98695100  0.67918200  1
  N  1960  1  0.81588300  0.05467200  0.27489700  1
  N  1962  1  0.76906100  0.02471900  0.23723600  1
  N  1964  1  0.80728700  0.98767800  0.28032600  1
  N  1975  1  0.21658000  0.98499300  0.26795200  1
  N  1977  1  0.25871300  0.01562400  0.22544200  1
  N  1979  1  0.22812900  0.05130800  0.27542000  1
  N  1990  1  0.98413600  0.72471100  0.77664800  1
  N  1992  1  0.01427900  0.76238000  0.72993900  1
  N  1994  1  0.05117300  0.71932800  0.76834300  1
  N  2005  1  0.05241400  0.72990000  0.17778900  1
  N  2007  1  0.02180500  0.77296500  0.21935800  1
  N  2009  1  0.98573400  0.72365700  0.18819700  1
  N  2020  1  0.05354000  0.30765600  0.78249700  1
  N  2022  1  0.02302700  0.26474700  0.74068600  1
  N  2024  1  0.98697200  0.31421900  0.77167100  1
  N  2035  1  0.98369700  0.31404600  0.18360200  1
  N  2037  1  0.01283600  0.27543300  0.23012700  1
  N  2039  1  0.05063900  0.31865800  0.19284400  1
  N  2050  1  0.72853500  0.81844100  0.94716800  1
  N  2052  1  0.77204400  0.78035000  0.98303200  1
  N  2054  1  0.72109700  0.81233500  0.01429400  1
  N  2065  1  0.73064600  0.21731600  0.01318000  1
  N  2067  1  0.77210400  0.25819600  0.97806800  1
  N  2069  1  0.72160700  0.22582700  0.94652600  1
  N  2080  1  0.30741000  0.82088500  0.01252100  1
  N  2082  1  0.26599800  0.77986600  0.97754000  1
  N  2084  1  0.31666200  0.81195600  0.94593300  1
  N  2095  1  0.31417900  0.22059000  0.94600400  1
  N  2097  1  0.27609500  0.26799600  0.97442200  1
  N  2099  1  0.31890300  0.23077000  0.01281200  1
  N  2110  1  0.98525200  0.81705800  0.27427100  1
  N  2112  1  0.01444000  0.76929100  0.23716200  1
  N  2114  1  0.05190900  0.80678400  0.28050200  1
  N  2125  1  0.05185000  0.21644700  0.26841500  1
  N  2127  1  0.01979800  0.25755000  0.22611300  1
  N  2129  1  0.98529900  0.22653800  0.27666700  1
  N  2140  1  0.05165300  0.82249200  0.69106200  1
  N  2142  1  0.02120900  0.78033300  0.73370600  1
  N  2144  1  0.98535700  0.81061900  0.68365600  1
  N  2155  1  0.98614300  0.22069600  0.68601500  1
  N  2157  1  0.01575600  0.26840600  0.72284300  1
  N  2159  1  0.05279500  0.23080700  0.67917800  1
  N  2170  1  0.72983100  0.98704200  0.17769900  1
  N  2172  1  0.77282300  0.01769600  0.21931500  1
  N  2174  1  0.72281800  0.05350700  0.18891800  1
  N  2185  1  0.73043800  0.05092800  0.78292300  1
  N  2187  1  0.77313500  0.02000600  0.74127000  1
  N  2189  1  0.72318800  0.98443700  0.77210400  1
  N  2200  1  0.31373800  0.05256500  0.18191000  1
  N  2202  1  0.27661100  0.02269500  0.22920600  1
  N  2204  1  0.32005800  0.98572800  0.19131200  1
  N  2215  1  0.30728500  0.98629400  0.78196400  1
  N  2217  1  0.26423100  0.01699700  0.74041600  1
  N  2219  1  0.31410500  0.05278400  0.77105300  1
  N  2230  1  0.81657500  0.72946200  0.01076100  1
  N  2232  1  0.76802400  0.76238300  0.97627900  1
  N  2234  1  0.80825400  0.71803800  0.94449800  1
  N  2245  1  0.22252700  0.72902700  0.94912900  1
  N  2247  1  0.27000700  0.76208600  0.98477800  1
  N  2249  1  0.22933700  0.71745300  0.01562000  1
  N  2260  1  0.81515800  0.30894800  0.94891200  1
  N  2262  1  0.76802500  0.27602100  0.98515000  1
  N  2264  1  0.80895800  0.32081300  0.01539200  1
  N  2275  1  0.21665600  0.30649700  0.01273600  1
  N  2277  1  0.25810900  0.26415800  0.98121600  1
  N  2279  1  0.22765200  0.31481500  0.94633400  1
  N  2290  1  0.48775800  0.72957600  0.28468700  1
  N  2292  1  0.51736800  0.77218200  0.24201300  1
  N  2294  1  0.55401100  0.72255300  0.27218800  1
  N  2305  1  0.55074800  0.72964400  0.67734700  1
  N  2307  1  0.52137600  0.77291100  0.71954400  1
  N  2309  1  0.48449800  0.72315700  0.68990700  1
  N  2320  1  0.55003500  0.30786500  0.28308000  1
  N  2322  1  0.51993000  0.26483300  0.24111600  1
  N  2324  1  0.48363400  0.31464600  0.27133100  1
  N  2335  1  0.48737800  0.31440800  0.68208300  1
  N  2337  1  0.51559400  0.27642000  0.72962900  1
  N  2339  1  0.55420900  0.31896300  0.69226600  1
  N  2350  1  0.23070100  0.82115200  0.44752600  1
  N  2352  1  0.27337800  0.77934800  0.47842100  1
  N  2354  1  0.22338700  0.81007600  0.51395000  1
  N  2365  1  0.22951000  0.22087600  0.51417600  1
  N  2367  1  0.27227700  0.25851300  0.47687400  1
  N  2369  1  0.22128900  0.22524100  0.44707700  1
  N  2380  1  0.80937800  0.81611400  0.51157100  1
  N  2382  1  0.77633600  0.76831900  0.47609700  1
  N  2384  1  0.82057400  0.80921400  0.44508600  1
  N  2395  1  0.80930500  0.22171400  0.44942500  1
  N  2397  1  0.77620400  0.26962700  0.48468800  1
  N  2399  1  0.82048300  0.22889200  0.51588600  1
  N  2410  1  0.48652500  0.81707700  0.77531800  1
  N  2412  1  0.51482300  0.76928300  0.73766500  1
  N  2414  1  0.55322200  0.80650700  0.78051100  1
  N  2425  1  0.55121300  0.21578000  0.76897400  1
  N  2427  1  0.52201400  0.25827400  0.72591000  1
  N  2429  1  0.48500900  0.22835700  0.77542100  1
  N  2440  1  0.55195200  0.81635200  0.18607800  1
  N  2442  1  0.52392000  0.76849800  0.22390000  1
  N  2444  1  0.48525100  0.80566200  0.18121300  1
  N  2455  1  0.48399300  0.22115000  0.18536900  1
  N  2457  1  0.51305100  0.26847600  0.22311500  1
  N  2459  1  0.55081800  0.23088700  0.18005900  1
  N  2470  1  0.31687300  0.72425700  0.51555700  1
  N  2472  1  0.26967100  0.76149200  0.48563300  1
  N  2474  1  0.30794900  0.71847100  0.44860000  1
  N  2485  1  0.72068900  0.72890000  0.44605500  1
  N  2487  1  0.75828200  0.77230000  0.48263400  1
  N  2489  1  0.72573800  0.72136000  0.51326000  1
  N  2500  1  0.31596500  0.30957600  0.44772500  1
  N  2502  1  0.26830900  0.27656600  0.48341500  1
  N  2504  1  0.30961900  0.32046700  0.51433600  1
  N  2515  1  0.72048200  0.30913100  0.51447500  1
  N  2517  1  0.75817300  0.26567400  0.47806700  1
  N  2519  1  0.72567300  0.31655800  0.44725600  1
  N  2530  1  0.81621000  0.48865400  0.19072500  1
  N  2532  1  0.76815100  0.52405800  0.22343900  1
  N  2534  1  0.80885100  0.55494000  0.17889600  1
  N  2545  1  0.22198400  0.54950500  0.19134700  1
  N  2547  1  0.27033200  0.51457500  0.22411000  1
  N  2549  1  0.22978900  0.48326700  0.17971400  1
  N  2560  1  0.81647600  0.54945000  0.76991900  1
  N  2562  1  0.76828300  0.51387900  0.73753900  1
  N  2564  1  0.80917600  0.48322100  0.78205800  1
  N  2575  1  0.22171000  0.48833100  0.77061000  1
  N  2577  1  0.26982900  0.52336100  0.73759800  1
  N  2579  1  0.22926900  0.55467600  0.78197200  1
  N  2590  1  0.72939700  0.48359900  0.68133000  1
  N  2592  1  0.77223500  0.52031300  0.71944000  1
  N  2594  1  0.72113500  0.55065500  0.68684800  1
  N  2605  1  0.72915300  0.55392000  0.27965600  1
  N  2607  1  0.77209600  0.51743200  0.24147000  1
  N  2609  1  0.72090300  0.48689500  0.27375200  1
  N  2620  1  0.30948200  0.55289900  0.68191000  1
  N  2622  1  0.26591100  0.51665000  0.71959100  1
  N  2624  1  0.31708900  0.48581300  0.68755800  1
  N  2635  1  0.30972500  0.48499900  0.27996500  1
  N  2637  1  0.26633400  0.52124300  0.24211600  1
  N  2639  1  0.31725800  0.55213700  0.27449700  1
  N  4570  1  0.56712800  0.76196900  0.43648000  1
  N  4572  1  0.52021100  0.79164500  0.47421400  1
  N  4574  1  0.55830200  0.82895300  0.43120700  1
  N  4585  1  0.97173780  0.83243300  0.43584100  1
  N  4587  1  0.01881200  0.80276500  0.47342000  1
  N  4589  1  0.98109680  0.76554000  0.43006000  1
  N  4600  1  0.56677000  0.83326100  0.02577500  1
  N  4602  1  0.51994800  0.80330800  0.98811380  1
  N  4604  1  0.55817400  0.76626700  0.03120400  1
  N  4615  1  0.96746680  0.76358200  0.01883000  1
  N  4617  1  0.00960000  0.79421300  0.97631980  1
  N  4619  1  0.97901580  0.82989700  0.02629800  1
  N  4630  1  0.73502300  0.50330000  0.52752600  1
  N  4632  1  0.76516600  0.54096900  0.48081700  1
  N  4634  1  0.80206000  0.49791700  0.51922100  1
  N  4645  1  0.80330100  0.50848900  0.92866680  1
  N  4647  1  0.77269200  0.55155400  0.97023580  1
  N  4649  1  0.73662100  0.50224600  0.93907480  1
  N  4660  1  0.80442700  0.08624500  0.53337500  1
  N  4662  1  0.77391400  0.04333600  0.49156400  1
  N  4664  1  0.73785900  0.09280800  0.52254900  1
  N  4675  1  0.73458400  0.09263500  0.93447980  1
  N  4677  1  0.76372300  0.05402200  0.98100480  1
  N  4679  1  0.80152600  0.09724700  0.94372180  1
  N  4690  1  0.47942200  0.59703000  0.69804600  1
  N  4692  1  0.52293100  0.55893900  0.73391000  1
  N  4694  1  0.47198400  0.59092400  0.76517200  1
  N  4705  1  0.48153300  0.99590531  0.76405800  1
  N  4707  1  0.52299100  0.03678500  0.72894600  1
  N  4709  1  0.47249400  0.00441600  0.69740400  1
  N  4720  1  0.05829700  0.59947400  0.76339900  1
  N  4722  1  0.01688500  0.55845500  0.72841800  1
  N  4724  1  0.06754900  0.59054500  0.69681100  1
  N  4735  1  0.06506600  0.99917931  0.69688200  1
  N  4737  1  0.02698200  0.04658500  0.72530000  1
  N  4739  1  0.06979000  0.00935900  0.76369000  1
  N  4750  1  0.73613900  0.59564700  0.02514900  1
  N  4752  1  0.76532700  0.54788000  0.98803980  1
  N  4754  1  0.80279600  0.58537300  0.03138000  1
  N  4765  1  0.80273700  0.99503631  0.01929300  1
  N  4767  1  0.77068500  0.03613900  0.97699080  1
  N  4769  1  0.73618600  0.00512700  0.02754500  1
  N  4780  1  0.80254000  0.60108100  0.44194000  1
  N  4782  1  0.77209600  0.55892200  0.48458400  1
  N  4784  1  0.73624400  0.58920800  0.43453400  1
  N  4795  1  0.73703000  0.99928531  0.43689300  1
  N  4797  1  0.76664300  0.04699500  0.47372100  1
  N  4799  1  0.80368200  0.00939600  0.43005600  1
  N  4810  1  0.48071800  0.76563100  0.92857680  1
  N  4812  1  0.52371000  0.79628500  0.97019280  1
  N  4814  1  0.47370500  0.83209600  0.93979580  1
  N  4825  1  0.48132500  0.82951700  0.53380100  1
  N  4827  1  0.52402200  0.79859500  0.49214800  1
  N  4829  1  0.47407500  0.76302600  0.52298200  1
  N  4840  1  0.06462500  0.83115400  0.93278780  1
  N  4842  1  0.02749800  0.80128400  0.98008380  1
  N  4844  1  0.07094500  0.76431700  0.94218980  1
  N  4855  1  0.05817200  0.76488300  0.53284200  1
  N  4857  1  0.01511800  0.79558600  0.49129400  1
  N  4859  1  0.06499200  0.83137300  0.52193100  1
  N  4870  1  0.56746200  0.50805100  0.76163900  1
  N  4872  1  0.51891100  0.54097200  0.72715700  1
  N  4874  1  0.55914100  0.49662700  0.69537600  1
  N  4885  1  0.97341380  0.50761600  0.70000700  1
  N  4887  1  0.02089400  0.54067500  0.73565600  1
  N  4889  1  0.98022380  0.49604200  0.76649800  1
  N  4900  1  0.56604500  0.08753700  0.69979000  1
  N  4902  1  0.51891200  0.05461000  0.73602800  1
  N  4904  1  0.55984500  0.09940200  0.76627000  1
  N  4915  1  0.96754280  0.08508600  0.76361400  1
  N  4917  1  0.00899600  0.04274700  0.73209400  1
  N  4919  1  0.97853880  0.09340400  0.69721200  1
  N  4930  1  0.23864500  0.50816500  0.03556500  1
  N  4932  1  0.26825500  0.55077100  0.99289081  1
  N  4934  1  0.30489800  0.50114200  0.02306600  1
  N  4945  1  0.30163500  0.50823300  0.42822500  1
  N  4947  1  0.27226300  0.55150000  0.47042200  1
  N  4949  1  0.23538500  0.50174600  0.44078500  1
  N  4960  1  0.30092200  0.08645400  0.03395800  1
  N  4962  1  0.27081700  0.04342200  0.99199381  1
  N  4964  1  0.23452100  0.09323500  0.02220900  1
  N  4975  1  0.23826500  0.09299700  0.43296100  1
  N  4977  1  0.26648100  0.05500900  0.48050700  1
  N  4979  1  0.30509600  0.09755200  0.44314400  1
  N  4990  1  0.98158780  0.59974100  0.19840400  1
  N  4992  1  0.02426500  0.55793700  0.22929900  1
  N  4994  1  0.97427380  0.58866500  0.26482800  1
  N  5005  1  0.98039680  0.99946531  0.26505400  1
  N  5007  1  0.02316400  0.03710200  0.22775200  1
  N  5009  1  0.97217580  0.00383000  0.19795500  1
  N  5020  1  0.56026500  0.59470300  0.26244900  1
  N  5022  1  0.52722300  0.54690800  0.22697500  1
  N  5024  1  0.57146100  0.58780300  0.19596400  1
  N  5035  1  0.56019200  0.00030300  0.20030300  1
  N  5037  1  0.52709100  0.04821600  0.23556600  1
  N  5039  1  0.57137000  0.00748100  0.26676400  1
  N  5050  1  0.23741200  0.59566600  0.52619600  1
  N  5052  1  0.26571000  0.54787200  0.48854300  1
  N  5054  1  0.30410900  0.58509600  0.53138900  1
  N  5065  1  0.30210000  0.99436931  0.51985200  1
  N  5067  1  0.27290100  0.03686300  0.47678800  1
  N  5069  1  0.23589600  0.00694600  0.52629900  1
  N  5080  1  0.30283900  0.59494100  0.93695580  1
  N  5082  1  0.27480700  0.54708700  0.97477780  1
  N  5084  1  0.23613800  0.58425100  0.93209080  1
  N  5095  1  0.23488000  0.99973931  0.93624680  1
  N  5097  1  0.26393800  0.04706500  0.97399280  1
  N  5099  1  0.30170500  0.00947600  0.93093680  1
  N  5110  1  0.06776000  0.50284600  0.26643500  1
  N  5112  1  0.02055800  0.54008100  0.23651100  1
  N  5114  1  0.05883600  0.49706000  0.19947800  1
  N  5125  1  0.47157600  0.50748900  0.19693300  1
  N  5127  1  0.50916900  0.55088900  0.23351200  1
  N  5129  1  0.47662500  0.49994900  0.26413800  1
  N  5140  1  0.06685200  0.08816500  0.19860300  1
  N  5142  1  0.01919600  0.05515500  0.23429300  1
  N  5144  1  0.06050600  0.09905600  0.26521400  1
  N  5155  1  0.47136900  0.08772000  0.26535300  1
  N  5157  1  0.50906000  0.04426300  0.22894500  1
  N  5159  1  0.47656000  0.09514700  0.19813400  1
  N  5170  1  0.56709700  0.26724300  0.94160280  1
  N  5172  1  0.51903800  0.30264700  0.97431680  1
  N  5174  1  0.55973800  0.33352900  0.92977380  1
  N  5185  1  0.97287080  0.32809400  0.94222480  1
  N  5187  1  0.02121900  0.29316400  0.97498780  1
  N  5189  1  0.98067580  0.26185600  0.93059180  1
  N  5200  1  0.56736300  0.32803900  0.52079700  1
  N  5202  1  0.51917000  0.29246800  0.48841700  1
  N  5204  1  0.56006300  0.26181000  0.53293600  1
  N  5215  1  0.97259680  0.26692000  0.52148800  1
  N  5217  1  0.02071600  0.30195000  0.48847600  1
  N  5219  1  0.98015580  0.33326500  0.53285000  1
  N  5230  1  0.48028400  0.26218800  0.43220800  1
  N  5232  1  0.52312200  0.29890200  0.47031800  1
  N  5234  1  0.47202200  0.32924400  0.43772600  1
  N  5245  1  0.48004000  0.33250900  0.03053400  1
  N  5247  1  0.52298300  0.29602100  0.99234781  1
  N  5249  1  0.47179000  0.26548400  0.02463000  1
  N  5260  1  0.06036900  0.33148800  0.43278800  1
  N  5262  1  0.01679800  0.29523900  0.47046900  1
  N  5264  1  0.06797600  0.26440200  0.43843600  1
  N  5275  1  0.06061200  0.26358800  0.03084300  1
  N  5277  1  0.01722100  0.29983200  0.99299381  1
  N  5279  1  0.06814500  0.33072600  0.02537500  1
