# generated using pymatgen
data_H20C39(N4O)2
_symmetry_space_group_name_H-M   'P 1'
_cell_length_a   33.21810000
_cell_length_b   39.75100000
_cell_length_c   55.50550000
_cell_angle_alpha   90.00000000
_cell_angle_beta   90.00000000
_cell_angle_gamma   89.99830000
_symmetry_Int_Tables_number   1
_chemical_formula_structural   H20C39(N4O)2
_chemical_formula_sum   'H320 C624 N128 O32'
_cell_volume   73292.38692460
_cell_formula_units_Z   16
loop_
 _symmetry_equiv_pos_site_id
 _symmetry_equiv_pos_as_xyz
  1  'x, y, z'
loop_
 _atom_site_type_symbol
 _atom_site_label
 _atom_site_symmetry_multiplicity
 _atom_site_fract_x
 _atom_site_fract_y
 _atom_site_fract_z
 _atom_site_occupancy
  H  7  1  0.95277700  0.46896600  0.68181700  1
  H  8  1  0.88266000  0.47282900  0.67325200  1
  H  9  1  0.90331900  0.56100300  0.63195500  1
  H  10  1  0.98839700  0.69233000  0.65263600  1
  H  11  1  0.98853600  0.66711800  0.61349000  1
  H  13  1  0.98813200  0.64704800  0.71040500  1
  H  24  1  0.95098300  0.50390100  0.29551800  1
  H  25  1  0.88096000  0.49968400  0.30418600  1
  H  26  1  0.90238800  0.41156000  0.34540000  1
  H  27  1  0.98800200  0.37737500  0.29268400  1
  H  28  1  0.98757100  0.46027600  0.37744700  1
  H  33  1  0.98308400  0.47636400  0.42031500  1
  H  34  1  0.98713800  0.32583900  0.26698200  1
  H  46  1  0.95285400  0.96904200  0.18186100  1
  H  47  1  0.88269600  0.97294100  0.17344800  1
  H  48  1  0.90318100  0.06109900  0.13211600  1
  H  49  1  0.98836200  0.19246900  0.15262300  1
  H  50  1  0.98795200  0.16719400  0.11347500  1
  H  51  1  0.98831800  0.13074700  0.07596900  1
  H  64  1  0.95106500  0.00355400  0.79534600  1
  H  65  1  0.88100200  0.99939300  0.80396400  1
  H  66  1  0.90228100  0.91139600  0.84534900  1
  H  67  1  0.98842000  0.87719400  0.79277000  1
  H  68  1  0.98758200  0.96011000  0.87748900  1
  H  72  1  0.98284200  0.97624700  0.92033700  1
  H  75  1  0.97509800  0.54476500  0.48438800  1
  H  80  1  0.97475200  0.04471500  0.98438000  1
  H  84  1  0.98641300  0.71284100  0.77796300  1
  H  88  1  0.98429900  0.25995900  0.19949500  1
  H  108  1  0.09643700  0.47325600  0.67338400  1
  H  109  1  0.02631900  0.46905700  0.68180400  1
  H  110  1  0.07547000  0.56147300  0.63219700  1
  H  111  1  0.98919700  0.59557500  0.68463800  1
  H  112  1  0.99069900  0.51288600  0.59979100  1
  H  113  1  0.98911900  0.63070900  0.57600400  1
  H  114  1  0.99037100  0.58789500  0.54556900  1
  H  119  1  0.14295700  0.53268200  0.63188100  1
  H  120  1  0.83589900  0.53232100  0.63176600  1
  H  121  1  0.99638900  0.49689800  0.55706700  1
  H  136  1  0.09478400  0.50018600  0.30362900  1
  H  137  1  0.02459100  0.50404500  0.29526800  1
  H  138  1  0.07446400  0.41205600  0.34502900  1
  H  139  1  0.98981700  0.28068800  0.32476800  1
  H  140  1  0.99021500  0.30602000  0.36387000  1
  H  141  1  0.99009100  0.34248200  0.40132400  1
  H  142  1  0.98927500  0.38533400  0.43171600  1
  H  144  1  0.14176200  0.44077500  0.34509700  1
  H  145  1  0.83490200  0.44055200  0.34604100  1
  H  170  1  0.38024400  0.47468300  0.30348300  1
  H  171  1  0.45089200  0.46804000  0.29733600  1
  H  172  1  0.52489400  0.46767300  0.29767300  1
  H  173  1  0.59537100  0.47342300  0.30463100  1
  H  174  1  0.57431300  0.56298300  0.34435000  1
  H  175  1  0.40160200  0.56394100  0.34347000  1
  H  176  1  0.48835300  0.59557000  0.29310200  1
  H  177  1  0.48918400  0.69244100  0.32493900  1
  H  178  1  0.48897700  0.66732700  0.36411200  1
  H  179  1  0.48666500  0.51316300  0.37800700  1
  H  180  1  0.48840800  0.63100800  0.40172400  1
  H  181  1  0.48714300  0.58820500  0.43219500  1
  H  187  1  0.33087600  0.54543200  0.33269500  1
  H  188  1  0.64439800  0.54220700  0.33754100  1
  H  189  1  0.48111900  0.49717100  0.42064600  1
  H  190  1  0.48954000  0.64699000  0.26725400  1
  H  215  1  0.38226100  0.49940200  0.67372600  1
  H  216  1  0.45288800  0.50538500  0.68018500  1
  H  217  1  0.52691400  0.50511100  0.68008200  1
  H  218  1  0.59748400  0.49844300  0.67365900  1
  H  219  1  0.57567300  0.40892200  0.63406900  1
  H  220  1  0.40290900  0.40972300  0.63409200  1
  H  221  1  0.48959100  0.37723600  0.68479000  1
  H  222  1  0.48773000  0.28041900  0.65288700  1
  H  223  1  0.48737500  0.30559100  0.61373500  1
  H  224  1  0.49014200  0.45976800  0.59990600  1
  H  225  1  0.48746200  0.34193400  0.57616800  1
  H  226  1  0.48828400  0.38473800  0.54571900  1
  H  232  1  0.33260700  0.42948300  0.64294500  1
  H  233  1  0.64653900  0.42749800  0.64446800  1
  H  234  1  0.49452500  0.47580700  0.55711800  1
  H  235  1  0.49036700  0.32576900  0.71058700  1
  H  249  1  0.09653600  0.97351400  0.17345100  1
  H  250  1  0.02642700  0.96926600  0.18188100  1
  H  251  1  0.07541800  0.06159500  0.13212900  1
  H  252  1  0.98972100  0.09570600  0.18459100  1
  H  253  1  0.99055200  0.01294900  0.09981200  1
  H  254  1  0.98954900  0.08790000  0.04555000  1
  H  259  1  0.14302300  0.03301200  0.13191600  1
  H  260  1  0.83576000  0.03248500  0.13206800  1
  H  261  1  0.99591900  0.99691400  0.05709300  1
  H  262  1  0.99103100  0.14705600  0.21029800  1
  H  276  1  0.09479600  0.00007600  0.80388800  1
  H  277  1  0.02465100  0.00384600  0.79537500  1
  H  278  1  0.07437100  0.91194000  0.84525600  1
  H  279  1  0.98963400  0.78047900  0.82481500  1
  H  280  1  0.98955800  0.80581400  0.86394500  1
  H  281  1  0.98927200  0.84232700  0.90141700  1
  H  282  1  0.98851600  0.88521000  0.93179000  1
  H  285  1  0.14164400  0.94081700  0.84547100  1
  H  286  1  0.83478100  0.94027300  0.84581800  1
  H  287  1  0.98989000  0.82583800  0.76709000  1
  H  312  1  0.38022600  0.97460100  0.80393300  1
  H  313  1  0.45080200  0.96805400  0.79757300  1
  H  314  1  0.52475800  0.96764800  0.79780900  1
  H  315  1  0.59526800  0.97338100  0.80464600  1
  H  316  1  0.57444800  0.06308400  0.84423700  1
  H  317  1  0.40174100  0.06397600  0.84375900  1
  H  318  1  0.48785400  0.09573900  0.79315700  1
  H  319  1  0.48928100  0.19261000  0.82497700  1
  H  320  1  0.48962700  0.16746300  0.86416600  1
  H  321  1  0.48683000  0.01326600  0.87799200  1
  H  322  1  0.48927200  0.13106900  0.90178900  1
  H  323  1  0.48802200  0.08822500  0.93223000  1
  H  329  1  0.33105900  0.04507300  0.83397400  1
  H  330  1  0.64450700  0.04230500  0.83726900  1
  H  331  1  0.48161900  0.99720600  0.92062100  1
  H  332  1  0.48665600  0.14702400  0.76737100  1
  H  357  1  0.38216700  0.99910800  0.17374100  1
  H  358  1  0.45280400  0.00522200  0.18012800  1
  H  359  1  0.52683300  0.00487300  0.18024000  1
  H  360  1  0.59748700  0.99803100  0.17412700  1
  H  361  1  0.57586900  0.90863000  0.13437800  1
  H  362  1  0.40293900  0.90947700  0.13407700  1
  H  363  1  0.48912400  0.87709800  0.18473300  1
  H  364  1  0.48784200  0.78025500  0.15286400  1
  H  365  1  0.48799500  0.80543500  0.11368900  1
  H  366  1  0.49021100  0.95964100  0.09987800  1
  H  367  1  0.48828400  0.84181100  0.07610800  1
  H  368  1  0.48908200  0.88463400  0.04566900  1
  H  374  1  0.33248000  0.92891500  0.14355100  1
  H  375  1  0.64683700  0.92681800  0.14610200  1
  H  376  1  0.49485900  0.97571200  0.05710400  1
  H  377  1  0.48750500  0.82579200  0.21050500  1
  H  384  1  0.01444500  0.40409300  0.48080600  1
  H  392  1  0.50223100  0.54462300  0.49345000  1
  H  395  1  0.46316500  0.40364900  0.49631300  1
  H  403  1  0.01392500  0.90400500  0.98088400  1
  H  411  1  0.50262900  0.04458100  0.99346000  1
  H  414  1  0.46371000  0.90357700  0.99625100  1
  H  423  1  0.20425500  0.47157100  0.68920000  1
  H  426  1  0.30852700  0.49817100  0.60900300  1
  H  435  1  0.20309000  0.50355700  0.28871400  1
  H  438  1  0.30631100  0.47546200  0.36933300  1
  H  447  1  0.77334800  0.50017700  0.28810100  1
  H  450  1  0.66915300  0.47612200  0.36876900  1
  H  459  1  0.77472800  0.46924700  0.68809800  1
  H  462  1  0.67097100  0.49762400  0.60778700  1
  H  471  1  0.20429700  0.97122300  0.18887800  1
  H  474  1  0.30849900  0.99833300  0.10874600  1
  H  483  1  0.20295400  0.00306500  0.78877800  1
  H  486  1  0.30634400  0.97605300  0.86951100  1
  H  495  1  0.77337200  0.00041200  0.78809800  1
  H  498  1  0.66913200  0.97576200  0.86864800  1
  H  507  1  0.77454800  0.96882800  0.18808200  1
  H  510  1  0.67105200  0.99805400  0.10781100  1
  H  519  1  0.99958600  0.75207200  0.67875600  1
  H  527  1  0.00198200  0.22094800  0.29866200  1
  H  535  1  0.49137600  0.71279200  0.19966300  1
  H  538  1  0.47765400  0.75197500  0.29885500  1
  H  547  1  0.49314000  0.25994400  0.77812100  1
  H  550  1  0.47573700  0.22082300  0.67895800  1
  H  559  1  0.95277700  0.06646000  0.68181700  1
  H  560  1  0.88266000  0.07032300  0.67325200  1
  H  561  1  0.90331900  0.15849700  0.63195500  1
  H  562  1  0.98839700  0.28982400  0.65263600  1
  H  563  1  0.98853600  0.26461200  0.61349000  1
  H  565  1  0.98813200  0.24454200  0.71040500  1
  H  576  1  0.95098300  0.10139500  0.29551800  1
  H  577  1  0.88096000  0.09717800  0.30418600  1
  H  578  1  0.90238800  0.00905400  0.34540000  1
  H  579  1  0.98800200  0.97486940  0.29268400  1
  H  580  1  0.98757100  0.05777000  0.37744700  1
  H  585  1  0.98308400  0.07385800  0.42031500  1
  H  586  1  0.98713800  0.92333340  0.26698200  1
  H  598  1  0.95285400  0.56653600  0.18186100  1
  H  599  1  0.88269600  0.57043500  0.17344800  1
  H  600  1  0.90318100  0.65859300  0.13211600  1
  H  601  1  0.98836200  0.78996300  0.15262300  1
  H  602  1  0.98795200  0.76468800  0.11347500  1
  H  603  1  0.98831800  0.72824100  0.07596900  1
  H  616  1  0.95106500  0.60104800  0.79534600  1
  H  617  1  0.88100200  0.59688700  0.80396400  1
  H  618  1  0.90228100  0.50889000  0.84534900  1
  H  619  1  0.98842000  0.47468800  0.79277000  1
  H  620  1  0.98758200  0.55760400  0.87748900  1
  H  624  1  0.98284200  0.57374100  0.92033700  1
  H  627  1  0.97509800  0.14225900  0.48438800  1
  H  632  1  0.97475200  0.64220900  0.98438000  1
  H  636  1  0.98641300  0.31033500  0.77796300  1
  H  640  1  0.98429900  0.85745300  0.19949500  1
  H  660  1  0.09643700  0.07075000  0.67338400  1
  H  661  1  0.02631900  0.06655100  0.68180400  1
  H  662  1  0.07547000  0.15896700  0.63219700  1
  H  663  1  0.98919700  0.19306900  0.68463800  1
  H  664  1  0.99069900  0.11038000  0.59979100  1
  H  665  1  0.98911900  0.22820300  0.57600400  1
  H  666  1  0.99037100  0.18538900  0.54556900  1
  H  671  1  0.14295700  0.13017600  0.63188100  1
  H  672  1  0.83589900  0.12981500  0.63176600  1
  H  673  1  0.99638900  0.09439200  0.55706700  1
  H  688  1  0.09478400  0.09768000  0.30362900  1
  H  689  1  0.02459100  0.10153900  0.29526800  1
  H  690  1  0.07446400  0.00955000  0.34502900  1
  H  691  1  0.98981700  0.87818200  0.32476800  1
  H  692  1  0.99021500  0.90351440  0.36387000  1
  H  693  1  0.99009100  0.93997640  0.40132400  1
  H  694  1  0.98927500  0.98282840  0.43171600  1
  H  696  1  0.14176200  0.03826900  0.34509700  1
  H  697  1  0.83490200  0.03804600  0.34604100  1
  H  722  1  0.38024400  0.07217700  0.30348300  1
  H  723  1  0.45089200  0.06553400  0.29733600  1
  H  724  1  0.52489400  0.06516700  0.29767300  1
  H  725  1  0.59537100  0.07091700  0.30463100  1
  H  726  1  0.57431300  0.16047700  0.34435000  1
  H  727  1  0.40160200  0.16143500  0.34347000  1
  H  728  1  0.48835300  0.19306400  0.29310200  1
  H  729  1  0.48918400  0.28993500  0.32493900  1
  H  730  1  0.48897700  0.26482100  0.36411200  1
  H  731  1  0.48666500  0.11065700  0.37800700  1
  H  732  1  0.48840800  0.22850200  0.40172400  1
  H  733  1  0.48714300  0.18569900  0.43219500  1
  H  739  1  0.33087600  0.14292600  0.33269500  1
  H  740  1  0.64439800  0.13970100  0.33754100  1
  H  741  1  0.48111900  0.09466500  0.42064600  1
  H  742  1  0.48954000  0.24448400  0.26725400  1
  H  767  1  0.38226100  0.09689600  0.67372600  1
  H  768  1  0.45288800  0.10287900  0.68018500  1
  H  769  1  0.52691400  0.10260500  0.68008200  1
  H  770  1  0.59748400  0.09593700  0.67365900  1
  H  771  1  0.57567300  0.00641600  0.63406900  1
  H  772  1  0.40290900  0.00721700  0.63409200  1
  H  773  1  0.48959100  0.97473040  0.68479000  1
  H  774  1  0.48773000  0.87791300  0.65288700  1
  H  775  1  0.48737500  0.90308540  0.61373500  1
  H  776  1  0.49014200  0.05726200  0.59990600  1
  H  777  1  0.48746200  0.93942840  0.57616800  1
  H  778  1  0.48828400  0.98223240  0.54571900  1
  H  784  1  0.33260700  0.02697700  0.64294500  1
  H  785  1  0.64653900  0.02499200  0.64446800  1
  H  786  1  0.49452500  0.07330100  0.55711800  1
  H  787  1  0.49036700  0.92326340  0.71058700  1
  H  801  1  0.09653600  0.57100800  0.17345100  1
  H  802  1  0.02642700  0.56676000  0.18188100  1
  H  803  1  0.07541800  0.65908900  0.13212900  1
  H  804  1  0.98972100  0.69320000  0.18459100  1
  H  805  1  0.99055200  0.61044300  0.09981200  1
  H  806  1  0.98954900  0.68539400  0.04555000  1
  H  811  1  0.14302300  0.63050600  0.13191600  1
  H  812  1  0.83576000  0.62997900  0.13206800  1
  H  813  1  0.99591900  0.59440800  0.05709300  1
  H  814  1  0.99103100  0.74455000  0.21029800  1
  H  828  1  0.09479600  0.59757000  0.80388800  1
  H  829  1  0.02465100  0.60134000  0.79537500  1
  H  830  1  0.07437100  0.50943400  0.84525600  1
  H  831  1  0.98963400  0.37797300  0.82481500  1
  H  832  1  0.98955800  0.40330800  0.86394500  1
  H  833  1  0.98927200  0.43982100  0.90141700  1
  H  834  1  0.98851600  0.48270400  0.93179000  1
  H  837  1  0.14164400  0.53831100  0.84547100  1
  H  838  1  0.83478100  0.53776700  0.84581800  1
  H  839  1  0.98989000  0.42333200  0.76709000  1
  H  864  1  0.38022600  0.57209500  0.80393300  1
  H  865  1  0.45080200  0.56554800  0.79757300  1
  H  866  1  0.52475800  0.56514200  0.79780900  1
  H  867  1  0.59526800  0.57087500  0.80464600  1
  H  868  1  0.57444800  0.66057800  0.84423700  1
  H  869  1  0.40174100  0.66147000  0.84375900  1
  H  870  1  0.48785400  0.69323300  0.79315700  1
  H  871  1  0.48928100  0.79010400  0.82497700  1
  H  872  1  0.48962700  0.76495700  0.86416600  1
  H  873  1  0.48683000  0.61076000  0.87799200  1
  H  874  1  0.48927200  0.72856300  0.90178900  1
  H  875  1  0.48802200  0.68571900  0.93223000  1
  H  881  1  0.33105900  0.64256700  0.83397400  1
  H  882  1  0.64450700  0.63979900  0.83726900  1
  H  883  1  0.48161900  0.59470000  0.92062100  1
  H  884  1  0.48665600  0.74451800  0.76737100  1
  H  909  1  0.38216700  0.59660200  0.17374100  1
  H  910  1  0.45280400  0.60271600  0.18012800  1
  H  911  1  0.52683300  0.60236700  0.18024000  1
  H  912  1  0.59748700  0.59552500  0.17412700  1
  H  913  1  0.57586900  0.50612400  0.13437800  1
  H  914  1  0.40293900  0.50697100  0.13407700  1
  H  915  1  0.48912400  0.47459200  0.18473300  1
  H  916  1  0.48784200  0.37774900  0.15286400  1
  H  917  1  0.48799500  0.40292900  0.11368900  1
  H  918  1  0.49021100  0.55713500  0.09987800  1
  H  919  1  0.48828400  0.43930500  0.07610800  1
  H  920  1  0.48908200  0.48212800  0.04566900  1
  H  926  1  0.33248000  0.52640900  0.14355100  1
  H  927  1  0.64683700  0.52431200  0.14610200  1
  H  928  1  0.49485900  0.57320600  0.05710400  1
  H  929  1  0.48750500  0.42328600  0.21050500  1
  H  936  1  0.01444500  0.00158700  0.48080600  1
  H  944  1  0.50223100  0.14211700  0.49345000  1
  H  947  1  0.46316500  0.00114300  0.49631300  1
  H  955  1  0.01392500  0.50149900  0.98088400  1
  H  963  1  0.50262900  0.64207500  0.99346000  1
  H  966  1  0.46371000  0.50107100  0.99625100  1
  H  975  1  0.20425500  0.06906500  0.68920000  1
  H  978  1  0.30852700  0.09566500  0.60900300  1
  H  987  1  0.20309000  0.10105100  0.28871400  1
  H  990  1  0.30631100  0.07295600  0.36933300  1
  H  999  1  0.77334800  0.09767100  0.28810100  1
  H  1002  1  0.66915300  0.07361600  0.36876900  1
  H  1011  1  0.77472800  0.06674100  0.68809800  1
  H  1014  1  0.67097100  0.09511800  0.60778700  1
  H  1023  1  0.20429700  0.56871700  0.18887800  1
  H  1026  1  0.30849900  0.59582700  0.10874600  1
  H  1035  1  0.20295400  0.60055900  0.78877800  1
  H  1038  1  0.30634400  0.57354700  0.86951100  1
  H  1047  1  0.77337200  0.59790600  0.78809800  1
  H  1050  1  0.66913200  0.57325600  0.86864800  1
  H  1059  1  0.77454800  0.56632200  0.18808200  1
  H  1062  1  0.67105200  0.59554800  0.10781100  1
  H  1071  1  0.99958600  0.34956600  0.67875600  1
  H  1079  1  0.00198200  0.81844200  0.29866200  1
  H  1087  1  0.49137600  0.31028600  0.19966300  1
  H  1090  1  0.47765400  0.34946900  0.29885500  1
  H  1099  1  0.49314000  0.85743800  0.77812100  1
  H  1102  1  0.47573700  0.81831700  0.67895800  1
  C  1  1  0.96861200  0.51311500  0.66252900  1
  C  2  1  0.95472600  0.53987000  0.64841300  1
  C  3  1  0.94223800  0.48897600  0.67207700  1
  C  4  1  0.90104100  0.49143700  0.66681500  1
  C  5  1  0.88557500  0.51770800  0.65207800  1
  C  6  1  0.91309500  0.54219000  0.64312500  1
  C  12  1  0.84493800  0.51805900  0.64547700  1
  C  14  1  0.98862100  0.41017400  0.36496900  1
  C  15  1  0.98869800  0.37694200  0.33071800  1
  C  16  1  0.98848700  0.36196700  0.30745800  1
  C  17  1  0.98818500  0.43564300  0.38283800  1
  C  18  1  0.96720100  0.45976300  0.31470600  1
  C  19  1  0.95355300  0.43290900  0.32881400  1
  C  20  1  0.94061500  0.48374600  0.30517000  1
  C  21  1  0.89946900  0.48108500  0.31050800  1
  C  22  1  0.88426100  0.45473900  0.32527900  1
  C  23  1  0.91196400  0.43036400  0.33416300  1
  C  29  1  0.98840000  0.41313300  0.33818300  1
  C  30  1  0.84370600  0.45431700  0.33202100  1
  C  31  1  0.98743300  0.45266900  0.42548000  1
  C  32  1  0.98851700  0.31111300  0.28144000  1
  C  35  1  0.98866500  0.09689700  0.10546700  1
  C  36  1  0.98855100  0.11691900  0.12615800  1
  C  37  1  0.98847700  0.16677200  0.15156300  1
  C  38  1  0.98824500  0.15215300  0.12843200  1
  C  39  1  0.98860700  0.10598100  0.08097200  1
  C  40  1  0.96862100  0.01319900  0.16255800  1
  C  41  1  0.95466700  0.03997600  0.14849000  1
  C  42  1  0.94227700  0.98906900  0.17215200  1
  C  43  1  0.90103800  0.99157600  0.16701400  1
  C  44  1  0.88550700  0.01783700  0.15229500  1
  C  45  1  0.91299400  0.04232900  0.14330800  1
  C  52  1  0.84484200  0.01815800  0.14573100  1
  C  53  1  0.98843100  0.90999200  0.86503500  1
  C  54  1  0.98857000  0.87674900  0.83079900  1
  C  55  1  0.98861600  0.86177700  0.80754200  1
  C  56  1  0.98814100  0.92719800  0.90787000  1
  C  57  1  0.98803000  0.93547900  0.88289100  1
  C  58  1  0.96722500  0.95953800  0.81469900  1
  C  59  1  0.95353500  0.93278200  0.82887900  1
  C  60  1  0.94068000  0.98352000  0.80512000  1
  C  61  1  0.89950900  0.98086900  0.81039700  1
  C  62  1  0.88424200  0.95456100  0.82517900  1
  C  63  1  0.91191600  0.93021000  0.83413800  1
  C  69  1  0.98833000  0.91294500  0.83825000  1
  C  70  1  0.84365000  0.95411900  0.83185400  1
  C  71  1  0.98710200  0.95254700  0.92552100  1
  C  74  1  0.98172700  0.51984700  0.48660200  1
  C  78  1  0.98134900  0.01979500  0.98661000  1
  C  79  1  0.98881500  0.00634000  0.00966900  1
  C  83  1  0.98768300  0.72354200  0.76123600  1
  C  87  1  0.98650800  0.24930800  0.21620000  1
  C  90  1  0.98952200  0.56295500  0.61230700  1
  C  91  1  0.98914300  0.59682600  0.60548400  1
  C  92  1  0.98890500  0.61683300  0.62618300  1
  C  93  1  0.98911000  0.59610600  0.64658800  1
  C  94  1  0.98904400  0.61103400  0.66986100  1
  C  95  1  0.98882700  0.64674400  0.67288500  1
  C  96  1  0.98861000  0.66666667  0.65158900  1
  C  97  1  0.98866200  0.65205500  0.62846000  1
  C  98  1  0.98927800  0.60594000  0.58099500  1
  C  99  1  0.98995300  0.58057900  0.56324000  1
  C  100  1  0.99047400  0.54587300  0.56944600  1
  C  101  1  0.99022100  0.53752400  0.59441700  1
  C  102  1  0.02411800  0.54010400  0.64856400  1
  C  103  1  0.01032700  0.51329300  0.66266000  1
  C  104  1  0.06577000  0.54266900  0.64339600  1
  C  105  1  0.09337500  0.51825900  0.65235000  1
  C  106  1  0.07799500  0.49186800  0.66701100  1
  C  107  1  0.03679500  0.48922700  0.67220900  1
  C  115  1  0.98938400  0.55992800  0.63909200  1
  C  116  1  0.13400700  0.51870800  0.64576300  1
  C  117  1  0.99201500  0.52055300  0.55179200  1
  C  118  1  0.98874500  0.66183300  0.69593300  1
  C  122  1  0.98931200  0.37631600  0.37181500  1
  C  123  1  0.98933600  0.35626600  0.35114000  1
  C  124  1  0.98890200  0.32624600  0.30447600  1
  C  125  1  0.98956400  0.30638500  0.32578600  1
  C  126  1  0.98978400  0.32103400  0.34890200  1
  C  127  1  0.98968800  0.36724700  0.39631000  1
  C  128  1  0.98927200  0.39264000  0.41404000  1
  C  129  1  0.98849700  0.42734100  0.40781400  1
  C  130  1  0.02293500  0.43319100  0.32872000  1
  C  131  1  0.00890900  0.45993600  0.31465300  1
  C  132  1  0.06461400  0.43081800  0.33384100  1
  C  133  1  0.09203600  0.45531700  0.32482000  1
  C  134  1  0.07645700  0.48157100  0.31011000  1
  C  135  1  0.03520800  0.48404500  0.30498900  1
  C  143  1  0.13267600  0.45501700  0.33138500  1
  C  146  1  0.48783000  0.56322700  0.36547500  1
  C  147  1  0.48828700  0.59710000  0.37225800  1
  C  148  1  0.48858800  0.61701600  0.35151300  1
  C  149  1  0.48840500  0.59622700  0.33113500  1
  C  150  1  0.48851300  0.61106200  0.30783400  1
  C  151  1  0.48874800  0.64676900  0.30476600  1
  C  152  1  0.48895300  0.66674800  0.32602500  1
  C  153  1  0.48886500  0.65223300  0.34918100  1
  C  154  1  0.48818500  0.60623200  0.39674800  1
  C  155  1  0.48751100  0.58088400  0.41452300  1
  C  156  1  0.48694500  0.54617300  0.40833100  1
  C  157  1  0.48714000  0.53781100  0.38337100  1
  C  158  1  0.45332700  0.54013100  0.32940300  1
  C  159  1  0.46712400  0.51241100  0.31624400  1
  C  160  1  0.50881800  0.51219600  0.31643300  1
  C  161  1  0.52268400  0.53979700  0.32968300  1
  C  162  1  0.53533700  0.48804500  0.30705800  1
  C  163  1  0.57671800  0.49157800  0.31143200  1
  C  164  1  0.59221300  0.51885000  0.32521100  1
  C  165  1  0.56447800  0.54321800  0.33407800  1
  C  166  1  0.41146500  0.54404900  0.33333333  1
  C  167  1  0.38366000  0.51995200  0.32418900  1
  C  168  1  0.39906500  0.49249900  0.31058200  1
  C  169  1  0.44050600  0.48849300  0.30665400  1
  C  182  1  0.48804000  0.56009500  0.33871600  1
  C  183  1  0.63346400  0.52143800  0.32992900  1
  C  184  1  0.34229100  0.52317800  0.32808800  1
  C  185  1  0.48545100  0.52082000  0.42595400  1
  C  186  1  0.48884700  0.66178800  0.28169600  1
  C  191  1  0.48909100  0.40969100  0.61243100  1
  C  192  1  0.48834700  0.37582300  0.60564100  1
  C  193  1  0.48827800  0.35588100  0.62637200  1
  C  194  1  0.48891600  0.37664300  0.64675900  1
  C  195  1  0.48909700  0.36177000  0.67004700  1
  C  196  1  0.48865800  0.32605800  0.67309000  1
  C  197  1  0.48799500  0.30611100  0.65182000  1
  C  198  1  0.48779400  0.32066200  0.62867500  1
  C  199  1  0.48792600  0.36670800  0.58115100  1
  C  200  1  0.48834400  0.39206600  0.56338900  1
  C  201  1  0.48916300  0.42677700  0.56958100  1
  C  202  1  0.48951900  0.43512400  0.59454100  1
  C  203  1  0.45474200  0.43306700  0.64838400  1
  C  204  1  0.46876800  0.46079500  0.66144100  1
  C  205  1  0.51047100  0.46056500  0.66146100  1
  C  206  1  0.52412000  0.43272800  0.64836500  1
  C  207  1  0.53719400  0.48457600  0.67081800  1
  C  208  1  0.57859100  0.48056200  0.66671600  1
  C  209  1  0.59384700  0.45301800  0.65314200  1
  C  210  1  0.56593200  0.42886300  0.64419600  1
  C  211  1  0.41288800  0.42957400  0.64422800  1
  C  212  1  0.38525900  0.45394400  0.65319600  1
  C  213  1  0.40088900  0.48131100  0.66681100  1
  C  214  1  0.44233900  0.48494300  0.67091900  1
  C  227  1  0.48927800  0.41278500  0.63919600  1
  C  228  1  0.63518600  0.44976900  0.64909400  1
  C  229  1  0.34391700  0.45113000  0.64892700  1
  C  230  1  0.49020800  0.45211500  0.55192900  1
  C  231  1  0.48903100  0.31100400  0.69614500  1
  C  236  1  0.98923900  0.06303100  0.11230200  1
  C  237  1  0.98904400  0.09620200  0.14656400  1
  C  238  1  0.98928400  0.11114300  0.16983200  1
  C  239  1  0.98903200  0.14686200  0.17284600  1
  C  240  1  0.98926300  0.08060200  0.06322800  1
  C  241  1  0.98999500  0.04590400  0.06944900  1
  C  242  1  0.98992600  0.03758200  0.09442500  1
  C  243  1  0.02408500  0.04017200  0.14848400  1
  C  244  1  0.01033300  0.01331300  0.16254400  1
  C  245  1  0.06573400  0.04274000  0.14328800  1
  C  246  1  0.09339400  0.01838800  0.15227700  1
  C  247  1  0.07805800  0.99204200  0.16699600  1
  C  248  1  0.03685200  0.98933800  0.17216100  1
  C  255  1  0.98929400  0.06001400  0.13908700  1
  C  256  1  0.13404300  0.01886200  0.14569900  1
  C  257  1  0.99154200  0.02056600  0.05180700  1
  C  258  1  0.98958600  0.16191600  0.19590500  1
  C  263  1  0.98886600  0.87613200  0.87189300  1
  C  264  1  0.98893200  0.85606700  0.85122200  1
  C  265  1  0.98897400  0.82605400  0.80455600  1
  C  266  1  0.98930000  0.80617700  0.82585500  1
  C  267  1  0.98927800  0.82082900  0.84897700  1
  C  268  1  0.98904100  0.86708700  0.89639200  1
  C  269  1  0.98866200  0.89249700  0.91411200  1
  C  270  1  0.02290800  0.93297500  0.82880400  1
  C  271  1  0.00893900  0.95964200  0.81463100  1
  C  272  1  0.06456000  0.93065900  0.83401800  1
  C  273  1  0.09200300  0.95517900  0.82504500  1
  C  274  1  0.07646900  0.98141500  0.81030200  1
  C  275  1  0.03525300  0.98382400  0.80507500  1
  C  283  1  0.13261900  0.95492000  0.83167300  1
  C  284  1  0.98921200  0.81097700  0.78150400  1
  C  288  1  0.48814000  0.06334300  0.86549700  1
  C  289  1  0.48879900  0.09720900  0.87229700  1
  C  290  1  0.48898300  0.11715500  0.85156200  1
  C  291  1  0.48849500  0.09637600  0.83118100  1
  C  292  1  0.48830200  0.11122600  0.80788900  1
  C  293  1  0.48858500  0.14693600  0.80482700  1
  C  294  1  0.48914200  0.16691500  0.82607700  1
  C  295  1  0.48933800  0.15237700  0.84923300  1
  C  296  1  0.48891000  0.10630000  0.89679500  1
  C  297  1  0.48824200  0.08092700  0.91455300  1
  C  298  1  0.48745600  0.04622900  0.90834000  1
  C  299  1  0.48746500  0.03790200  0.88337500  1
  C  300  1  0.45337300  0.04028000  0.82948700  1
  C  301  1  0.46710900  0.01247900  0.81639300  1
  C  302  1  0.50880600  0.01229700  0.81645600  1
  C  303  1  0.52275000  0.03996600  0.82960200  1
  C  304  1  0.53526500  0.98808500  0.80709700  1
  C  305  1  0.57666400  0.99159900  0.81141000  1
  C  306  1  0.59223700  0.01889600  0.82512800  1
  C  307  1  0.56456200  0.04332600  0.83397600  1
  C  308  1  0.41154000  0.04410200  0.83358400  1
  C  309  1  0.38369100  0.01994500  0.82456400  1
  C  310  1  0.39904400  0.99249700  0.81092500  1
  C  311  1  0.44045500  0.98855300  0.80685500  1
  C  324  1  0.48814900  0.06023300  0.83873600  1
  C  325  1  0.63351000  0.02146600  0.82979300  1
  C  326  1  0.34234900  0.02306600  0.82869200  1
  C  327  1  0.48595400  0.02084800  0.92594700  1
  C  328  1  0.48804900  0.16191600  0.78175000  1
  C  333  1  0.48932900  0.90955400  0.11239000  1
  C  334  1  0.48880500  0.87568400  0.10559300  1
  C  335  1  0.48866700  0.85573000  0.12632100  1
  C  336  1  0.48902500  0.87649900  0.14670800  1
  C  337  1  0.48891900  0.86162400  0.16999200  1
  C  338  1  0.48852800  0.82591000  0.17303700  1
  C  339  1  0.48820300  0.80594900  0.15177800  1
  C  340  1  0.48826600  0.82050600  0.12862900  1
  C  341  1  0.48858800  0.86658300  0.08110000  1
  C  342  1  0.48898900  0.89195200  0.06334100  1
  C  343  1  0.48957900  0.92666500  0.06954400  1
  C  344  1  0.48974400  0.93499700  0.09450800  1
  C  345  1  0.45477200  0.93293100  0.14829500  1
  C  346  1  0.46875300  0.96068200  0.16134200  1
  C  347  1  0.51045900  0.96048600  0.16139300  1
  C  348  1  0.52417400  0.93262100  0.14835400  1
  C  349  1  0.53715200  0.98438000  0.17094100  1
  C  350  1  0.57859100  0.98026800  0.16703400  1
  C  351  1  0.59390800  0.95271600  0.15350200  1
  C  352  1  0.56603700  0.92861200  0.14443200  1
  C  353  1  0.41290700  0.92936700  0.14417500  1
  C  354  1  0.38524400  0.95369600  0.15316800  1
  C  355  1  0.40083800  0.98109300  0.16676300  1
  C  356  1  0.44229100  0.98480600  0.17082100  1
  C  369  1  0.48936200  0.91265100  0.13915400  1
  C  370  1  0.63529500  0.94937000  0.14974700  1
  C  371  1  0.34387200  0.95078700  0.14903600  1
  C  372  1  0.49060500  0.95201700  0.05190100  1
  C  373  1  0.48826000  0.81090200  0.19610700  1
  C  378  1  0.99159900  0.46585000  0.46806300  1
  C  379  1  0.98924800  0.50637800  0.50964800  1
  C  381  1  0.99976400  0.45194900  0.49119300  1
  C  382  1  0.00839800  0.41820300  0.49508400  1
  C  386  1  0.48606000  0.46551900  0.50942300  1
  C  388  1  0.49572000  0.51970600  0.49112400  1
  C  389  1  0.48829900  0.50640000  0.46801800  1
  C  391  1  0.47803700  0.45179300  0.48623300  1
  C  393  1  0.46948700  0.41810400  0.48223900  1
  C  398  1  0.99118700  0.96577000  0.96810200  1
  C  400  1  0.99929400  0.95188500  0.99124200  1
  C  401  1  0.00787400  0.91813400  0.99515300  1
  C  405  1  0.48651400  0.96545100  0.00939700  1
  C  407  1  0.49614100  0.01966100  0.99112100  1
  C  408  1  0.48876600  0.00637300  0.96800600  1
  C  410  1  0.47853400  0.95174100  0.98619500  1
  C  412  1  0.47002600  0.91804900  0.98218500  1
  C  417  1  0.28046700  0.47875300  0.65145600  1
  C  419  1  0.21888300  0.47781700  0.67362000  1
  C  420  1  0.19884200  0.49428200  0.65465600  1
  C  422  1  0.26063100  0.49491700  0.63195400  1
  C  424  1  0.28003600  0.50504500  0.61106900  1
  C  429  1  0.27894900  0.49526100  0.32660700  1
  C  431  1  0.21757300  0.49687500  0.30425100  1
  C  432  1  0.19737300  0.47978400  0.32287200  1
  C  434  1  0.25896000  0.47840900  0.34573300  1
  C  436  1  0.27824500  0.46784300  0.36650900  1
  C  441  1  0.69727300  0.49451100  0.32605900  1
  C  443  1  0.75876100  0.49448700  0.30380600  1
  C  444  1  0.77879400  0.47860800  0.32302000  1
  C  446  1  0.71710000  0.47894600  0.34582100  1
  C  448  1  0.69771900  0.46940200  0.36685000  1
  C  453  1  0.69861000  0.47765600  0.65040000  1
  C  455  1  0.76014000  0.47599900  0.67261100  1
  C  456  1  0.78019800  0.49323400  0.65400000  1
  C  458  1  0.71845500  0.49465700  0.63128700  1
  C  460  1  0.69901000  0.50532100  0.61059000  1
  C  465  1  0.28049400  0.97865100  0.15113600  1
  C  467  1  0.21892200  0.97760000  0.17332300  1
  C  468  1  0.19888100  0.99427800  0.15445100  1
  C  470  1  0.26065500  0.99503800  0.13173300  1
  C  472  1  0.28004800  0.00528400  0.11087200  1
  C  477  1  0.27886200  0.99537200  0.82669500  1
  C  479  1  0.21746200  0.99659700  0.80435300  1
  C  480  1  0.19732500  0.97968700  0.82308100  1
  C  482  1  0.25894200  0.97870100  0.84592900  1
  C  484  1  0.27829900  0.96834900  0.86673600  1
  C  489  1  0.69726100  0.99443600  0.82601100  1
  C  491  1  0.75877200  0.99459600  0.80377300  1
  C  492  1  0.77879200  0.97855100  0.82292300  1
  C  494  1  0.71707600  0.97870400  0.84570800  1
  C  496  1  0.69768200  0.96900700  0.86669600  1
  C  501  1  0.69852200  0.97764100  0.15034700  1
  C  503  1  0.76000100  0.97576000  0.17262200  1
  C  504  1  0.78012000  0.99322400  0.15414100  1
  C  506  1  0.71843600  0.99488100  0.13137100  1
  C  508  1  0.69909100  0.00570600  0.11068100  1
  C  513  1  0.98960400  0.71501600  0.71833400  1
  C  514  1  0.98896800  0.75881800  0.75850700  1
  C  516  1  0.99129200  0.75059500  0.71527300  1
  C  517  1  0.99240600  0.76613100  0.69287000  1
  C  521  1  0.98985000  0.25792600  0.25906400  1
  C  522  1  0.98887200  0.21406800  0.21892200  1
  C  524  1  0.99261400  0.22239500  0.26209600  1
  C  525  1  0.99512800  0.20693900  0.28444900  1
  C  529  1  0.48790500  0.71495800  0.25928000  1
  C  531  1  0.48999100  0.72348700  0.21638700  1
  C  532  1  0.48856700  0.75875700  0.21912200  1
  C  534  1  0.48607500  0.75053100  0.26234500  1
  C  536  1  0.48479800  0.76606300  0.28474600  1
  C  541  1  0.48774200  0.25784600  0.71855400  1
  C  543  1  0.49099700  0.24927700  0.76141800  1
  C  544  1  0.48871800  0.21403300  0.75870300  1
  C  546  1  0.48506600  0.22231200  0.71552700  1
  C  548  1  0.48264600  0.20684100  0.69317600  1
  C  553  1  0.96861200  0.11060900  0.66252900  1
  C  554  1  0.95472600  0.13736400  0.64841300  1
  C  555  1  0.94223800  0.08647000  0.67207700  1
  C  556  1  0.90104100  0.08893100  0.66681500  1
  C  557  1  0.88557500  0.11520200  0.65207800  1
  C  558  1  0.91309500  0.13968400  0.64312500  1
  C  564  1  0.84493800  0.11555300  0.64547700  1
  C  566  1  0.98862100  0.00766800  0.36496900  1
  C  567  1  0.98869800  0.97443640  0.33071800  1
  C  568  1  0.98848700  0.95946140  0.30745800  1
  C  569  1  0.98818500  0.03313700  0.38283800  1
  C  570  1  0.96720100  0.05725700  0.31470600  1
  C  571  1  0.95355300  0.03040300  0.32881400  1
  C  572  1  0.94061500  0.08124000  0.30517000  1
  C  573  1  0.89946900  0.07857900  0.31050800  1
  C  574  1  0.88426100  0.05223300  0.32527900  1
  C  575  1  0.91196400  0.02785800  0.33416300  1
  C  581  1  0.98840000  0.01062700  0.33818300  1
  C  582  1  0.84370600  0.05181100  0.33202100  1
  C  583  1  0.98743300  0.05016300  0.42548000  1
  C  584  1  0.98851700  0.90860740  0.28144000  1
  C  587  1  0.98866500  0.69439100  0.10546700  1
  C  588  1  0.98855100  0.71441300  0.12615800  1
  C  589  1  0.98847700  0.76426600  0.15156300  1
  C  590  1  0.98824500  0.74964700  0.12843200  1
  C  591  1  0.98860700  0.70347500  0.08097200  1
  C  592  1  0.96862100  0.61069300  0.16255800  1
  C  593  1  0.95466700  0.63747000  0.14849000  1
  C  594  1  0.94227700  0.58656300  0.17215200  1
  C  595  1  0.90103800  0.58907000  0.16701400  1
  C  596  1  0.88550700  0.61533100  0.15229500  1
  C  597  1  0.91299400  0.63982300  0.14330800  1
  C  604  1  0.84484200  0.61565200  0.14573100  1
  C  605  1  0.98843100  0.50748600  0.86503500  1
  C  606  1  0.98857000  0.47424300  0.83079900  1
  C  607  1  0.98861600  0.45927100  0.80754200  1
  C  608  1  0.98814100  0.52469200  0.90787000  1
  C  609  1  0.98803000  0.53297300  0.88289100  1
  C  610  1  0.96722500  0.55703200  0.81469900  1
  C  611  1  0.95353500  0.53027600  0.82887900  1
  C  612  1  0.94068000  0.58101400  0.80512000  1
  C  613  1  0.89950900  0.57836300  0.81039700  1
  C  614  1  0.88424200  0.55205500  0.82517900  1
  C  615  1  0.91191600  0.52770400  0.83413800  1
  C  621  1  0.98833000  0.51043900  0.83825000  1
  C  622  1  0.84365000  0.55161300  0.83185400  1
  C  623  1  0.98710200  0.55004100  0.92552100  1
  C  626  1  0.98172700  0.11734100  0.48660200  1
  C  630  1  0.98134900  0.61728900  0.98661000  1
  C  631  1  0.98881500  0.60383400  0.00966900  1
  C  635  1  0.98768300  0.32103600  0.76123600  1
  C  639  1  0.98650800  0.84680200  0.21620000  1
  C  642  1  0.98952200  0.16044900  0.61230700  1
  C  643  1  0.98914300  0.19432000  0.60548400  1
  C  644  1  0.98890500  0.21432700  0.62618300  1
  C  645  1  0.98911000  0.19360000  0.64658800  1
  C  646  1  0.98904400  0.20852800  0.66986100  1
  C  647  1  0.98882700  0.24423800  0.67288500  1
  C  648  1  0.98861000  0.26415200  0.65158900  1
  C  649  1  0.98866200  0.24954900  0.62846000  1
  C  650  1  0.98927800  0.20343400  0.58099500  1
  C  651  1  0.98995300  0.17807300  0.56324000  1
  C  652  1  0.99047400  0.14336700  0.56944600  1
  C  653  1  0.99022100  0.13501800  0.59441700  1
  C  654  1  0.02411800  0.13759800  0.64856400  1
  C  655  1  0.01032700  0.11078700  0.66266000  1
  C  656  1  0.06577000  0.14016300  0.64339600  1
  C  657  1  0.09337500  0.11575300  0.65235000  1
  C  658  1  0.07799500  0.08936200  0.66701100  1
  C  659  1  0.03679500  0.08672100  0.67220900  1
  C  667  1  0.98938400  0.15742200  0.63909200  1
  C  668  1  0.13400700  0.11620200  0.64576300  1
  C  669  1  0.99201500  0.11804700  0.55179200  1
  C  670  1  0.98874500  0.25932700  0.69593300  1
  C  674  1  0.98931200  0.97381040  0.37181500  1
  C  675  1  0.98933600  0.95376040  0.35114000  1
  C  676  1  0.98890200  0.92374040  0.30447600  1
  C  677  1  0.98956400  0.90387940  0.32578600  1
  C  678  1  0.98978400  0.91852840  0.34890200  1
  C  679  1  0.98968800  0.96474140  0.39631000  1
  C  680  1  0.98927200  0.99013440  0.41404000  1
  C  681  1  0.98849700  0.02483500  0.40781400  1
  C  682  1  0.02293500  0.03068500  0.32872000  1
  C  683  1  0.00890900  0.05743000  0.31465300  1
  C  684  1  0.06461400  0.02831200  0.33384100  1
  C  685  1  0.09203600  0.05281100  0.32482000  1
  C  686  1  0.07645700  0.07906500  0.31011000  1
  C  687  1  0.03520800  0.08153900  0.30498900  1
  C  695  1  0.13267600  0.05251100  0.33138500  1
  C  698  1  0.48783000  0.16072100  0.36547500  1
  C  699  1  0.48828700  0.19459400  0.37225800  1
  C  700  1  0.48858800  0.21451000  0.35151300  1
  C  701  1  0.48840500  0.19372100  0.33113500  1
  C  702  1  0.48851300  0.20855600  0.30783400  1
  C  703  1  0.48874800  0.24426300  0.30476600  1
  C  704  1  0.48895300  0.26424200  0.32602500  1
  C  705  1  0.48886500  0.24972700  0.34918100  1
  C  706  1  0.48818500  0.20372600  0.39674800  1
  C  707  1  0.48751100  0.17837800  0.41452300  1
  C  708  1  0.48694500  0.14366700  0.40833100  1
  C  709  1  0.48714000  0.13530500  0.38337100  1
  C  710  1  0.45332700  0.13762500  0.32940300  1
  C  711  1  0.46712400  0.10990500  0.31624400  1
  C  712  1  0.50881800  0.10969000  0.31643300  1
  C  713  1  0.52268400  0.13729100  0.32968300  1
  C  714  1  0.53533700  0.08553900  0.30705800  1
  C  715  1  0.57671800  0.08907200  0.31143200  1
  C  716  1  0.59221300  0.11634400  0.32521100  1
  C  717  1  0.56447800  0.14071200  0.33407800  1
  C  718  1  0.41146500  0.14154300  0.33333333  1
  C  719  1  0.38366000  0.11744600  0.32418900  1
  C  720  1  0.39906500  0.08999300  0.31058200  1
  C  721  1  0.44050600  0.08598700  0.30665400  1
  C  734  1  0.48804000  0.15758900  0.33871600  1
  C  735  1  0.63346400  0.11893200  0.32992900  1
  C  736  1  0.34229100  0.12067200  0.32808800  1
  C  737  1  0.48545100  0.11831400  0.42595400  1
  C  738  1  0.48884700  0.25928200  0.28169600  1
  C  743  1  0.48909100  0.00718500  0.61243100  1
  C  744  1  0.48834700  0.97331740  0.60564100  1
  C  745  1  0.48827800  0.95337540  0.62637200  1
  C  746  1  0.48891600  0.97413740  0.64675900  1
  C  747  1  0.48909700  0.95926440  0.67004700  1
  C  748  1  0.48865800  0.92355240  0.67309000  1
  C  749  1  0.48799500  0.90360540  0.65182000  1
  C  750  1  0.48779400  0.91815640  0.62867500  1
  C  751  1  0.48792600  0.96420240  0.58115100  1
  C  752  1  0.48834400  0.98956040  0.56338900  1
  C  753  1  0.48916300  0.02427100  0.56958100  1
  C  754  1  0.48951900  0.03261800  0.59454100  1
  C  755  1  0.45474200  0.03056100  0.64838400  1
  C  756  1  0.46876800  0.05828900  0.66144100  1
  C  757  1  0.51047100  0.05805900  0.66146100  1
  C  758  1  0.52412000  0.03022200  0.64836500  1
  C  759  1  0.53719400  0.08207000  0.67081800  1
  C  760  1  0.57859100  0.07805600  0.66671600  1
  C  761  1  0.59384700  0.05051200  0.65314200  1
  C  762  1  0.56593200  0.02635700  0.64419600  1
  C  763  1  0.41288800  0.02706800  0.64422800  1
  C  764  1  0.38525900  0.05143800  0.65319600  1
  C  765  1  0.40088900  0.07880500  0.66681100  1
  C  766  1  0.44233900  0.08243700  0.67091900  1
  C  779  1  0.48927800  0.01027900  0.63919600  1
  C  780  1  0.63518600  0.04726300  0.64909400  1
  C  781  1  0.34391700  0.04862400  0.64892700  1
  C  782  1  0.49020800  0.04960900  0.55192900  1
  C  783  1  0.48903100  0.90849840  0.69614500  1
  C  788  1  0.98923900  0.66052500  0.11230200  1
  C  789  1  0.98904400  0.69369600  0.14656400  1
  C  790  1  0.98928400  0.70863700  0.16983200  1
  C  791  1  0.98903200  0.74435600  0.17284600  1
  C  792  1  0.98926300  0.67809600  0.06322800  1
  C  793  1  0.98999500  0.64339800  0.06944900  1
  C  794  1  0.98992600  0.63507600  0.09442500  1
  C  795  1  0.02408500  0.63766600  0.14848400  1
  C  796  1  0.01033300  0.61080700  0.16254400  1
  C  797  1  0.06573400  0.64023400  0.14328800  1
  C  798  1  0.09339400  0.61588200  0.15227700  1
  C  799  1  0.07805800  0.58953600  0.16699600  1
  C  800  1  0.03685200  0.58683200  0.17216100  1
  C  807  1  0.98929400  0.65750800  0.13908700  1
  C  808  1  0.13404300  0.61635600  0.14569900  1
  C  809  1  0.99154200  0.61806000  0.05180700  1
  C  810  1  0.98958600  0.75941000  0.19590500  1
  C  815  1  0.98886600  0.47362600  0.87189300  1
  C  816  1  0.98893200  0.45356100  0.85122200  1
  C  817  1  0.98897400  0.42354800  0.80455600  1
  C  818  1  0.98930000  0.40367100  0.82585500  1
  C  819  1  0.98927800  0.41832300  0.84897700  1
  C  820  1  0.98904100  0.46458100  0.89639200  1
  C  821  1  0.98866200  0.48999100  0.91411200  1
  C  822  1  0.02290800  0.53046900  0.82880400  1
  C  823  1  0.00893900  0.55713600  0.81463100  1
  C  824  1  0.06456000  0.52815300  0.83401800  1
  C  825  1  0.09200300  0.55267300  0.82504500  1
  C  826  1  0.07646900  0.57890900  0.81030200  1
  C  827  1  0.03525300  0.58131800  0.80507500  1
  C  835  1  0.13261900  0.55241400  0.83167300  1
  C  836  1  0.98921200  0.40847100  0.78150400  1
  C  840  1  0.48814000  0.66083700  0.86549700  1
  C  841  1  0.48879900  0.69470300  0.87229700  1
  C  842  1  0.48898300  0.71464900  0.85156200  1
  C  843  1  0.48849500  0.69387000  0.83118100  1
  C  844  1  0.48830200  0.70872000  0.80788900  1
  C  845  1  0.48858500  0.74443000  0.80482700  1
  C  846  1  0.48914200  0.76440900  0.82607700  1
  C  847  1  0.48933800  0.74987100  0.84923300  1
  C  848  1  0.48891000  0.70379400  0.89679500  1
  C  849  1  0.48824200  0.67842100  0.91455300  1
  C  850  1  0.48745600  0.64372300  0.90834000  1
  C  851  1  0.48746500  0.63539600  0.88337500  1
  C  852  1  0.45337300  0.63777400  0.82948700  1
  C  853  1  0.46710900  0.60997300  0.81639300  1
  C  854  1  0.50880600  0.60979100  0.81645600  1
  C  855  1  0.52275000  0.63746000  0.82960200  1
  C  856  1  0.53526500  0.58557900  0.80709700  1
  C  857  1  0.57666400  0.58909300  0.81141000  1
  C  858  1  0.59223700  0.61639000  0.82512800  1
  C  859  1  0.56456200  0.64082000  0.83397600  1
  C  860  1  0.41154000  0.64159600  0.83358400  1
  C  861  1  0.38369100  0.61743900  0.82456400  1
  C  862  1  0.39904400  0.58999100  0.81092500  1
  C  863  1  0.44045500  0.58604700  0.80685500  1
  C  876  1  0.48814900  0.65772700  0.83873600  1
  C  877  1  0.63351000  0.61896000  0.82979300  1
  C  878  1  0.34234900  0.62056000  0.82869200  1
  C  879  1  0.48595400  0.61834200  0.92594700  1
  C  880  1  0.48804900  0.75941000  0.78175000  1
  C  885  1  0.48932900  0.50704800  0.11239000  1
  C  886  1  0.48880500  0.47317800  0.10559300  1
  C  887  1  0.48866700  0.45322400  0.12632100  1
  C  888  1  0.48902500  0.47399300  0.14670800  1
  C  889  1  0.48891900  0.45911800  0.16999200  1
  C  890  1  0.48852800  0.42340400  0.17303700  1
  C  891  1  0.48820300  0.40344300  0.15177800  1
  C  892  1  0.48826600  0.41800000  0.12862900  1
  C  893  1  0.48858800  0.46407700  0.08110000  1
  C  894  1  0.48898900  0.48944600  0.06334100  1
  C  895  1  0.48957900  0.52415900  0.06954400  1
  C  896  1  0.48974400  0.53249100  0.09450800  1
  C  897  1  0.45477200  0.53042500  0.14829500  1
  C  898  1  0.46875300  0.55817600  0.16134200  1
  C  899  1  0.51045900  0.55798000  0.16139300  1
  C  900  1  0.52417400  0.53011500  0.14835400  1
  C  901  1  0.53715200  0.58187400  0.17094100  1
  C  902  1  0.57859100  0.57776200  0.16703400  1
  C  903  1  0.59390800  0.55021000  0.15350200  1
  C  904  1  0.56603700  0.52610600  0.14443200  1
  C  905  1  0.41290700  0.52686100  0.14417500  1
  C  906  1  0.38524400  0.55119000  0.15316800  1
  C  907  1  0.40083800  0.57858700  0.16676300  1
  C  908  1  0.44229100  0.58230000  0.17082100  1
  C  921  1  0.48936200  0.51014500  0.13915400  1
  C  922  1  0.63529500  0.54686400  0.14974700  1
  C  923  1  0.34387200  0.54828100  0.14903600  1
  C  924  1  0.49060500  0.54951100  0.05190100  1
  C  925  1  0.48826000  0.40839600  0.19610700  1
  C  930  1  0.99159900  0.06334400  0.46806300  1
  C  931  1  0.98924800  0.10387200  0.50964800  1
  C  933  1  0.99976400  0.04944300  0.49119300  1
  C  934  1  0.00839800  0.01569700  0.49508400  1
  C  938  1  0.48606000  0.06301300  0.50942300  1
  C  940  1  0.49572000  0.11720000  0.49112400  1
  C  941  1  0.48829900  0.10389400  0.46801800  1
  C  943  1  0.47803700  0.04928700  0.48623300  1
  C  945  1  0.46948700  0.01559800  0.48223900  1
  C  950  1  0.99118700  0.56326400  0.96810200  1
  C  952  1  0.99929400  0.54937900  0.99124200  1
  C  953  1  0.00787400  0.51562800  0.99515300  1
  C  957  1  0.48651400  0.56294500  0.00939700  1
  C  959  1  0.49614100  0.61715500  0.99112100  1
  C  960  1  0.48876600  0.60386700  0.96800600  1
  C  962  1  0.47853400  0.54923500  0.98619500  1
  C  964  1  0.47002600  0.51554300  0.98218500  1
  C  969  1  0.28046700  0.07624700  0.65145600  1
  C  971  1  0.21888300  0.07531100  0.67362000  1
  C  972  1  0.19884200  0.09177600  0.65465600  1
  C  974  1  0.26063100  0.09241100  0.63195400  1
  C  976  1  0.28003600  0.10253900  0.61106900  1
  C  981  1  0.27894900  0.09275500  0.32660700  1
  C  983  1  0.21757300  0.09436900  0.30425100  1
  C  984  1  0.19737300  0.07727800  0.32287200  1
  C  986  1  0.25896000  0.07590300  0.34573300  1
  C  988  1  0.27824500  0.06533700  0.36650900  1
  C  993  1  0.69727300  0.09200500  0.32605900  1
  C  995  1  0.75876100  0.09198100  0.30380600  1
  C  996  1  0.77879400  0.07610200  0.32302000  1
  C  998  1  0.71710000  0.07644000  0.34582100  1
  C  1000  1  0.69771900  0.06689600  0.36685000  1
  C  1005  1  0.69861000  0.07515000  0.65040000  1
  C  1007  1  0.76014000  0.07349300  0.67261100  1
  C  1008  1  0.78019800  0.09072800  0.65400000  1
  C  1010  1  0.71845500  0.09215100  0.63128700  1
  C  1012  1  0.69901000  0.10281500  0.61059000  1
  C  1017  1  0.28049400  0.57614500  0.15113600  1
  C  1019  1  0.21892200  0.57509400  0.17332300  1
  C  1020  1  0.19888100  0.59177200  0.15445100  1
  C  1022  1  0.26065500  0.59253200  0.13173300  1
  C  1024  1  0.28004800  0.60277800  0.11087200  1
  C  1029  1  0.27886200  0.59286600  0.82669500  1
  C  1031  1  0.21746200  0.59409100  0.80435300  1
  C  1032  1  0.19732500  0.57718100  0.82308100  1
  C  1034  1  0.25894200  0.57619500  0.84592900  1
  C  1036  1  0.27829900  0.56584300  0.86673600  1
  C  1041  1  0.69726100  0.59193000  0.82601100  1
  C  1043  1  0.75877200  0.59209000  0.80377300  1
  C  1044  1  0.77879200  0.57604500  0.82292300  1
  C  1046  1  0.71707600  0.57619800  0.84570800  1
  C  1048  1  0.69768200  0.56650100  0.86669600  1
  C  1053  1  0.69852200  0.57513500  0.15034700  1
  C  1055  1  0.76000100  0.57325400  0.17262200  1
  C  1056  1  0.78012000  0.59071800  0.15414100  1
  C  1058  1  0.71843600  0.59237500  0.13137100  1
  C  1060  1  0.69909100  0.60320000  0.11068100  1
  C  1065  1  0.98960400  0.31251000  0.71833400  1
  C  1066  1  0.98896800  0.35631200  0.75850700  1
  C  1068  1  0.99129200  0.34808900  0.71527300  1
  C  1069  1  0.99240600  0.36362500  0.69287000  1
  C  1073  1  0.98985000  0.85542000  0.25906400  1
  C  1074  1  0.98887200  0.81156200  0.21892200  1
  C  1076  1  0.99261400  0.81988900  0.26209600  1
  C  1077  1  0.99512800  0.80443300  0.28444900  1
  C  1081  1  0.48790500  0.31245200  0.25928000  1
  C  1083  1  0.48999100  0.32098100  0.21638700  1
  C  1084  1  0.48856700  0.35625100  0.21912200  1
  C  1086  1  0.48607500  0.34802500  0.26234500  1
  C  1088  1  0.48479800  0.36355700  0.28474600  1
  C  1093  1  0.48774200  0.85534000  0.71855400  1
  C  1095  1  0.49099700  0.84677100  0.76141800  1
  C  1096  1  0.48871800  0.81152700  0.75870300  1
  C  1098  1  0.48506600  0.81980600  0.71552700  1
  C  1100  1  0.48264600  0.80433500  0.69317600  1
  N  73  1  0.98299400  0.49934700  0.46699700  1
  N  76  1  0.98827400  0.52636700  0.52901400  1
  N  77  1  0.98262300  0.99927400  0.96701600  1
  N  81  1  0.98782600  0.02635300  0.02902400  1
  N  82  1  0.98794400  0.70333400  0.74140600  1
  N  85  1  0.98872500  0.77878600  0.77802200  1
  N  86  1  0.98697600  0.26954400  0.23601800  1
  N  89  1  0.98848400  0.19408900  0.19941100  1
  N  380  1  0.99790000  0.47294900  0.51067400  1
  N  385  1  0.99174100  0.44669100  0.44819200  1
  N  387  1  0.49450100  0.49903400  0.51063800  1
  N  390  1  0.47980100  0.47295000  0.46684200  1
  N  396  1  0.48591500  0.44619300  0.52921200  1
  N  397  1  0.48921700  0.52655300  0.44873900  1
  N  399  1  0.99742200  0.97290400  0.01071400  1
  N  404  1  0.99132900  0.94658800  0.94824100  1
  N  406  1  0.49492200  0.99897400  0.01062800  1
  N  409  1  0.48030400  0.97291600  0.96681200  1
  N  415  1  0.48637000  0.94610800  0.02917900  1
  N  416  1  0.48969600  0.02654600  0.94873800  1
  N  418  1  0.25880700  0.47146100  0.67153900  1
  N  421  1  0.22060700  0.50192900  0.63462900  1
  N  427  1  0.31999900  0.47589000  0.65318200  1
  N  428  1  0.15990300  0.50038100  0.65693700  1
  N  430  1  0.25748500  0.50317900  0.30656000  1
  N  433  1  0.21896700  0.47151000  0.34283600  1
  N  439  1  0.31853900  0.49794700  0.32512600  1
  N  440  1  0.15845200  0.47370000  0.32041000  1
  N  442  1  0.71888700  0.50102400  0.30583300  1
  N  445  1  0.75708200  0.47169800  0.34320500  1
  N  451  1  0.65780400  0.49759100  0.32414300  1
  N  452  1  0.81769700  0.47241600  0.32076100  1
  N  454  1  0.72022300  0.46965600  0.67037300  1
  N  457  1  0.75845800  0.50159900  0.63411200  1
  N  463  1  0.65902000  0.47496800  0.65198200  1
  N  464  1  0.81912200  0.49936800  0.65641600  1
  N  466  1  0.25883400  0.97120000  0.17119400  1
  N  469  1  0.22064700  0.00207600  0.13445500  1
  N  475  1  0.32005000  0.97577500  0.15278800  1
  N  476  1  0.15993600  0.00038900  0.15675700  1
  N  478  1  0.25735600  0.00299300  0.80660800  1
  N  481  1  0.21896100  0.97168200  0.84308700  1
  N  487  1  0.31843100  0.99810300  0.82509700  1
  N  488  1  0.15842400  0.97351200  0.82064600  1
  N  490  1  0.71889500  0.00112000  0.80581900  1
  N  493  1  0.75705900  0.97147400  0.84307200  1
  N  499  1  0.65778200  0.99751600  0.82412200  1
  N  500  1  0.81769800  0.97235000  0.82065100  1
  N  502  1  0.72009300  0.96940200  0.17029500  1
  N  505  1  0.75842700  0.00179800  0.13428200  1
  N  511  1  0.65889600  0.97489200  0.15175200  1
  N  512  1  0.81905300  0.99935900  0.15661000  1
  N  515  1  0.99062700  0.77042800  0.73545900  1
  N  520  1  0.98947700  0.69402500  0.69929800  1
  N  523  1  0.99175900  0.20251400  0.24194200  1
  N  528  1  0.98985300  0.27892200  0.27809700  1
  N  530  1  0.48971100  0.70327300  0.23621400  1
  N  533  1  0.48675800  0.77036800  0.24216300  1
  N  539  1  0.48803400  0.69397500  0.27831300  1
  N  540  1  0.48882000  0.77871900  0.19961100  1
  N  542  1  0.49053300  0.26949600  0.74159500  1
  N  545  1  0.48591500  0.20244900  0.73568900  1
  N  551  1  0.48773900  0.27882100  0.69951800  1
  N  552  1  0.48910000  0.19408400  0.77821800  1
  N  625  1  0.98299400  0.09684100  0.46699700  1
  N  628  1  0.98827400  0.12386100  0.52901400  1
  N  629  1  0.98262300  0.59676800  0.96701600  1
  N  633  1  0.98782600  0.62384700  0.02902400  1
  N  634  1  0.98794400  0.30082800  0.74140600  1
  N  637  1  0.98872500  0.37628000  0.77802200  1
  N  638  1  0.98697600  0.86703800  0.23601800  1
  N  641  1  0.98848400  0.79158300  0.19941100  1
  N  932  1  0.99790000  0.07044300  0.51067400  1
  N  937  1  0.99174100  0.04418500  0.44819200  1
  N  939  1  0.49450100  0.09652800  0.51063800  1
  N  942  1  0.47980100  0.07044400  0.46684200  1
  N  948  1  0.48591500  0.04368700  0.52921200  1
  N  949  1  0.48921700  0.12404700  0.44873900  1
  N  951  1  0.99742200  0.57039800  0.01071400  1
  N  956  1  0.99132900  0.54408200  0.94824100  1
  N  958  1  0.49492200  0.59646800  0.01062800  1
  N  961  1  0.48030400  0.57041000  0.96681200  1
  N  967  1  0.48637000  0.54360200  0.02917900  1
  N  968  1  0.48969600  0.62404000  0.94873800  1
  N  970  1  0.25880700  0.06895500  0.67153900  1
  N  973  1  0.22060700  0.09942300  0.63462900  1
  N  979  1  0.31999900  0.07338400  0.65318200  1
  N  980  1  0.15990300  0.09787500  0.65693700  1
  N  982  1  0.25748500  0.10067300  0.30656000  1
  N  985  1  0.21896700  0.06900400  0.34283600  1
  N  991  1  0.31853900  0.09544100  0.32512600  1
  N  992  1  0.15845200  0.07119400  0.32041000  1
  N  994  1  0.71888700  0.09851800  0.30583300  1
  N  997  1  0.75708200  0.06919200  0.34320500  1
  N  1003  1  0.65780400  0.09508500  0.32414300  1
  N  1004  1  0.81769700  0.06991000  0.32076100  1
  N  1006  1  0.72022300  0.06715000  0.67037300  1
  N  1009  1  0.75845800  0.09909300  0.63411200  1
  N  1015  1  0.65902000  0.07246200  0.65198200  1
  N  1016  1  0.81912200  0.09686200  0.65641600  1
  N  1018  1  0.25883400  0.56869400  0.17119400  1
  N  1021  1  0.22064700  0.59957000  0.13445500  1
  N  1027  1  0.32005000  0.57326900  0.15278800  1
  N  1028  1  0.15993600  0.59788300  0.15675700  1
  N  1030  1  0.25735600  0.60048700  0.80660800  1
  N  1033  1  0.21896100  0.56917600  0.84308700  1
  N  1039  1  0.31843100  0.59559700  0.82509700  1
  N  1040  1  0.15842400  0.57100600  0.82064600  1
  N  1042  1  0.71889500  0.59861400  0.80581900  1
  N  1045  1  0.75705900  0.56896800  0.84307200  1
  N  1051  1  0.65778200  0.59501000  0.82412200  1
  N  1052  1  0.81769800  0.56984400  0.82065100  1
  N  1054  1  0.72009300  0.56689600  0.17029500  1
  N  1057  1  0.75842700  0.59929200  0.13428200  1
  N  1063  1  0.65889600  0.57238600  0.15175200  1
  N  1064  1  0.81905300  0.59685300  0.15661000  1
  N  1067  1  0.99062700  0.36792200  0.73545900  1
  N  1072  1  0.98947700  0.29151900  0.69929800  1
  N  1075  1  0.99175900  0.80000800  0.24194200  1
  N  1080  1  0.98985300  0.87641600  0.27809700  1
  N  1082  1  0.48971100  0.30076700  0.23621400  1
  N  1085  1  0.48675800  0.36786200  0.24216300  1
  N  1091  1  0.48803400  0.29146900  0.27831300  1
  N  1092  1  0.48882000  0.37621300  0.19961100  1
  N  1094  1  0.49053300  0.86699000  0.74159500  1
  N  1097  1  0.48591500  0.79994300  0.73568900  1
  N  1103  1  0.48773900  0.87631500  0.69951800  1
  N  1104  1  0.48910000  0.79157800  0.77821800  1
  O  383  1  0.02620400  0.41009500  0.51346400  1
  O  394  1  0.45289100  0.40956600  0.46354900  1
  O  402  1  0.02564400  0.91002500  0.01354600  1
  O  413  1  0.45345700  0.90951100  0.96348700  1
  O  425  1  0.26051000  0.50622000  0.59242800  1
  O  437  1  0.25857500  0.46392700  0.38490900  1
  O  449  1  0.71720900  0.46895200  0.38552200  1
  O  461  1  0.71856300  0.50945900  0.59216800  1
  O  473  1  0.26047400  0.00666300  0.09225600  1
  O  485  1  0.25867400  0.96450200  0.88516200  1
  O  497  1  0.71717500  0.96836700  0.88536400  1
  O  509  1  0.71872600  0.00990200  0.09229900  1
  O  518  1  0.00300600  0.79552000  0.69148800  1
  O  526  1  0.00624200  0.17768400  0.28591000  1
  O  537  1  0.47401200  0.79540600  0.28611600  1
  O  549  1  0.47168200  0.17754600  0.69171300  1
  O  935  1  0.02620400  0.00758900  0.51346400  1
  O  946  1  0.45289100  0.00706000  0.46354900  1
  O  954  1  0.02564400  0.50751900  0.01354600  1
  O  965  1  0.45345700  0.50700500  0.96348700  1
  O  977  1  0.26051000  0.10371400  0.59242800  1
  O  989  1  0.25857500  0.06142100  0.38490900  1
  O  1001  1  0.71720900  0.06644600  0.38552200  1
  O  1013  1  0.71856300  0.10695300  0.59216800  1
  O  1025  1  0.26047400  0.60415700  0.09225600  1
  O  1037  1  0.25867400  0.56199600  0.88516200  1
  O  1049  1  0.71717500  0.56586100  0.88536400  1
  O  1061  1  0.71872600  0.60739600  0.09229900  1
  O  1070  1  0.00300600  0.39301400  0.69148800  1
  O  1078  1  0.00624200  0.77517800  0.28591000  1
  O  1089  1  0.47401200  0.39290000  0.28611600  1
  O  1101  1  0.47168200  0.77504000  0.69171300  1
