# generated using pymatgen
data_SiH32C40(NO)8
_symmetry_space_group_name_H-M   'P 1'
_cell_length_a   26.10420000
_cell_length_b   26.10420000
_cell_length_c   35.35920000
_cell_angle_alpha   90.00000000
_cell_angle_beta   90.00000000
_cell_angle_gamma   120.00000000
_symmetry_Int_Tables_number   1
_chemical_formula_structural   SiH32C40(NO)8
_chemical_formula_sum   'Si9 H288 C360 N72 O72'
_cell_volume   20866.70318918
_cell_formula_units_Z   9
loop_
 _symmetry_equiv_pos_site_id
 _symmetry_equiv_pos_as_xyz
  1  'x, y, z'
loop_
 _atom_site_type_symbol
 _atom_site_label
 _atom_site_symmetry_multiplicity
 _atom_site_fract_x
 _atom_site_fract_y
 _atom_site_fract_z
 _atom_site_occupancy
  C  1  1  0.55878450  0.39424250  0.91578400  1
  C  2  1  0.50968250  0.40291450  0.91668400  1
  C  3  1  0.50900600  0.44448600  0.94139200  1
  C  4  1  0.55722400  0.47816400  0.96604100  1
  C  5  1  0.60774650  0.47149650  0.96334200  1
  C  6  1  0.60844850  0.42972050  0.93849700  1
  C  8  1  0.54737550  0.57222950  0.96621000  1
  C  9  1  0.59574850  0.60610350  0.94171000  1
  C  10  1  0.59521150  0.64783850  0.91708900  1
  C  11  1  0.54606200  0.65643500  0.91608400  1
  C  12  1  0.49626800  0.62078700  0.93865600  1
  C  13  1  0.49686950  0.57891550  0.96346000  1
  C  14  1  0.49507350  0.48955750  0.02483700  1
  C  15  1  0.60910050  0.56020050  0.02501200  1
  C  16  1  0.63805800  0.62241300  0.03048800  1
  C  17  1  0.67928000  0.64996200  0.05980100  1
  C  18  1  0.69164500  0.61571700  0.08483600  1
  C  19  1  0.66303850  0.55384650  0.07997100  1
  C  20  1  0.62228450  0.52648250  0.05050800  1
  C  21  1  0.46616400  0.42728700  0.03005200  1
  C  22  1  0.42484950  0.39939750  0.05927500  1
  C  23  1  0.41232050  0.43331850  0.08449100  1
  C  24  1  0.44084150  0.49524050  0.07985000  1
  C  25  1  0.48166150  0.52294850  0.05046300  1
  C  50  1  0.91605300  0.51959500  0.24917500  1
  C  51  1  0.97388250  0.56860450  0.25018100  1
  C  52  1  0.01606650  0.56894250  0.27479500  1
  C  53  1  0.00139200  0.52050800  0.29927800  1
  C  54  1  0.94412650  0.47011250  0.29648300  1
  C  55  1  0.90173350  0.46972350  0.27170600  1
  C  57  1  0.10532700  0.53026500  0.29922700  1
  C  58  1  0.09075500  0.48252400  0.27414100  1
  C  59  1  0.13291000  0.48373200  0.24910100  1
  C  60  1  0.19070800  0.53282100  0.24841400  1
  C  61  1  0.20509200  0.58183200  0.27181900  1
  C  62  1  0.16264450  0.58068550  0.29688200  1
  C  63  1  0.07498000  0.58179400  0.35828300  1
  C  64  1  0.03127200  0.46775100  0.35778800  1
  C  65  1  0.06416600  0.43833600  0.36288200  1
  C  66  1  0.05047200  0.39688800  0.39206200  1
  C  67  1  0.00417350  0.38469950  0.41732900  1
  C  68  1  0.97117100  0.41364300  0.41278400  1
  C  69  1  0.98455000  0.45457500  0.38344200  1
  C  70  1  0.04217050  0.61127150  0.36355500  1
  C  71  1  0.05575650  0.65232950  0.39296700  1
  C  72  1  0.10181350  0.66400050  0.41831600  1
  C  73  1  0.13474000  0.63502200  0.41359800  1
  C  74  1  0.12149250  0.59450350  0.38401100  1
  C  99  1  0.68399300  0.16316500  0.58235800  1
  C  100  1  0.67524050  0.10535650  0.58320100  1
  C  101  1  0.63362600  0.06308400  0.60788200  1
  C  102  1  0.59996500  0.07762100  0.63255100  1
  C  103  1  0.60676750  0.13487650  0.62993200  1
  C  104  1  0.64858150  0.17737150  0.60511900  1
  C  106  1  0.50588000  0.97361400  0.63245800  1
  C  107  1  0.47254600  0.98823000  0.60754800  1
  C  108  1  0.43127750  0.94604950  0.58266600  1
  C  109  1  0.42243800  0.88820400  0.58193900  1
  C  110  1  0.45734800  0.87383300  0.60507900  1
  C  111  1  0.49893500  0.91628600  0.63000600  1
  C  112  1  0.58800900  0.00385700  0.69135600  1
  C  113  1  0.51746100  0.04733900  0.69120100  1
  C  114  1  0.45516000  0.01435700  0.69632000  1
  C  115  1  0.42737400  0.02796300  0.72552000  1
  C  116  1  0.46147000  0.07420000  0.75083100  1
  C  117  1  0.52340850  0.10727050  0.74628100  1
  C  118  1  0.55098500  0.09399200  0.71690300  1
  C  119  1  0.65029600  0.03679000  0.69657700  1
  C  120  1  0.67796650  0.02301650  0.72576300  1
  C  121  1  0.64377200  0.97665800  0.75096800  1
  C  122  1  0.58183800  0.94368700  0.74636000  1
  C  123  1  0.55437500  0.95714500  0.71699600  1
  C  148  1  0.49328000  0.25115100  0.87042800  1
  C  150  1  0.47271200  0.23548800  0.80382500  1
  C  151  1  0.44494000  0.17355000  0.80907500  1
  C  153  1  0.46361400  0.18922000  0.87593600  1
  C  156  1  0.40270150  0.13387750  0.92639500  1
  C  160  1  0.53669800  0.28271000  0.75284100  1
  C  164  1  0.42717100  0.13273900  0.77866500  1
  C  165  1  0.51789950  0.29325150  0.89994300  1
  C  168  1  0.83848400  0.58534000  0.20406300  1
  C  170  1  0.84274500  0.60567200  0.13745600  1
  C  171  1  0.80838450  0.63319950  0.14284600  1
  C  173  1  0.80601800  0.61476700  0.20970300  1
  C  176  1  0.81175450  0.67563250  0.26022400  1
  C  180  1  0.82584200  0.54156200  0.08651800  1
  C  184  1  0.78465800  0.65042000  0.11257100  1
  C  185  1  0.85616600  0.56075600  0.23348100  1
  C  188  1  0.82695900  0.24034200  0.53699200  1
  C  190  1  0.84262200  0.23505100  0.47042100  1
  C  191  1  0.90456950  0.26912250  0.47566400  1
  C  193  1  0.88889800  0.27249300  0.54249800  1
  C  196  1  0.94393100  0.26679600  0.59309600  1
  C  200  1  0.79545600  0.25172400  0.41936200  1
  C  204  1  0.94541550  0.29197850  0.44525900  1
  C  205  1  0.78482200  0.22322300  0.56647800  1
  C  208  1  0.61168600  0.79938100  0.87058300  1
  C  210  1  0.63212800  0.81489600  0.80395700  1
  C  211  1  0.65996950  0.87684950  0.80914800  1
  C  213  1  0.64139800  0.86132600  0.87602700  1
  C  216  1  0.70244400  0.91658100  0.92644900  1
  C  220  1  0.56803250  0.76755950  0.75303800  1
  C  224  1  0.67754500  0.91760100  0.77873600  1
  C  225  1  0.58699200  0.75735100  0.90013500  1
  C  228  1  0.26856000  0.46775700  0.20336200  1
  C  230  1  0.26291850  0.44552550  0.13693800  1
  C  231  1  0.29708000  0.41782300  0.14249200  1
  C  233  1  0.30077250  0.43808450  0.20916500  1
  C  236  1  0.29466100  0.37810500  0.26030300  1
  C  240  1  0.27925850  0.50842450  0.08537900  1
  C  244  1  0.31979800  0.39931300  0.11229100  1
  C  245  1  0.25179800  0.49359100  0.23257900  1
  C  248  1  0.27919000  0.81060400  0.53717900  1
  C  250  1  0.26237400  0.81521400  0.47069300  1
  C  251  1  0.20054250  0.78093250  0.47634300  1
  C  253  1  0.21733400  0.77833600  0.54307800  1
  C  256  1  0.16334800  0.78463600  0.59407500  1
  C  260  1  0.30896550  0.79825950  0.41940500  1
  C  264  1  0.15935000  0.75713200  0.44618700  1
  C  265  1  0.32185550  0.82768350  0.56635600  1
  C  1069  1  0.55878450  0.39424250  0.60469100  1
  C  1070  1  0.50968250  0.40291450  0.60559100  1
  C  1071  1  0.50900600  0.44448600  0.63029900  1
  C  1072  1  0.55722400  0.47816400  0.65494800  1
  C  1073  1  0.60774650  0.47149650  0.65224900  1
  C  1074  1  0.60844850  0.42972050  0.62740400  1
  C  1076  1  0.54737550  0.57222950  0.65511700  1
  C  1077  1  0.59574850  0.60610350  0.63061700  1
  C  1078  1  0.59521150  0.64783850  0.60599600  1
  C  1079  1  0.54606200  0.65643500  0.60499100  1
  C  1080  1  0.49626800  0.62078700  0.62756300  1
  C  1081  1  0.49686950  0.57891550  0.65236700  1
  C  1082  1  0.49507350  0.48955750  0.71374400  1
  C  1083  1  0.60910050  0.56020050  0.71391900  1
  C  1084  1  0.63805800  0.62241300  0.71939500  1
  C  1085  1  0.67928000  0.64996200  0.74870800  1
  C  1086  1  0.69164500  0.61571700  0.77374300  1
  C  1087  1  0.66303850  0.55384650  0.76887800  1
  C  1088  1  0.62228450  0.52648250  0.73941500  1
  C  1089  1  0.46616400  0.42728700  0.71895900  1
  C  1090  1  0.42484950  0.39939750  0.74818200  1
  C  1091  1  0.41232050  0.43331850  0.77339800  1
  C  1092  1  0.44084150  0.49524050  0.76875700  1
  C  1093  1  0.48166150  0.52294850  0.73937000  1
  C  1118  1  0.91605300  0.51959500  0.93808200  1
  C  1119  1  0.97388250  0.56860450  0.93908800  1
  C  1120  1  0.01606650  0.56894250  0.96370200  1
  C  1121  1  0.00139200  0.52050800  0.98818500  1
  C  1122  1  0.94412650  0.47011250  0.98539000  1
  C  1123  1  0.90173350  0.46972350  0.96061300  1
  C  1125  1  0.10532700  0.53026500  0.98813400  1
  C  1126  1  0.09075500  0.48252400  0.96304800  1
  C  1127  1  0.13291000  0.48373200  0.93800800  1
  C  1128  1  0.19070800  0.53282100  0.93732100  1
  C  1129  1  0.20509200  0.58183200  0.96072600  1
  C  1130  1  0.16264450  0.58068550  0.98578900  1
  C  1131  1  0.07498000  0.58179400  0.04719000  1
  C  1132  1  0.03127200  0.46775100  0.04669500  1
  C  1133  1  0.06416600  0.43833600  0.05178900  1
  C  1134  1  0.05047200  0.39688800  0.08096900  1
  C  1135  1  0.00417350  0.38469950  0.10623600  1
  C  1136  1  0.97117100  0.41364300  0.10169100  1
  C  1137  1  0.98455000  0.45457500  0.07234900  1
  C  1138  1  0.04217050  0.61127150  0.05246200  1
  C  1139  1  0.05575650  0.65232950  0.08187400  1
  C  1140  1  0.10181350  0.66400050  0.10722300  1
  C  1141  1  0.13474000  0.63502200  0.10250500  1
  C  1142  1  0.12149250  0.59450350  0.07291800  1
  C  1167  1  0.68399300  0.16316500  0.27126500  1
  C  1168  1  0.67524050  0.10535650  0.27210800  1
  C  1169  1  0.63362600  0.06308400  0.29678900  1
  C  1170  1  0.59996500  0.07762100  0.32145800  1
  C  1171  1  0.60676750  0.13487650  0.31883900  1
  C  1172  1  0.64858150  0.17737150  0.29402600  1
  C  1174  1  0.50588000  0.97361400  0.32136500  1
  C  1175  1  0.47254600  0.98823000  0.29645500  1
  C  1176  1  0.43127750  0.94604950  0.27157300  1
  C  1177  1  0.42243800  0.88820400  0.27084600  1
  C  1178  1  0.45734800  0.87383300  0.29398600  1
  C  1179  1  0.49893500  0.91628600  0.31891300  1
  C  1180  1  0.58800900  0.00385700  0.38026300  1
  C  1181  1  0.51746100  0.04733900  0.38010800  1
  C  1182  1  0.45516000  0.01435700  0.38522700  1
  C  1183  1  0.42737400  0.02796300  0.41442700  1
  C  1184  1  0.46147000  0.07420000  0.43973800  1
  C  1185  1  0.52340850  0.10727050  0.43518800  1
  C  1186  1  0.55098500  0.09399200  0.40581000  1
  C  1187  1  0.65029600  0.03679000  0.38548400  1
  C  1188  1  0.67796650  0.02301650  0.41467000  1
  C  1189  1  0.64377200  0.97665800  0.43987500  1
  C  1190  1  0.58183800  0.94368700  0.43526700  1
  C  1191  1  0.55437500  0.95714500  0.40590300  1
  C  1216  1  0.49328000  0.25115100  0.55933500  1
  C  1218  1  0.47271200  0.23548800  0.49273200  1
  C  1219  1  0.44494000  0.17355000  0.49798200  1
  C  1221  1  0.46361400  0.18922000  0.56484300  1
  C  1224  1  0.40270150  0.13387750  0.61530200  1
  C  1228  1  0.53669800  0.28271000  0.44174800  1
  C  1232  1  0.42717100  0.13273900  0.46757200  1
  C  1233  1  0.51789950  0.29325150  0.58885000  1
  C  1236  1  0.83848400  0.58534000  0.89297000  1
  C  1238  1  0.84274500  0.60567200  0.82636300  1
  C  1239  1  0.80838450  0.63319950  0.83175300  1
  C  1241  1  0.80601800  0.61476700  0.89861000  1
  C  1244  1  0.81175450  0.67563250  0.94913100  1
  C  1248  1  0.82584200  0.54156200  0.77542500  1
  C  1252  1  0.78465800  0.65042000  0.80147800  1
  C  1253  1  0.85616600  0.56075600  0.92238800  1
  C  1256  1  0.82695900  0.24034200  0.22589900  1
  C  1258  1  0.84262200  0.23505100  0.15932800  1
  C  1259  1  0.90456950  0.26912250  0.16457100  1
  C  1261  1  0.88889800  0.27249300  0.23140500  1
  C  1264  1  0.94393100  0.26679600  0.28200300  1
  C  1268  1  0.79545600  0.25172400  0.10826900  1
  C  1272  1  0.94541550  0.29197850  0.13416600  1
  C  1273  1  0.78482200  0.22322300  0.25538500  1
  C  1276  1  0.61168600  0.79938100  0.55949000  1
  C  1278  1  0.63212800  0.81489600  0.49286400  1
  C  1279  1  0.65996950  0.87684950  0.49805500  1
  C  1281  1  0.64139800  0.86132600  0.56493400  1
  C  1284  1  0.70244400  0.91658100  0.61535600  1
  C  1288  1  0.56803250  0.76755950  0.44194500  1
  C  1292  1  0.67754500  0.91760100  0.46764300  1
  C  1293  1  0.58699200  0.75735100  0.58904200  1
  C  1296  1  0.26856000  0.46775700  0.89226900  1
  C  1298  1  0.26291850  0.44552550  0.82584500  1
  C  1299  1  0.29708000  0.41782300  0.83139900  1
  C  1301  1  0.30077250  0.43808450  0.89807200  1
  C  1304  1  0.29466100  0.37810500  0.94921000  1
  C  1308  1  0.27925850  0.50842450  0.77428600  1
  C  1312  1  0.31979800  0.39931300  0.80119800  1
  C  1313  1  0.25179800  0.49359100  0.92148600  1
  C  1316  1  0.27919000  0.81060400  0.22608600  1
  C  1318  1  0.26237400  0.81521400  0.15960000  1
  C  1319  1  0.20054250  0.78093250  0.16525000  1
  C  1321  1  0.21733400  0.77833600  0.23198500  1
  C  1324  1  0.16334800  0.78463600  0.28298200  1
  C  1328  1  0.30896550  0.79825950  0.10831200  1
  C  1332  1  0.15935000  0.75713200  0.13509400  1
  C  1333  1  0.32185550  0.82768350  0.25526300  1
  C  2137  1  0.55878450  0.39424250  0.29359800  1
  C  2138  1  0.50968250  0.40291450  0.29449800  1
  C  2139  1  0.50900600  0.44448600  0.31920600  1
  C  2140  1  0.55722400  0.47816400  0.34385500  1
  C  2141  1  0.60774650  0.47149650  0.34115600  1
  C  2142  1  0.60844850  0.42972050  0.31631100  1
  C  2144  1  0.54737550  0.57222950  0.34402400  1
  C  2145  1  0.59574850  0.60610350  0.31952400  1
  C  2146  1  0.59521150  0.64783850  0.29490300  1
  C  2147  1  0.54606200  0.65643500  0.29389800  1
  C  2148  1  0.49626800  0.62078700  0.31647000  1
  C  2149  1  0.49686950  0.57891550  0.34127400  1
  C  2150  1  0.49507350  0.48955750  0.40265100  1
  C  2151  1  0.60910050  0.56020050  0.40282600  1
  C  2152  1  0.63805800  0.62241300  0.40830200  1
  C  2153  1  0.67928000  0.64996200  0.43761500  1
  C  2154  1  0.69164500  0.61571700  0.46265000  1
  C  2155  1  0.66303850  0.55384650  0.45778500  1
  C  2156  1  0.62228450  0.52648250  0.42832200  1
  C  2157  1  0.46616400  0.42728700  0.40786600  1
  C  2158  1  0.42484950  0.39939750  0.43708900  1
  C  2159  1  0.41232050  0.43331850  0.46230500  1
  C  2160  1  0.44084150  0.49524050  0.45766400  1
  C  2161  1  0.48166150  0.52294850  0.42827700  1
  C  2186  1  0.91605300  0.51959500  0.62698900  1
  C  2187  1  0.97388250  0.56860450  0.62799500  1
  C  2188  1  0.01606650  0.56894250  0.65260900  1
  C  2189  1  0.00139200  0.52050800  0.67709200  1
  C  2190  1  0.94412650  0.47011250  0.67429700  1
  C  2191  1  0.90173350  0.46972350  0.64952000  1
  C  2193  1  0.10532700  0.53026500  0.67704100  1
  C  2194  1  0.09075500  0.48252400  0.65195500  1
  C  2195  1  0.13291000  0.48373200  0.62691500  1
  C  2196  1  0.19070800  0.53282100  0.62622800  1
  C  2197  1  0.20509200  0.58183200  0.64963300  1
  C  2198  1  0.16264450  0.58068550  0.67469600  1
  C  2199  1  0.07498000  0.58179400  0.73609700  1
  C  2200  1  0.03127200  0.46775100  0.73560200  1
  C  2201  1  0.06416600  0.43833600  0.74069600  1
  C  2202  1  0.05047200  0.39688800  0.76987600  1
  C  2203  1  0.00417350  0.38469950  0.79514300  1
  C  2204  1  0.97117100  0.41364300  0.79059800  1
  C  2205  1  0.98455000  0.45457500  0.76125600  1
  C  2206  1  0.04217050  0.61127150  0.74136900  1
  C  2207  1  0.05575650  0.65232950  0.77078100  1
  C  2208  1  0.10181350  0.66400050  0.79613000  1
  C  2209  1  0.13474000  0.63502200  0.79141200  1
  C  2210  1  0.12149250  0.59450350  0.76182500  1
  C  2235  1  0.68399300  0.16316500  0.96017200  1
  C  2236  1  0.67524050  0.10535650  0.96101500  1
  C  2237  1  0.63362600  0.06308400  0.98569600  1
  C  2238  1  0.59996500  0.07762100  0.01036500  1
  C  2239  1  0.60676750  0.13487650  0.00774600  1
  C  2240  1  0.64858150  0.17737150  0.98293300  1
  C  2242  1  0.50588000  0.97361400  0.01027200  1
  C  2243  1  0.47254600  0.98823000  0.98536200  1
  C  2244  1  0.43127750  0.94604950  0.96048000  1
  C  2245  1  0.42243800  0.88820400  0.95975300  1
  C  2246  1  0.45734800  0.87383300  0.98289300  1
  C  2247  1  0.49893500  0.91628600  0.00782000  1
  C  2248  1  0.58800900  0.00385700  0.06917000  1
  C  2249  1  0.51746100  0.04733900  0.06901500  1
  C  2250  1  0.45516000  0.01435700  0.07413400  1
  C  2251  1  0.42737400  0.02796300  0.10333400  1
  C  2252  1  0.46147000  0.07420000  0.12864500  1
  C  2253  1  0.52340850  0.10727050  0.12409500  1
  C  2254  1  0.55098500  0.09399200  0.09471700  1
  C  2255  1  0.65029600  0.03679000  0.07439100  1
  C  2256  1  0.67796650  0.02301650  0.10357700  1
  C  2257  1  0.64377200  0.97665800  0.12878200  1
  C  2258  1  0.58183800  0.94368700  0.12417400  1
  C  2259  1  0.55437500  0.95714500  0.09481000  1
  C  2284  1  0.49328000  0.25115100  0.24824200  1
  C  2286  1  0.47271200  0.23548800  0.18163900  1
  C  2287  1  0.44494000  0.17355000  0.18688900  1
  C  2289  1  0.46361400  0.18922000  0.25375000  1
  C  2292  1  0.40270150  0.13387750  0.30420900  1
  C  2296  1  0.53669800  0.28271000  0.13065500  1
  C  2300  1  0.42717100  0.13273900  0.15647900  1
  C  2301  1  0.51789950  0.29325150  0.27775700  1
  C  2304  1  0.83848400  0.58534000  0.58187700  1
  C  2306  1  0.84274500  0.60567200  0.51527000  1
  C  2307  1  0.80838450  0.63319950  0.52066000  1
  C  2309  1  0.80601800  0.61476700  0.58751700  1
  C  2312  1  0.81175450  0.67563250  0.63803800  1
  C  2316  1  0.82584200  0.54156200  0.46433200  1
  C  2320  1  0.78465800  0.65042000  0.49038500  1
  C  2321  1  0.85616600  0.56075600  0.61129500  1
  C  2324  1  0.82695900  0.24034200  0.91480600  1
  C  2326  1  0.84262200  0.23505100  0.84823500  1
  C  2327  1  0.90456950  0.26912250  0.85347800  1
  C  2329  1  0.88889800  0.27249300  0.92031200  1
  C  2332  1  0.94393100  0.26679600  0.97091000  1
  C  2336  1  0.79545600  0.25172400  0.79717600  1
  C  2340  1  0.94541550  0.29197850  0.82307300  1
  C  2341  1  0.78482200  0.22322300  0.94429200  1
  C  2344  1  0.61168600  0.79938100  0.24839700  1
  C  2346  1  0.63212800  0.81489600  0.18177100  1
  C  2347  1  0.65996950  0.87684950  0.18696200  1
  C  2349  1  0.64139800  0.86132600  0.25384100  1
  C  2352  1  0.70244400  0.91658100  0.30426300  1
  C  2356  1  0.56803250  0.76755950  0.13085200  1
  C  2360  1  0.67754500  0.91760100  0.15655000  1
  C  2361  1  0.58699200  0.75735100  0.27794900  1
  C  2364  1  0.26856000  0.46775700  0.58117600  1
  C  2366  1  0.26291850  0.44552550  0.51475200  1
  C  2367  1  0.29708000  0.41782300  0.52030600  1
  C  2369  1  0.30077250  0.43808450  0.58697900  1
  C  2372  1  0.29466100  0.37810500  0.63811700  1
  C  2376  1  0.27925850  0.50842450  0.46319300  1
  C  2380  1  0.31979800  0.39931300  0.49010500  1
  C  2381  1  0.25179800  0.49359100  0.61039300  1
  C  2384  1  0.27919000  0.81060400  0.91499300  1
  C  2386  1  0.26237400  0.81521400  0.84850700  1
  C  2387  1  0.20054250  0.78093250  0.85415700  1
  C  2389  1  0.21733400  0.77833600  0.92089200  1
  C  2392  1  0.16334800  0.78463600  0.97188900  1
  C  2396  1  0.30896550  0.79825950  0.79721900  1
  C  2400  1  0.15935000  0.75713200  0.82400100  1
  C  2401  1  0.32185550  0.82768350  0.94417000  1
  H  26  1  0.69850750  0.69467250  0.06369000  1
  H  27  1  0.62786150  0.64875250  0.01457700  1
  H  28  1  0.67071350  0.52829750  0.09849800  1
  H  29  1  0.60091200  0.48125000  0.04892700  1
  H  30  1  0.47659200  0.40116800  0.01409600  1
  H  31  1  0.40585400  0.35468800  0.06306200  1
  H  32  1  0.43311050  0.52057450  0.09852600  1
  H  33  1  0.50300250  0.56819550  0.04907400  1
  H  34  1  0.45995450  0.55388250  0.97940000  1
  H  35  1  0.46003400  0.62611900  0.93775000  1
  H  36  1  0.63136450  0.67281750  0.90041500  1
  H  37  1  0.63293900  0.60222700  0.94207200  1
  H  38  1  0.64456000  0.49639800  0.97939100  1
  H  39  1  0.47181700  0.44836500  0.94171800  1
  H  40  1  0.47357650  0.37797350  0.89996600  1
  H  41  1  0.64466550  0.42435750  0.93764650  1
  H  43  1  0.70826850  0.62937650  0.13904200  1
  H  45  1  0.39606350  0.41923650  0.13860900  1
  H  47  1  0.53230050  0.68632350  0.86796100  1
  H  49  1  0.57293300  0.36405100  0.86778500  1
  H  75  1  0.07581050  0.37745750  0.39573300  1
  H  76  1  0.10051150  0.44840150  0.34680400  1
  H  77  1  0.93813350  0.40605750  0.43145000  1
  H  78  1  0.96089800  0.47618800  0.38211900  1
  H  79  1  0.00589400  0.60145600  0.34748000  1
  H  80  1  0.03046950  0.67179150  0.39675400  1
  H  81  1  0.16764600  0.64229400  0.43229200  1
  H  82  1  0.14508850  0.57284750  0.38253400  1
  H  83  1  0.17463400  0.61718500  0.31326800  1
  H  84  1  0.24670550  0.61802150  0.27115200  1
  H  85  1  0.12165700  0.44808300  0.23192300  1
  H  86  1  0.04962550  0.44542050  0.27422900  1
  H  87  1  0.93210400  0.43314600  0.31239400  1
  H  88  1  0.05717300  0.60607700  0.27521900  1
  H  89  1  0.98514300  0.60485300  0.23358600  1
  H  90  1  0.86010500  0.43358100  0.27078700  1
  H  92  1  0.00198700  0.36815900  0.47149000  1
  H  94  1  0.10524900  0.68061600  0.47272900  1
  H  96  1  0.23148450  0.54415550  0.19938000  1
  H  98  1  0.87219700  0.50599500  0.20113900  1
  H  124  1  0.38261500  0.00255000  0.72921200  1
  H  125  1  0.42889300  0.97803100  0.68022200  1
  H  126  1  0.54884100  0.14026700  0.76497400  1
  H  127  1  0.59624600  0.11770600  0.71555900  1
  H  128  1  0.67664700  0.07317100  0.68055000  1
  H  129  1  0.72272400  0.04836300  0.72949700  1
  H  130  1  0.55633100  0.91059800  0.76498100  1
  H  131  1  0.50912100  0.93346600  0.71558800  1
  H  132  1  0.52355900  0.90427200  0.64625900  1
  H  133  1  0.45182600  0.83218300  0.60438000  1
  H  134  1  0.40670850  0.95731050  0.56565500  1
  H  135  1  0.47659200  0.02936600  0.60771500  1
  H  136  1  0.58187700  0.14679800  0.64598200  1
  H  137  1  0.62970000  0.02199600  0.60817300  1
  H  138  1  0.70012350  0.09417550  0.56643600  1
  H  139  1  0.65398450  0.21897250  0.60430100  1
  H  141  1  0.44719900  0.07651600  0.80499300  1
  H  143  1  0.65821600  0.97427900  0.80509400  1
  H  145  1  0.39243800  0.84645000  0.53322050  1
  H  147  1  0.71409350  0.20673150  0.53410500  1
  H  157  1  0.40538200  0.11676200  0.95399700  1
  H  158  1  0.37214100  0.09653100  0.90884200  1
  H  159  1  0.38530500  0.16386500  0.93043100  1
  H  161  1  0.57156200  0.31687000  0.77033600  1
  H  162  1  0.53745550  0.30207150  0.72538800  1
  H  163  1  0.54580800  0.24658600  0.74839800  1
  H  177  1  0.79206250  0.67294450  0.28786300  1
  H  178  1  0.80488700  0.70618700  0.24271500  1
  H  179  1  0.85915950  0.69305150  0.26418100  1
  H  181  1  0.82553800  0.50688400  0.10400200  1
  H  182  1  0.84424600  0.54081700  0.05898700  1
  H  183  1  0.78047850  0.53217050  0.08225900  1
  H  197  1  0.96113200  0.28672200  0.62065300  1
  H  198  1  0.98117850  0.27317250  0.57559300  1
  H  199  1  0.91367350  0.21949250  0.59725600  1
  H  201  1  0.76132650  0.25254850  0.43682300  1
  H  202  1  0.77607650  0.23303450  0.39192700  1
  H  203  1  0.83162950  0.29691750  0.41486500  1
  H  217  1  0.69988900  0.93387000  0.95401500  1
  H  218  1  0.73316500  0.95378000  0.90885600  1
  H  219  1  0.71956700  0.88637600  0.93056500  1
  H  221  1  0.53321700  0.73342100  0.77056800  1
  H  222  1  0.56722800  0.74815500  0.72559200  1
  H  223  1  0.55889800  0.80366500  0.74858900  1
  H  237  1  0.31475600  0.38110900  0.28783800  1
  H  238  1  0.30029800  0.34651000  0.24307200  1
  H  239  1  0.24751300  0.36178300  0.26460500  1
  H  241  1  0.28011950  0.54366350  0.10254800  1
  H  242  1  0.26041500  0.50859600  0.05790100  1
  H  243  1  0.32444600  0.51742700  0.08090200  1
  H  257  1  0.14639100  0.76480200  0.62169100  1
  H  258  1  0.12599400  0.77856500  0.57680300  1
  H  259  1  0.19396400  0.83188000  0.59817600  1
  H  261  1  0.34351250  0.79790450  0.43667000  1
  H  262  1  0.32781200  0.81666300  0.39181400  1
  H  263  1  0.27291400  0.75291400  0.41522500  1
  H  1094  1  0.69850750  0.69467250  0.75259700  1
  H  1095  1  0.62786150  0.64875250  0.70348400  1
  H  1096  1  0.67071350  0.52829750  0.78740500  1
  H  1097  1  0.60091200  0.48125000  0.73783400  1
  H  1098  1  0.47659200  0.40116800  0.70300300  1
  H  1099  1  0.40585400  0.35468800  0.75196900  1
  H  1100  1  0.43311050  0.52057450  0.78743300  1
  H  1101  1  0.50300250  0.56819550  0.73798100  1
  H  1102  1  0.45995450  0.55388250  0.66830700  1
  H  1103  1  0.46003400  0.62611900  0.62665700  1
  H  1104  1  0.63136450  0.67281750  0.58932200  1
  H  1105  1  0.63293900  0.60222700  0.63097900  1
  H  1106  1  0.64456000  0.49639800  0.66829800  1
  H  1107  1  0.47181700  0.44836500  0.63062500  1
  H  1108  1  0.47357650  0.37797350  0.58887300  1
  H  1109  1  0.64466550  0.42435750  0.62655350  1
  H  1111  1  0.70826850  0.62937650  0.82794900  1
  H  1113  1  0.39606350  0.41923650  0.82751600  1
  H  1115  1  0.53230050  0.68632350  0.55686800  1
  H  1117  1  0.57293300  0.36405100  0.55669200  1
  H  1143  1  0.07581050  0.37745750  0.08464000  1
  H  1144  1  0.10051150  0.44840150  0.03571100  1
  H  1145  1  0.93813350  0.40605750  0.12035700  1
  H  1146  1  0.96089800  0.47618800  0.07102600  1
  H  1147  1  0.00589400  0.60145600  0.03638700  1
  H  1148  1  0.03046950  0.67179150  0.08566100  1
  H  1149  1  0.16764600  0.64229400  0.12119900  1
  H  1150  1  0.14508850  0.57284750  0.07144100  1
  H  1151  1  0.17463400  0.61718500  0.00217500  1
  H  1152  1  0.24670550  0.61802150  0.96005900  1
  H  1153  1  0.12165700  0.44808300  0.92083000  1
  H  1154  1  0.04962550  0.44542050  0.96313600  1
  H  1155  1  0.93210400  0.43314600  0.00130100  1
  H  1156  1  0.05717300  0.60607700  0.96412600  1
  H  1157  1  0.98514300  0.60485300  0.92249300  1
  H  1158  1  0.86010500  0.43358100  0.95969400  1
  H  1160  1  0.00198700  0.36815900  0.16039700  1
  H  1162  1  0.10524900  0.68061600  0.16163600  1
  H  1164  1  0.23148450  0.54415550  0.88828700  1
  H  1166  1  0.87219700  0.50599500  0.89004600  1
  H  1192  1  0.38261500  0.00255000  0.41811900  1
  H  1193  1  0.42889300  0.97803100  0.36912900  1
  H  1194  1  0.54884100  0.14026700  0.45388100  1
  H  1195  1  0.59624600  0.11770600  0.40446600  1
  H  1196  1  0.67664700  0.07317100  0.36945700  1
  H  1197  1  0.72272400  0.04836300  0.41840400  1
  H  1198  1  0.55633100  0.91059800  0.45388800  1
  H  1199  1  0.50912100  0.93346600  0.40449500  1
  H  1200  1  0.52355900  0.90427200  0.33516600  1
  H  1201  1  0.45182600  0.83218300  0.29328700  1
  H  1202  1  0.40670850  0.95731050  0.25456200  1
  H  1203  1  0.47659200  0.02936600  0.29662200  1
  H  1204  1  0.58187700  0.14679800  0.33488900  1
  H  1205  1  0.62970000  0.02199600  0.29708000  1
  H  1206  1  0.70012350  0.09417550  0.25534300  1
  H  1207  1  0.65398450  0.21897250  0.29320800  1
  H  1209  1  0.44719900  0.07651600  0.49390000  1
  H  1211  1  0.65821600  0.97427900  0.49400100  1
  H  1213  1  0.39243800  0.84645000  0.22212750  1
  H  1215  1  0.71409350  0.20673150  0.22301200  1
  H  1225  1  0.40538200  0.11676200  0.64290400  1
  H  1226  1  0.37214100  0.09653100  0.59774900  1
  H  1227  1  0.38530500  0.16386500  0.61933800  1
  H  1229  1  0.57156200  0.31687000  0.45924300  1
  H  1230  1  0.53745550  0.30207150  0.41429500  1
  H  1231  1  0.54580800  0.24658600  0.43730500  1
  H  1245  1  0.79206250  0.67294450  0.97677000  1
  H  1246  1  0.80488700  0.70618700  0.93162200  1
  H  1247  1  0.85915950  0.69305150  0.95308800  1
  H  1249  1  0.82553800  0.50688400  0.79290900  1
  H  1250  1  0.84424600  0.54081700  0.74789400  1
  H  1251  1  0.78047850  0.53217050  0.77116600  1
  H  1265  1  0.96113200  0.28672200  0.30956000  1
  H  1266  1  0.98117850  0.27317250  0.26450000  1
  H  1267  1  0.91367350  0.21949250  0.28616300  1
  H  1269  1  0.76132650  0.25254850  0.12573000  1
  H  1270  1  0.77607650  0.23303450  0.08083400  1
  H  1271  1  0.83162950  0.29691750  0.10377200  1
  H  1285  1  0.69988900  0.93387000  0.64292200  1
  H  1286  1  0.73316500  0.95378000  0.59776300  1
  H  1287  1  0.71956700  0.88637600  0.61947200  1
  H  1289  1  0.53321700  0.73342100  0.45947500  1
  H  1290  1  0.56722800  0.74815500  0.41449900  1
  H  1291  1  0.55889800  0.80366500  0.43749600  1
  H  1305  1  0.31475600  0.38110900  0.97674500  1
  H  1306  1  0.30029800  0.34651000  0.93197900  1
  H  1307  1  0.24751300  0.36178300  0.95351200  1
  H  1309  1  0.28011950  0.54366350  0.79145500  1
  H  1310  1  0.26041500  0.50859600  0.74680800  1
  H  1311  1  0.32444600  0.51742700  0.76980900  1
  H  1325  1  0.14639100  0.76480200  0.31059800  1
  H  1326  1  0.12599400  0.77856500  0.26571000  1
  H  1327  1  0.19396400  0.83188000  0.28708300  1
  H  1329  1  0.34351250  0.79790450  0.12557700  1
  H  1330  1  0.32781200  0.81666300  0.08072100  1
  H  1331  1  0.27291400  0.75291400  0.10413200  1
  H  2162  1  0.69850750  0.69467250  0.44150400  1
  H  2163  1  0.62786150  0.64875250  0.39239100  1
  H  2164  1  0.67071350  0.52829750  0.47631200  1
  H  2165  1  0.60091200  0.48125000  0.42674100  1
  H  2166  1  0.47659200  0.40116800  0.39191000  1
  H  2167  1  0.40585400  0.35468800  0.44087600  1
  H  2168  1  0.43311050  0.52057450  0.47634000  1
  H  2169  1  0.50300250  0.56819550  0.42688800  1
  H  2170  1  0.45995450  0.55388250  0.35721400  1
  H  2171  1  0.46003400  0.62611900  0.31556400  1
  H  2172  1  0.63136450  0.67281750  0.27822900  1
  H  2173  1  0.63293900  0.60222700  0.31988600  1
  H  2174  1  0.64456000  0.49639800  0.35720500  1
  H  2175  1  0.47181700  0.44836500  0.31953200  1
  H  2176  1  0.47357650  0.37797350  0.27778000  1
  H  2177  1  0.64466550  0.42435750  0.31546050  1
  H  2179  1  0.70826850  0.62937650  0.51685600  1
  H  2181  1  0.39606350  0.41923650  0.51642300  1
  H  2183  1  0.53230050  0.68632350  0.24577500  1
  H  2185  1  0.57293300  0.36405100  0.24559900  1
  H  2211  1  0.07581050  0.37745750  0.77354700  1
  H  2212  1  0.10051150  0.44840150  0.72461800  1
  H  2213  1  0.93813350  0.40605750  0.80926400  1
  H  2214  1  0.96089800  0.47618800  0.75993300  1
  H  2215  1  0.00589400  0.60145600  0.72529400  1
  H  2216  1  0.03046950  0.67179150  0.77456800  1
  H  2217  1  0.16764600  0.64229400  0.81010600  1
  H  2218  1  0.14508850  0.57284750  0.76034800  1
  H  2219  1  0.17463400  0.61718500  0.69108200  1
  H  2220  1  0.24670550  0.61802150  0.64896600  1
  H  2221  1  0.12165700  0.44808300  0.60973700  1
  H  2222  1  0.04962550  0.44542050  0.65204300  1
  H  2223  1  0.93210400  0.43314600  0.69020800  1
  H  2224  1  0.05717300  0.60607700  0.65303300  1
  H  2225  1  0.98514300  0.60485300  0.61140000  1
  H  2226  1  0.86010500  0.43358100  0.64860100  1
  H  2228  1  0.00198700  0.36815900  0.84930400  1
  H  2230  1  0.10524900  0.68061600  0.85054300  1
  H  2232  1  0.23148450  0.54415550  0.57719400  1
  H  2234  1  0.87219700  0.50599500  0.57895300  1
  H  2260  1  0.38261500  0.00255000  0.10702600  1
  H  2261  1  0.42889300  0.97803100  0.05803600  1
  H  2262  1  0.54884100  0.14026700  0.14278800  1
  H  2263  1  0.59624600  0.11770600  0.09337300  1
  H  2264  1  0.67664700  0.07317100  0.05836400  1
  H  2265  1  0.72272400  0.04836300  0.10731100  1
  H  2266  1  0.55633100  0.91059800  0.14279500  1
  H  2267  1  0.50912100  0.93346600  0.09340200  1
  H  2268  1  0.52355900  0.90427200  0.02407300  1
  H  2269  1  0.45182600  0.83218300  0.98219400  1
  H  2270  1  0.40670850  0.95731050  0.94346900  1
  H  2271  1  0.47659200  0.02936600  0.98552900  1
  H  2272  1  0.58187700  0.14679800  0.02379600  1
  H  2273  1  0.62970000  0.02199600  0.98598700  1
  H  2274  1  0.70012350  0.09417550  0.94425000  1
  H  2275  1  0.65398450  0.21897250  0.98211500  1
  H  2277  1  0.44719900  0.07651600  0.18280700  1
  H  2279  1  0.65821600  0.97427900  0.18290800  1
  H  2281  1  0.39243800  0.84645000  0.91103450  1
  H  2283  1  0.71409350  0.20673150  0.91191900  1
  H  2293  1  0.40538200  0.11676200  0.33181100  1
  H  2294  1  0.37214100  0.09653100  0.28665600  1
  H  2295  1  0.38530500  0.16386500  0.30824500  1
  H  2297  1  0.57156200  0.31687000  0.14815000  1
  H  2298  1  0.53745550  0.30207150  0.10320200  1
  H  2299  1  0.54580800  0.24658600  0.12621200  1
  H  2313  1  0.79206250  0.67294450  0.66567700  1
  H  2314  1  0.80488700  0.70618700  0.62052900  1
  H  2315  1  0.85915950  0.69305150  0.64199500  1
  H  2317  1  0.82553800  0.50688400  0.48181600  1
  H  2318  1  0.84424600  0.54081700  0.43680100  1
  H  2319  1  0.78047850  0.53217050  0.46007300  1
  H  2333  1  0.96113200  0.28672200  0.99846698  1
  H  2334  1  0.98117850  0.27317250  0.95340700  1
  H  2335  1  0.91367350  0.21949250  0.97507000  1
  H  2337  1  0.76132650  0.25254850  0.81463700  1
  H  2338  1  0.77607650  0.23303450  0.76974100  1
  H  2339  1  0.83162950  0.29691750  0.79267900  1
  H  2353  1  0.69988900  0.93387000  0.33182900  1
  H  2354  1  0.73316500  0.95378000  0.28667000  1
  H  2355  1  0.71956700  0.88637600  0.30837900  1
  H  2357  1  0.53321700  0.73342100  0.14838200  1
  H  2358  1  0.56722800  0.74815500  0.10340600  1
  H  2359  1  0.55889800  0.80366500  0.12640300  1
  H  2373  1  0.31475600  0.38110900  0.66565200  1
  H  2374  1  0.30029800  0.34651000  0.62088600  1
  H  2375  1  0.24751300  0.36178300  0.64241900  1
  H  2377  1  0.28011950  0.54366350  0.48036200  1
  H  2378  1  0.26041500  0.50859600  0.43571500  1
  H  2379  1  0.32444600  0.51742700  0.45871600  1
  H  2393  1  0.14639100  0.76480200  0.99950498  1
  H  2394  1  0.12599400  0.77856500  0.95461700  1
  H  2395  1  0.19396400  0.83188000  0.97599000  1
  H  2397  1  0.34351250  0.79790450  0.81448400  1
  H  2398  1  0.32781200  0.81666300  0.76962800  1
  H  2399  1  0.27291400  0.75291400  0.79303900  1
  N  42  1  0.72851000  0.64101000  0.11468400  1
  N  44  1  0.37553050  0.40755650  0.11437200  1
  N  46  1  0.54779600  0.69915200  0.89341200  1
  N  48  1  0.55700650  0.35146850  0.89317500  1
  N  91  1  0.99274500  0.34780500  0.44715400  1
  N  93  1  0.11325450  0.70056250  0.44828500  1
  N  95  1  0.23164950  0.53178350  0.22533600  1
  N  97  1  0.87511500  0.52156400  0.22659500  1
  N  140  1  0.43597000  0.08560000  0.78064400  1
  N  142  1  0.66920050  0.96502550  0.78071900  1
  N  144  1  0.38006400  0.84719600  0.55909900  1
  N  146  1  0.72661150  0.20416550  0.55965700  1
  N  149  1  0.49521850  0.27081850  0.83457900  1
  N  152  1  0.44267700  0.15388100  0.84500100  1
  N  169  1  0.85596800  0.58337900  0.16814900  1
  N  172  1  0.79117100  0.63543600  0.17883100  1
  N  189  1  0.80730300  0.22247600  0.50115700  1
  N  192  1  0.92423850  0.28666350  0.51157600  1
  N  209  1  0.60966000  0.77963600  0.83474500  1
  N  212  1  0.66227750  0.89659450  0.84505800  1
  N  229  1  0.25051500  0.46882600  0.16745900  1
  N  232  1  0.31478200  0.41634800  0.17846000  1
  N  249  1  0.29819750  0.82817350  0.50120200  1
  N  252  1  0.18148450  0.76368250  0.51238600  1
  N  1110  1  0.72851000  0.64101000  0.80359100  1
  N  1112  1  0.37553050  0.40755650  0.80327900  1
  N  1114  1  0.54779600  0.69915200  0.58231900  1
  N  1116  1  0.55700650  0.35146850  0.58208200  1
  N  1159  1  0.99274500  0.34780500  0.13606100  1
  N  1161  1  0.11325450  0.70056250  0.13719200  1
  N  1163  1  0.23164950  0.53178350  0.91424300  1
  N  1165  1  0.87511500  0.52156400  0.91550200  1
  N  1208  1  0.43597000  0.08560000  0.46955100  1
  N  1210  1  0.66920050  0.96502550  0.46962600  1
  N  1212  1  0.38006400  0.84719600  0.24800600  1
  N  1214  1  0.72661150  0.20416550  0.24856400  1
  N  1217  1  0.49521850  0.27081850  0.52348600  1
  N  1220  1  0.44267700  0.15388100  0.53390800  1
  N  1237  1  0.85596800  0.58337900  0.85705600  1
  N  1240  1  0.79117100  0.63543600  0.86773800  1
  N  1257  1  0.80730300  0.22247600  0.19006400  1
  N  1260  1  0.92423850  0.28666350  0.20048300  1
  N  1277  1  0.60966000  0.77963600  0.52365200  1
  N  1280  1  0.66227750  0.89659450  0.53396500  1
  N  1297  1  0.25051500  0.46882600  0.85636600  1
  N  1300  1  0.31478200  0.41634800  0.86736700  1
  N  1317  1  0.29819750  0.82817350  0.19010900  1
  N  1320  1  0.18148450  0.76368250  0.20129300  1
  N  2178  1  0.72851000  0.64101000  0.49249800  1
  N  2180  1  0.37553050  0.40755650  0.49218600  1
  N  2182  1  0.54779600  0.69915200  0.27122600  1
  N  2184  1  0.55700650  0.35146850  0.27098900  1
  N  2227  1  0.99274500  0.34780500  0.82496800  1
  N  2229  1  0.11325450  0.70056250  0.82609900  1
  N  2231  1  0.23164950  0.53178350  0.60315000  1
  N  2233  1  0.87511500  0.52156400  0.60440900  1
  N  2276  1  0.43597000  0.08560000  0.15845800  1
  N  2278  1  0.66920050  0.96502550  0.15853300  1
  N  2280  1  0.38006400  0.84719600  0.93691300  1
  N  2282  1  0.72661150  0.20416550  0.93747100  1
  N  2285  1  0.49521850  0.27081850  0.21239300  1
  N  2288  1  0.44267700  0.15388100  0.22281500  1
  N  2305  1  0.85596800  0.58337900  0.54596300  1
  N  2308  1  0.79117100  0.63543600  0.55664500  1
  N  2325  1  0.80730300  0.22247600  0.87897100  1
  N  2328  1  0.92423850  0.28666350  0.88939000  1
  N  2345  1  0.60966000  0.77963600  0.21255900  1
  N  2348  1  0.66227750  0.89659450  0.22287200  1
  N  2365  1  0.25051500  0.46882600  0.54527300  1
  N  2368  1  0.31478200  0.41634800  0.55627400  1
  N  2385  1  0.29819750  0.82817350  0.87901600  1
  N  2388  1  0.18148450  0.76368250  0.89020000  1
  O  154  1  0.46111200  0.16401300  0.91031300  1
  O  155  1  0.47925000  0.26181700  0.76932900  1
  O  166  1  0.49544000  0.27649000  0.93525700  1
  O  167  1  0.41684150  0.14917150  0.74442000  1
  O  174  1  0.78344400  0.61722600  0.24413800  1
  O  175  1  0.86229800  0.59913100  0.10287600  1
  O  186  1  0.86157800  0.58278800  0.26889800  1
  O  187  1  0.81128300  0.66103500  0.07826000  1
  O  194  1  0.91416150  0.29532450  0.57684000  1
  O  195  1  0.81626450  0.21515650  0.43594300  1
  O  206  1  0.80162450  0.21827250  0.60194000  1
  O  207  1  0.92881600  0.26515200  0.41103900  1
  O  214  1  0.64403200  0.88669300  0.91036300  1
  O  215  1  0.62551900  0.78850000  0.76947900  1
  O  226  1  0.60886800  0.77422800  0.93556100  1
  O  227  1  0.68759650  0.90111550  0.74442200  1
  O  234  1  0.32372950  0.43606350  0.24354700  1
  O  235  1  0.24283750  0.45133450  0.10236100  1
  O  246  1  0.24967400  0.47465400  0.26855600  1
  O  247  1  0.29279950  0.38832850  0.07809600  1
  O  254  1  0.19251000  0.75568400  0.57754200  1
  O  255  1  0.28809600  0.83475700  0.43601400  1
  O  266  1  0.30528650  0.83096650  0.60220600  1
  O  267  1  0.17479850  0.78390050  0.41190400  1
  O  1222  1  0.46111200  0.16401300  0.59922000  1
  O  1223  1  0.47925000  0.26181700  0.45823600  1
  O  1234  1  0.49544000  0.27649000  0.62416400  1
  O  1235  1  0.41684150  0.14917150  0.43332700  1
  O  1242  1  0.78344400  0.61722600  0.93304500  1
  O  1243  1  0.86229800  0.59913100  0.79178300  1
  O  1254  1  0.86157800  0.58278800  0.95780500  1
  O  1255  1  0.81128300  0.66103500  0.76716700  1
  O  1262  1  0.91416150  0.29532450  0.26574700  1
  O  1263  1  0.81626450  0.21515650  0.12485000  1
  O  1274  1  0.80162450  0.21827250  0.29084700  1
  O  1275  1  0.92881600  0.26515200  0.09994600  1
  O  1282  1  0.64403200  0.88669300  0.59927000  1
  O  1283  1  0.62551900  0.78850000  0.45838600  1
  O  1294  1  0.60886800  0.77422800  0.62446800  1
  O  1295  1  0.68759650  0.90111550  0.43332900  1
  O  1302  1  0.32372950  0.43606350  0.93245400  1
  O  1303  1  0.24283750  0.45133450  0.79126800  1
  O  1314  1  0.24967400  0.47465400  0.95746300  1
  O  1315  1  0.29279950  0.38832850  0.76700300  1
  O  1322  1  0.19251000  0.75568400  0.26644900  1
  O  1323  1  0.28809600  0.83475700  0.12492100  1
  O  1334  1  0.30528650  0.83096650  0.29111300  1
  O  1335  1  0.17479850  0.78390050  0.10081100  1
  O  2290  1  0.46111200  0.16401300  0.28812700  1
  O  2291  1  0.47925000  0.26181700  0.14714300  1
  O  2302  1  0.49544000  0.27649000  0.31307100  1
  O  2303  1  0.41684150  0.14917150  0.12223400  1
  O  2310  1  0.78344400  0.61722600  0.62195200  1
  O  2311  1  0.86229800  0.59913100  0.48069000  1
  O  2322  1  0.86157800  0.58278800  0.64671200  1
  O  2323  1  0.81128300  0.66103500  0.45607400  1
  O  2330  1  0.91416150  0.29532450  0.95465400  1
  O  2331  1  0.81626450  0.21515650  0.81375700  1
  O  2342  1  0.80162450  0.21827250  0.97975400  1
  O  2343  1  0.92881600  0.26515200  0.78885300  1
  O  2350  1  0.64403200  0.88669300  0.28817700  1
  O  2351  1  0.62551900  0.78850000  0.14729300  1
  O  2362  1  0.60886800  0.77422800  0.31337500  1
  O  2363  1  0.68759650  0.90111550  0.12223600  1
  O  2370  1  0.32372950  0.43606350  0.62136100  1
  O  2371  1  0.24283750  0.45133450  0.48017500  1
  O  2382  1  0.24967400  0.47465400  0.64637000  1
  O  2383  1  0.29279950  0.38832850  0.45591000  1
  O  2390  1  0.19251000  0.75568400  0.95535600  1
  O  2391  1  0.28809600  0.83475700  0.81382800  1
  O  2402  1  0.30528650  0.83096650  0.98002000  1
  O  2403  1  0.17479850  0.78390050  0.78971800  1
  Si  7  1  0.55218250  0.52504050  0.99549200  1
  Si  56  1  0.05325050  0.52507150  0.32859700  1
  Si  105  1  0.55282700  0.02560300  0.66184800  1
  Si  1075  1  0.55218250  0.52504050  0.68439900  1
  Si  1124  1  0.05325050  0.52507150  0.01750400  1
  Si  1173  1  0.55282700  0.02560300  0.35075500  1
  Si  2143  1  0.55218250  0.52504050  0.37330600  1
  Si  2192  1  0.05325050  0.52507150  0.70641100  1
  Si  2241  1  0.55282700  0.02560300  0.03966200  1
