# generated using pymatgen
data_H13C17NO2
_symmetry_space_group_name_H-M   'P 1'
_cell_length_a   38.74180000
_cell_length_b   38.74180000
_cell_length_c   66.51690000
_cell_angle_alpha   90.00000000
_cell_angle_beta   90.00000000
_cell_angle_gamma   90.00000000
_symmetry_Int_Tables_number   1
_chemical_formula_structural   H13C17NO2
_chemical_formula_sum   'H832 C1088 N64 O128'
_cell_volume   99837.01563890
_cell_formula_units_Z   64
loop_
 _symmetry_equiv_pos_site_id
 _symmetry_equiv_pos_as_xyz
  1  'x, y, z'
loop_
 _atom_site_type_symbol
 _atom_site_label
 _atom_site_symmetry_multiplicity
 _atom_site_fract_x
 _atom_site_fract_y
 _atom_site_fract_z
 _atom_site_occupancy
  H  5  1  0.10926900  0.97120900  0.11792600  1
  H  6  1  0.12192200  0.98452300  0.09372800  1
  H  9  1  0.09320900  0.95648900  0.06271900  1
  H  10  1  0.06079400  0.92529300  0.06533800  1
  H  11  1  0.07853500  0.01944600  0.07256500  1
  H  12  1  0.03766300  0.03034100  0.08225800  1
  H  15  1  0.00206500  0.93911200  0.08100800  1
  H  16  1  0.99245800  0.98231400  0.08715200  1
  H  18  1  0.04506200  0.90479000  0.10173500  1
  H  19  1  0.06551400  0.92383700  0.12270700  1
  H  21  1  0.02125100  0.01110500  0.11802300  1
  H  22  1  0.04925200  0.98628400  0.13278300  1
  H  27  1  0.39259700  0.03070100  0.61791400  1
  H  28  1  0.37994100  0.01731800  0.59372600  1
  H  31  1  0.40863400  0.04528300  0.56269800  1
  H  32  1  0.44104000  0.07649300  0.56528500  1
  H  33  1  0.42330500  0.98235000  0.57257200  1
  H  34  1  0.46417800  0.97146500  0.58226400  1
  H  37  1  0.49980100  0.06267400  0.58096500  1
  H  38  1  0.50939800  0.01947900  0.58712600  1
  H  40  1  0.45684000  0.09702900  0.60168500  1
  H  41  1  0.43637100  0.07802800  0.62266300  1
  H  43  1  0.48060000  0.99073100  0.61802000  1
  H  44  1  0.45260900  0.01558400  0.63277200  1
  H  49  1  0.27909900  0.86364300  0.36813400  1
  H  50  1  0.26867100  0.87347300  0.34325000  1
  H  53  1  0.29996800  0.84409400  0.31423900  1
  H  54  1  0.33037200  0.81124800  0.31866000  1
  H  55  1  0.23489300  0.83131900  0.32220800  1
  H  56  1  0.22248700  0.79067600  0.33151700  1
  H  59  1  0.31263700  0.75285900  0.33275000  1
  H  60  1  0.26864000  0.74440500  0.33744100  1
  H  62  1  0.34606300  0.79546900  0.35468000  1
  H  63  1  0.32500800  0.81476600  0.37533200  1
  H  65  1  0.23805000  0.77376600  0.36773400  1
  H  66  1  0.26240400  0.80103700  0.38320200  1
  H  71  1  0.22271900  0.13808800  0.86808600  1
  H  72  1  0.23313000  0.12827900  0.84319800  1
  H  75  1  0.20181300  0.15766000  0.81419800  1
  H  76  1  0.17141800  0.19051100  0.81862700  1
  H  77  1  0.26690000  0.17043700  0.82216700  1
  H  78  1  0.27930600  0.21108100  0.83147900  1
  H  81  1  0.18915000  0.24889300  0.83271900  1
  H  82  1  0.23314400  0.25734600  0.83741300  1
  H  84  1  0.15573100  0.20626600  0.85464700  1
  H  85  1  0.17679400  0.18696300  0.87529600  1
  H  87  1  0.26373800  0.22798100  0.86769500  1
  H  88  1  0.23938700  0.20070800  0.88316400  1
  H  93  1  0.37626000  0.95127500  0.89208900  1
  H  94  1  0.36925000  0.96464300  0.91729300  1
  H  97  1  0.40640100  0.94012400  0.94548200  1
  H  98  1  0.44034900  0.91157600  0.94028100  1
  H  99  1  0.41254700  0.00552400  0.93376900  1
  H  100  1  0.45031200  0.01815700  0.92126100  1
  H  103  1  0.49397800  0.93159900  0.92007100  1
  H  104  1  0.49743700  0.97508100  0.91260300  1
  H  106  1  0.45013100  0.89255300  0.90381800  1
  H  107  1  0.42326600  0.90724500  0.88416200  1
  H  109  1  0.45855400  0.99828100  0.88354400  1
  H  110  1  0.42828200  0.97071600  0.87237500  1
  H  115  1  0.12551400  0.05061700  0.39200400  1
  H  116  1  0.13255600  0.03731400  0.41721300  1
  H  119  1  0.09539700  0.06183900  0.44539800  1
  H  120  1  0.06141900  0.09034700  0.44019300  1
  H  121  1  0.08929700  0.99641700  0.43372400  1
  H  122  1  0.05153100  0.98373300  0.42123400  1
  H  125  1  0.00779600  0.07025600  0.42000800  1
  H  126  1  0.00436500  0.02676100  0.41256400  1
  H  128  1  0.05160000  0.10930900  0.40371100  1
  H  129  1  0.07847700  0.09459400  0.38406500  1
  H  131  1  0.04323500  0.00354400  0.38350600  1
  H  132  1  0.07348500  0.03110400  0.37231600  1
  H  137  1  0.20370700  0.87683900  0.64198700  1
  H  138  1  0.21591000  0.88429300  0.66733000  1
  H  141  1  0.19058100  0.84732500  0.69538700  1
  H  142  1  0.16247700  0.81310600  0.68997100  1
  H  143  1  0.25643000  0.84151500  0.68454900  1
  H  144  1  0.26982700  0.80363900  0.67242500  1
  H  147  1  0.18361400  0.75938700  0.67030800  1
  H  148  1  0.22739500  0.75615200  0.66343300  1
  H  150  1  0.14494700  0.80266000  0.65314400  1
  H  151  1  0.16043400  0.82953000  0.63368300  1
  H  153  1  0.25145100  0.79453700  0.63446600  1
  H  154  1  0.22425500  0.82458500  0.62278900  1
  H  159  1  0.29820000  0.12492500  0.14195900  1
  H  160  1  0.28598300  0.11747600  0.16730200  1
  H  163  1  0.31132300  0.15440800  0.19536400  1
  H  164  1  0.33946000  0.18860300  0.18995800  1
  H  165  1  0.24548400  0.16027900  0.18452000  1
  H  166  1  0.23212600  0.19816900  0.17239700  1
  H  169  1  0.31837700  0.24234900  0.17029200  1
  H  170  1  0.27459500  0.24563100  0.16342000  1
  H  172  1  0.35699900  0.19905900  0.15313900  1
  H  173  1  0.34151500  0.17222400  0.13366300  1
  H  175  1  0.25050700  0.20725200  0.13444300  1
  H  176  1  0.27769200  0.17719600  0.12276500  1
  H  181  1  0.88941400  0.02967500  0.88290800  1
  H  182  1  0.87735200  0.01906300  0.90747600  1
  H  185  1  0.90411700  0.05018600  0.93730600  1
  H  186  1  0.93593500  0.08222700  0.93359400  1
  H  187  1  0.91888400  0.98734500  0.93054100  1
  H  188  1  0.95966400  0.97459600  0.92159300  1
  H  191  1  0.99618500  0.06678100  0.92184100  1
  H  192  1  0.00732800  0.02376000  0.91704700  1
  H  194  1  0.95417600  0.09853100  0.89843000  1
  H  195  1  0.93739800  0.07691400  0.87723300  1
  H  197  1  0.97991600  0.99102500  0.88640200  1
  H  198  1  0.95349200  0.01452200  0.87003200  1
  H  203  1  0.61228200  0.97222600  0.38285200  1
  H  204  1  0.62435400  0.98278100  0.40742600  1
  H  207  1  0.59759000  0.95160000  0.43723800  1
  H  208  1  0.56575600  0.91958300  0.43350600  1
  H  209  1  0.58284900  0.01446600  0.43051900  1
  H  210  1  0.54206600  0.02724600  0.42158600  1
  H  213  1  0.50551900  0.93506800  0.42177000  1
  H  214  1  0.49438300  0.97810400  0.41701400  1
  H  216  1  0.54750200  0.90336000  0.39832000  1
  H  217  1  0.56429500  0.92503700  0.37714600  1
  H  219  1  0.52178300  0.01090100  0.38638900  1
  H  220  1  0.54819300  0.98744300  0.36999500  1
  H  225  1  0.72162100  0.14174900  0.63400300  1
  H  226  1  0.73238500  0.13253700  0.65891100  1
  H  229  1  0.70088100  0.16211600  0.68779400  1
  H  230  1  0.67027600  0.19471800  0.68326700  1
  H  231  1  0.76600500  0.17541900  0.67951600  1
  H  232  1  0.77775200  0.21608200  0.66992100  1
  H  235  1  0.68740700  0.25300100  0.66884100  1
  H  236  1  0.73123400  0.26167900  0.66382800  1
  H  238  1  0.65405100  0.20952200  0.64725700  1
  H  239  1  0.67503800  0.19000000  0.62664500  1
  H  241  1  0.76165800  0.23200100  0.63359100  1
  H  242  1  0.73743100  0.20405500  0.61845500  1
  H  247  1  0.78028100  0.86003800  0.13399400  1
  H  248  1  0.76950200  0.86924200  0.15889900  1
  H  251  1  0.80098800  0.83965900  0.18778700  1
  H  252  1  0.83159800  0.80706100  0.18326600  1
  H  253  1  0.73587500  0.82635600  0.17949400  1
  H  254  1  0.72413300  0.78569400  0.16989500  1
  H  257  1  0.81448000  0.74877800  0.16883100  1
  H  258  1  0.77065600  0.74009700  0.16380900  1
  H  260  1  0.84784700  0.79226100  0.14726000  1
  H  261  1  0.82687200  0.81178200  0.12664300  1
  H  263  1  0.74025000  0.76978100  0.13356800  1
  H  264  1  0.76449000  0.79772800  0.11843800  1
  H  269  1  0.61917900  0.04272300  0.11517500  1
  H  270  1  0.63412400  0.03396100  0.09046100  1
  H  273  1  0.60265700  0.05857600  0.06010500  1
  H  274  1  0.56664100  0.08562000  0.06342800  1
  H  275  1  0.59712500  0.99393200  0.06808800  1
  H  276  1  0.55836600  0.97691100  0.07738200  1
  H  279  1  0.50990700  0.06238800  0.07686900  1
  H  280  1  0.50520100  0.01916800  0.08396500  1
  H  282  1  0.54888500  0.10285300  0.09988100  1
  H  283  1  0.57006900  0.08473600  0.12065800  1
  H  285  1  0.53731900  0.99365300  0.11362200  1
  H  286  1  0.56417100  0.01959200  0.12866400  1
  H  291  1  0.88275500  0.95908300  0.61514600  1
  H  292  1  0.86782500  0.96788000  0.59043200  1
  H  295  1  0.89928200  0.94326300  0.56007700  1
  H  296  1  0.93527400  0.91618900  0.56339700  1
  H  297  1  0.90484700  0.00789800  0.56806900  1
  H  298  1  0.94361400  0.02489100  0.57737200  1
  H  301  1  0.99202700  0.93938600  0.57685200  1
  H  302  1  0.99675300  0.98260300  0.58395100  1
  H  304  1  0.95302200  0.89893900  0.59985500  1
  H  305  1  0.93183600  0.91705900  0.62063000  1
  H  307  1  0.96463500  0.00813300  0.61360800  1
  H  308  1  0.93777000  0.98219800  0.62864600  1
  H  313  1  0.79482400  0.12523800  0.35948000  1
  H  314  1  0.78291200  0.11682300  0.33420100  1
  H  317  1  0.80725700  0.15348300  0.30572800  1
  H  318  1  0.83613100  0.18726400  0.31059900  1
  H  319  1  0.74228900  0.16113500  0.31707700  1
  H  320  1  0.73015700  0.19923400  0.32944700  1
  H  323  1  0.81768800  0.24132000  0.33067800  1
  H  324  1  0.77424700  0.24575600  0.33811400  1
  H  326  1  0.85620700  0.19668800  0.34677500  1
  H  327  1  0.84090600  0.17113000  0.36691000  1
  H  329  1  0.75006300  0.20762800  0.36703500  1
  H  330  1  0.77694600  0.17710300  0.37848700  1
  H  335  1  0.70678400  0.87666800  0.85943600  1
  H  336  1  0.71878200  0.88509300  0.83417000  1
  H  339  1  0.69452100  0.84845300  0.80566400  1
  H  340  1  0.66562200  0.81468100  0.81049800  1
  H  341  1  0.75944300  0.84079000  0.81706600  1
  H  342  1  0.77154900  0.80268600  0.82944000  1
  H  345  1  0.68401100  0.76060500  0.83059800  1
  H  346  1  0.72743700  0.75616300  0.83806700  1
  H  348  1  0.64547600  0.80521300  0.84666800  1
  H  349  1  0.66072100  0.83077700  0.86681600  1
  H  351  1  0.75155800  0.79426100  0.86701100  1
  H  352  1  0.72465400  0.82478600  0.87845000  1
  H  357  1  0.61168800  0.47407700  0.61743700  1
  H  358  1  0.62098300  0.48478700  0.59251100  1
  H  361  1  0.59091200  0.45362100  0.56365200  1
  H  362  1  0.55821100  0.42313500  0.56825000  1
  H  363  1  0.57820800  0.51862900  0.57185200  1
  H  364  1  0.53775300  0.53085800  0.58152400  1
  H  367  1  0.50008000  0.44070000  0.58282200  1
  H  368  1  0.49170400  0.48461600  0.58775000  1
  H  370  1  0.54339000  0.40709800  0.60431900  1
  H  371  1  0.56319800  0.42798200  0.62485800  1
  H  373  1  0.52187000  0.51500200  0.61786400  1
  H  374  1  0.54958700  0.49055300  0.63300900  1
  H  379  1  0.89019900  0.52770400  0.11739800  1
  H  380  1  0.88091400  0.51700500  0.09247000  1
  H  383  1  0.91098300  0.54818800  0.06361900  1
  H  384  1  0.94368400  0.57867500  0.06822100  1
  H  385  1  0.92369200  0.48317100  0.07181300  1
  H  386  1  0.96415000  0.47094600  0.08148700  1
  H  389  1  0.00181400  0.56110700  0.08279300  1
  H  390  1  0.01019300  0.51719300  0.08771800  1
  H  392  1  0.95849500  0.59470100  0.10428900  1
  H  393  1  0.93868600  0.57380900  0.12482700  1
  H  395  1  0.98002200  0.48679700  0.11782900  1
  H  396  1  0.95230000  0.51124100  0.13297400  1
  H  401  1  0.77882600  0.36242000  0.86848600  1
  H  402  1  0.76823700  0.37485900  0.84398900  1
  H  405  1  0.79860500  0.34776900  0.81399300  1
  H  406  1  0.82995600  0.31521800  0.81751100  1
  H  407  1  0.73543800  0.33425700  0.82096700  1
  H  408  1  0.72196700  0.29364900  0.82982500  1
  H  411  1  0.81341400  0.25529300  0.82913500  1
  H  412  1  0.77022200  0.24496300  0.83399600  1
  H  414  1  0.84620200  0.29637800  0.85268700  1
  H  415  1  0.82493600  0.31355000  0.87390900  1
  H  417  1  0.73834000  0.27259200  0.86485100  1
  H  418  1  0.76239600  0.29845000  0.88126000  1
  H  423  1  0.72294300  0.63936900  0.36846600  1
  H  424  1  0.73353100  0.62692000  0.34397100  1
  H  427  1  0.70318400  0.65399400  0.31396800  1
  H  428  1  0.67183500  0.68655100  0.31747400  1
  H  429  1  0.76634000  0.66750400  0.32094900  1
  H  430  1  0.77982200  0.70811100  0.32980300  1
  H  433  1  0.68837500  0.74648100  0.32909100  1
  H  434  1  0.73156400  0.75680800  0.33396000  1
  H  436  1  0.65557100  0.70540900  0.35264000  1
  H  437  1  0.67682200  0.68825200  0.37387200  1
  H  439  1  0.76342400  0.72919700  0.36482600  1
  H  440  1  0.73936200  0.70334400  0.38123400  1
  H  445  1  0.87476800  0.45422300  0.39176400  1
  H  446  1  0.86578100  0.46558500  0.41706100  1
  H  449  1  0.90143700  0.44051900  0.44568100  1
  H  450  1  0.93538800  0.41176500  0.44093000  1
  H  451  1  0.90941300  0.50581000  0.43491100  1
  H  452  1  0.94792200  0.51819000  0.42306200  1
  H  455  1  0.98963400  0.43032600  0.42153300  1
  H  456  1  0.99452000  0.47403300  0.41482500  1
  H  458  1  0.94603500  0.39239800  0.40388100  1
  H  459  1  0.92032100  0.40913200  0.38423000  1
  H  461  1  0.95789800  0.49923300  0.38542500  1
  H  462  1  0.92744300  0.47299800  0.37336800  1
  H  467  1  0.62667200  0.54731800  0.89160600  1
  H  468  1  0.63571400  0.53618100  0.91692800  1
  H  471  1  0.60007300  0.56142200  0.94549700  1
  H  472  1  0.56605000  0.59006600  0.94068700  1
  H  473  1  0.59219500  0.49601500  0.93490400  1
  H  474  1  0.55367600  0.48348000  0.92311900  1
  H  477  1  0.51185500  0.57130300  0.92137200  1
  H  478  1  0.50700000  0.52752600  0.91482200  1
  H  480  1  0.55533600  0.60914300  0.90351800  1
  H  481  1  0.58110900  0.59218700  0.88395700  1
  H  483  1  0.54354500  0.50211100  0.88545300  1
  H  484  1  0.57395900  0.52825100  0.87328500  1
  H  489  1  0.70315300  0.37647200  0.13919200  1
  H  490  1  0.71568400  0.38956900  0.16372500  1
  H  493  1  0.69222400  0.35807600  0.19446500  1
  H  494  1  0.66214300  0.32442700  0.19152700  1
  H  495  1  0.75512500  0.34832700  0.18413700  1
  H  496  1  0.76827100  0.30906200  0.17355400  1
  H  499  1  0.67959700  0.26635600  0.17554900  1
  H  500  1  0.72231300  0.25941200  0.16791500  1
  H  502  1  0.64168400  0.30846500  0.15650300  1
  H  503  1  0.65717100  0.33014500  0.13492200  1
  H  505  1  0.74770900  0.29263500  0.13723200  1
  H  506  1  0.72119000  0.32093000  0.12370900  1
  H  511  1  0.79879100  0.62537600  0.63919400  1
  H  512  1  0.78623600  0.61227900  0.66372300  1
  H  515  1  0.80965800  0.64376700  0.69447000  1
  H  516  1  0.83973600  0.67742100  0.69154600  1
  H  517  1  0.74676700  0.65350600  0.68412500  1
  H  518  1  0.73362400  0.69276600  0.67354200  1
  H  521  1  0.82228200  0.73549800  0.67556400  1
  H  522  1  0.77957100  0.74243100  0.66791600  1
  H  524  1  0.86021800  0.69339600  0.65653200  1
  H  525  1  0.84476500  0.67172700  0.63494100  1
  H  527  1  0.75420600  0.70920300  0.63722600  1
  H  528  1  0.78074600  0.68092100  0.62370900  1
  H  533  1  0.38944500  0.53074200  0.38334300  1
  H  534  1  0.37736800  0.51964600  0.40783600  1
  H  537  1  0.40483900  0.54962900  0.43783900  1
  H  538  1  0.43718900  0.58122800  0.43427500  1
  H  539  1  0.41849900  0.48662200  0.43053900  1
  H  540  1  0.45908800  0.47356600  0.42143300  1
  H  543  1  0.49704200  0.56501500  0.42232100  1
  H  544  1  0.50737200  0.52188300  0.41725600  1
  H  546  1  0.45547200  0.59802300  0.39912700  1
  H  547  1  0.43804100  0.57702300  0.37789900  1
  H  549  1  0.47937900  0.49038000  0.38631100  1
  H  550  1  0.45312600  0.51456800  0.37017800  1
  H  555  1  0.11239300  0.47094400  0.88332000  1
  H  556  1  0.12446500  0.48201900  0.90781600  1
  H  559  1  0.09695300  0.45206200  0.93780500  1
  H  560  1  0.06456800  0.42049900  0.93423600  1
  H  561  1  0.08336400  0.51509200  0.93050900  1
  H  562  1  0.04278800  0.52818400  0.92139600  1
  H  565  1  0.00473500  0.43679200  0.92227700  1
  H  566  1  0.99446300  0.47993600  0.91721400  1
  H  568  1  0.04627400  0.40373700  0.89908700  1
  H  569  1  0.06373700  0.42471400  0.87786100  1
  H  571  1  0.02250600  0.51140900  0.88626300  1
  H  572  1  0.04875700  0.48719500  0.87013800  1
  H  577  1  0.22075800  0.63922400  0.13480600  1
  H  578  1  0.23303100  0.62814600  0.15926500  1
  H  581  1  0.20326700  0.65522000  0.18944200  1
  H  582  1  0.17040300  0.68626700  0.18609700  1
  H  583  1  0.26526400  0.67110500  0.18122200  1
  H  584  1  0.27665200  0.71179700  0.17152800  1
  H  587  1  0.18441000  0.74712600  0.17354200  1
  H  588  1  0.22691600  0.75846000  0.16726600  1
  H  590  1  0.15165600  0.70282800  0.15206500  1
  H  591  1  0.17091800  0.68688900  0.12990800  1
  H  593  1  0.25751900  0.73009300  0.13636000  1
  H  594  1  0.23304000  0.70281700  0.12099100  1
  H  599  1  0.28107900  0.36255400  0.63476200  1
  H  600  1  0.26878700  0.37365800  0.65921300  1
  H  603  1  0.29852500  0.34661000  0.68941100  1
  H  604  1  0.33139900  0.31556900  0.68608600  1
  H  605  1  0.23654900  0.33070700  0.68117900  1
  H  606  1  0.22517000  0.29000700  0.67149300  1
  H  609  1  0.31741400  0.25468600  0.67354500  1
  H  610  1  0.27491800  0.24334200  0.66725000  1
  H  612  1  0.35018000  0.29900000  0.65208200  1
  H  613  1  0.33096000  0.31488200  0.62990000  1
  H  615  1  0.24434200  0.27169100  0.63633800  1
  H  616  1  0.26883900  0.29894800  0.62096700  1
  H  621  1  0.12812300  0.54384700  0.61111500  1
  H  622  1  0.13963900  0.53320200  0.58607100  1
  H  625  1  0.10561000  0.55727700  0.55660700  1
  H  626  1  0.07136100  0.58627900  0.56074300  1
  H  627  1  0.09768900  0.49355000  0.56625800  1
  H  628  1  0.05943000  0.47931700  0.57761900  1
  H  631  1  0.01502800  0.56724000  0.57761000  1
  H  632  1  0.00942400  0.52415500  0.58492100  1
  H  634  1  0.05799800  0.60552900  0.59613300  1
  H  635  1  0.08095600  0.58960100  0.61715400  1
  H  637  1  0.04521400  0.49851800  0.61451300  1
  H  638  1  0.07395600  0.52509700  0.62763900  1
  H  643  1  0.37379000  0.45782600  0.11114200  1
  H  644  1  0.36221600  0.46858200  0.08611600  1
  H  647  1  0.39621000  0.44462100  0.05660000  1
  H  648  1  0.43046000  0.41560000  0.06068300  1
  H  649  1  0.40412200  0.50829300  0.06630000  1
  H  650  1  0.44239000  0.52251800  0.07765200  1
  H  653  1  0.48683100  0.43461800  0.07756000  1
  H  654  1  0.49242700  0.47769300  0.08489800  1
  H  656  1  0.44392900  0.39627700  0.09607400  1
  H  657  1  0.42095400  0.41213600  0.11710500  1
  H  659  1  0.45665700  0.50325200  0.11452900  1
  H  660  1  0.42794900  0.47662700  0.12764700  1
  H  665  1  0.29516400  0.63023900  0.86360200  1
  H  666  1  0.28804000  0.61905500  0.83828800  1
  H  669  1  0.31382900  0.65282500  0.80985900  1
  H  670  1  0.33997900  0.68915200  0.81466200  1
  H  671  1  0.24805800  0.65616500  0.81704600  1
  H  672  1  0.22991300  0.69396100  0.82695200  1
  H  675  1  0.31374100  0.74463800  0.82790100  1
  H  676  1  0.27024300  0.74755700  0.83472800  1
  H  678  1  0.35486200  0.70494400  0.85072400  1
  H  679  1  0.33615400  0.68383300  0.87131500  1
  H  681  1  0.24534100  0.71340000  0.86388400  1
  H  682  1  0.27169100  0.68623300  0.87844600  1
  H  687  1  0.20678300  0.37188500  0.36341000  1
  H  688  1  0.21392000  0.38294600  0.33808400  1
  H  691  1  0.18802400  0.34914500  0.30970800  1
  H  692  1  0.16185300  0.31285100  0.31454000  1
  H  693  1  0.25384800  0.34565500  0.31693100  1
  H  694  1  0.27186900  0.30784100  0.32689100  1
  H  697  1  0.18787200  0.25742100  0.32786000  1
  H  698  1  0.23134800  0.25438800  0.33471500  1
  H  700  1  0.14684100  0.29733300  0.35066900  1
  H  701  1  0.16564700  0.31850900  0.37121200  1
  H  703  1  0.25633100  0.28857200  0.36382500  1
  H  704  1  0.23005200  0.31585000  0.37835600  1
  H  711  1  0.01488800  0.89551300  0.13151500  1
  H  718  1  0.88175100  0.90618700  0.11726100  1
  H  719  1  0.83323400  0.87138400  0.12286400  1
  H  720  1  0.86269900  0.85862300  0.18362400  1
  H  721  1  0.96360800  0.98846000  0.11741600  1
  H  722  1  0.91210000  0.89323400  0.17762400  1
  H  723  1  0.91296700  0.96712100  0.13292700  1
  H  733  1  0.48701900  0.10633500  0.63145800  1
  H  740  1  0.62013100  0.09563600  0.61724600  1
  H  741  1  0.66865000  0.13041600  0.62286000  1
  H  742  1  0.63914200  0.14318800  0.68360800  1
  H  743  1  0.53824000  0.01334400  0.61739300  1
  H  744  1  0.58973800  0.10858800  0.67759200  1
  H  745  1  0.58890100  0.03465700  0.63290800  1
  H  755  1  0.35216500  0.76431100  0.38431300  1
  H  762  1  0.34380200  0.63320800  0.36682600  1
  H  763  1  0.37923900  0.58497000  0.37245400  1
  H  764  1  0.38429800  0.60985800  0.43429400  1
  H  765  1  0.25970400  0.71488700  0.36715500  1
  H  766  1  0.34910900  0.65876100  0.42832100  1
  H  767  1  0.27977800  0.66300700  0.38193900  1
  H  777  1  0.14960100  0.23740400  0.88426700  1
  H  784  1  0.15795900  0.36847300  0.86678900  1
  H  785  1  0.12252600  0.41672000  0.87241600  1
  H  786  1  0.11743800  0.39182000  0.93425700  1
  H  787  1  0.24207200  0.28684800  0.86713800  1
  H  788  1  0.15261500  0.34292200  0.92829000  1
  H  789  1  0.22197900  0.33870900  0.88193500  1
  H  799  1  0.47872800  0.88079000  0.87615200  1
  H  806  1  0.61269200  0.93601200  0.86348900  1
  H  807  1  0.66538200  0.91215400  0.85488700  1
  H  808  1  0.61477800  0.83933100  0.81787900  1
  H  809  1  0.51429700  0.98351400  0.87676700  1
  H  810  1  0.56205400  0.86741200  0.82413600  1
  H  811  1  0.56057500  0.96753600  0.85581300  1
  H  821  1  0.02310700  0.12097900  0.37598000  1
  H  828  1  0.88909900  0.06607300  0.36370500  1
  H  829  1  0.83643000  0.08999600  0.35521600  1
  H  830  1  0.88686100  0.16235900  0.31784100  1
  H  831  1  0.98742200  0.01829900  0.37677500  1
  H  832  1  0.93958500  0.13420400  0.32403500  1
  H  833  1  0.94107100  0.03425400  0.35585700  1
  H  843  1  0.13503400  0.77530000  0.62447600  1
  H  850  1  0.18544800  0.64021600  0.61831200  1
  H  851  1  0.16081400  0.58760300  0.61057900  1
  H  852  1  0.09740000  0.63579100  0.56715500  1
  H  853  1  0.23681100  0.73766100  0.62874100  1
  H  854  1  0.12567700  0.68840100  0.57345700  1
  H  855  1  0.22136900  0.69012500  0.60854000  1
  H  865  1  0.36699600  0.22657000  0.12456700  1
  H  872  1  0.31607500  0.36169700  0.11803400  1
  H  873  1  0.34058000  0.41435600  0.11020500  1
  H  874  1  0.40493000  0.36589400  0.06736000  1
  H  875  1  0.26515000  0.26406400  0.12867500  1
  H  876  1  0.37667600  0.31331300  0.07361900  1
  H  877  1  0.28059600  0.31157300  0.10845800  1
  H  887  1  0.98814500  0.10626800  0.87038800  1
  H  894  1  0.12108500  0.09354800  0.88560500  1
  H  895  1  0.16975800  0.12786100  0.87958700  1
  H  896  1  0.14044200  0.13857500  0.81866000  1
  H  897  1  0.03728400  0.01338600  0.88703500  1
  H  898  1  0.09096000  0.10430200  0.82504700  1
  H  899  1  0.08868300  0.03278600  0.87143600  1
  H  909  1  0.51359300  0.89577400  0.37021100  1
  H  916  1  0.38076200  0.90819200  0.38561300  1
  H  917  1  0.33214000  0.87379300  0.37963700  1
  H  918  1  0.36122000  0.86331300  0.31865900  1
  H  919  1  0.46438000  0.98851400  0.38705800  1
  H  920  1  0.41063100  0.89771500  0.32500600  1
  H  921  1  0.41294400  0.96911600  0.37148500  1
  H  931  1  0.64710500  0.24010200  0.61759800  1
  H  938  1  0.65770300  0.37223400  0.63367100  1
  H  939  1  0.62230200  0.42049700  0.62852600  1
  H  940  1  0.61087000  0.39318500  0.56733600  1
  H  941  1  0.73961700  0.29047400  0.63366200  1
  H  942  1  0.64629900  0.34422800  0.57282000  1
  H  943  1  0.71914100  0.34168800  0.61833200  1
  H  953  1  0.85483400  0.76167400  0.11761400  1
  H  960  1  0.84417100  0.62952700  0.13365200  1
  H  961  1  0.87956200  0.58125600  0.12849600  1
  H  962  1  0.89106100  0.60865500  0.06732000  1
  H  963  1  0.76227800  0.71132500  0.13362100  1
  H  964  1  0.85566000  0.65761000  0.07281300  1
  H  965  1  0.78276400  0.66011400  0.11828500  1
  H  975  1  0.48960300  0.10137400  0.09998400  1
  H  982  1  0.38606100  0.05668600  0.14563500  1
  H  983  1  0.33493500  0.08495000  0.15500300  1
  H  984  1  0.39312300  0.17058700  0.17515200  1
  H  985  1  0.50718600  0.02108200  0.14157000  1
  H  986  1  0.44437800  0.14180400  0.16558900  1
  H  987  1  0.46097200  0.04170400  0.16157200  1
  H  997  1  0.01230000  0.90037100  0.59998000  1
  H  1004  1  0.11577700  0.94495900  0.64559700  1
  H  1005  1  0.16690800  0.91676700  0.65497000  1
  H  1006  1  0.10879200  0.83113900  0.67518000  1
  H  1007  1  0.99474700  0.98068200  0.64155600  1
  H  1008  1  0.05749900  0.85990300  0.66561300  1
  H  1009  1  0.04092800  0.96003000  0.66157200  1
  H  1019  1  0.86842900  0.22706400  0.37364200  1
  H  1026  1  0.81389400  0.36077600  0.38775300  1
  H  1027  1  0.83855900  0.41311500  0.39646500  1
  H  1028  1  0.91177800  0.36103100  0.43249900  1
  H  1029  1  0.76563600  0.26241900  0.37439200  1
  H  1030  1  0.88292500  0.30871600  0.42620900  1
  H  1031  1  0.78220700  0.30841900  0.39537900  1
  H  1041  1  0.63316100  0.77490200  0.87353400  1
  H  1048  1  0.68740500  0.64100800  0.88737600  1
  H  1049  1  0.66272400  0.58864800  0.89605600  1
  H  1050  1  0.58957300  0.64071100  0.93214800  1
  H  1051  1  0.73591100  0.73940600  0.87430300  1
  H  1052  1  0.61839400  0.69298500  0.92589300  1
  H  1053  1  0.71920000  0.69328500  0.89517300  1
  H  1063  1  0.51283600  0.40070700  0.63417900  1
  H  1070  1  0.38209600  0.41058800  0.61878100  1
  H  1071  1  0.33439300  0.37466800  0.62438600  1
  H  1072  1  0.35992700  0.36853200  0.68609000  1
  H  1073  1  0.46332400  0.49361700  0.61798000  1
  H  1074  1  0.40874200  0.40403700  0.68008400  1
  H  1075  1  0.41219800  0.47410300  0.63383600  1
  H  1085  1  0.98905300  0.60110500  0.13413500  1
  H  1092  1  0.11974300  0.59121200  0.11881000  1
  H  1093  1  0.16742700  0.62713400  0.12441200  1
  H  1094  1  0.14184900  0.63331900  0.18610600  1
  H  1095  1  0.03854100  0.50817000  0.11796200  1
  H  1096  1  0.09305100  0.59778800  0.18009100  1
  H  1097  1  0.08966600  0.52765500  0.13384900  1
  H  1107  1  0.85282800  0.26287100  0.88125900  1
  H  1114  1  0.84312800  0.13097300  0.86494900  1
  H  1115  1  0.87850600  0.08310500  0.87143000  1
  H  1116  1  0.88278000  0.11052400  0.93291900  1
  H  1117  1  0.76029800  0.21421900  0.86348100  1
  H  1118  1  0.84759100  0.15913500  0.92607700  1
  H  1119  1  0.77944500  0.16232800  0.87872000  1
  H  1129  1  0.64888300  0.73893300  0.38117700  1
  H  1136  1  0.65854500  0.87091500  0.36482800  1
  H  1137  1  0.62319800  0.91881100  0.37133900  1
  H  1138  1  0.61885900  0.89124700  0.43280600  1
  H  1139  1  0.74142700  0.78759600  0.36343400  1
  H  1140  1  0.65400200  0.84263800  0.42594300  1
  H  1141  1  0.72220200  0.83950700  0.37862000  1
  H  1151  1  0.97210500  0.38407100  0.37316400  1
  H  1158  1  0.10270400  0.40826700  0.38073300  1
  H  1159  1  0.15391900  0.37825600  0.37461200  1
  H  1160  1  0.12209400  0.35839800  0.31493800  1
  H  1161  1  0.01603000  0.48245600  0.38232100  1
  H  1162  1  0.06935500  0.38773400  0.32163300  1
  H  1163  1  0.06542400  0.46507400  0.36411900  1
  H  1173  1  0.52977400  0.61674500  0.87240100  1
  H  1180  1  0.39935200  0.59420300  0.88093600  1
  H  1181  1  0.34830900  0.62461500  0.87492200  1
  H  1182  1  0.37909700  0.64262900  0.81486500  1
  H  1183  1  0.48509400  0.51900300  0.88259700  1
  H  1184  1  0.43159100  0.61273100  0.82140600  1
  H  1185  1  0.43555800  0.53640300  0.86450400  1
  H  1195  1  0.62877800  0.27449900  0.13123000  1
  H  1202  1  0.67904700  0.13777400  0.12247500  1
  H  1203  1  0.65472200  0.08533000  0.11347200  1
  H  1204  1  0.58665300  0.13673900  0.07384600  1
  H  1205  1  0.73074600  0.23685300  0.13281100  1
  H  1206  1  0.61496600  0.18911700  0.08091600  1
  H  1207  1  0.71342600  0.18867100  0.11367400  1
  H  1217  1  0.87317100  0.72743400  0.63131900  1
  H  1224  1  0.82276300  0.86411800  0.62240300  1
  H  1225  1  0.84707200  0.91655800  0.61336000  1
  H  1226  1  0.91535800  0.86505000  0.57390700  1
  H  1227  1  0.77115400  0.76496700  0.63277900  1
  H  1228  1  0.88707300  0.81269600  0.58098900  1
  H  1229  1  0.78848400  0.81314200  0.61363700  1
  H  1239  1  0.48881600  0.60509300  0.37044600  1
  H  1246  1  0.62094700  0.59496500  0.38634800  1
  H  1247  1  0.66945300  0.62944700  0.37982700  1
  H  1248  1  0.64184900  0.63445400  0.31838200  1
  H  1249  1  0.53761600  0.51229400  0.38757500  1
  H  1250  1  0.59252300  0.60026600  0.32527700  1
  H  1251  1  0.58936600  0.53165100  0.37229300  1
  H  1261  1  0.01292800  0.39669600  0.87041200  1
  H  1268  1  0.88085700  0.40682900  0.88635500  1
  H  1269  1  0.83236200  0.37232900  0.87985300  1
  H  1270  1  0.85990900  0.36734000  0.81840300  1
  H  1271  1  0.96423000  0.48955100  0.88753200  1
  H  1272  1  0.90921400  0.40156100  0.82528500  1
  H  1273  1  0.91242800  0.47022300  0.87228400  1
  H  1283  1  0.13668300  0.74091300  0.12967600  1
  H  1290  1  0.17692600  0.88129600  0.12426300  1
  H  1291  1  0.14809700  0.93198600  0.11609700  1
  H  1292  1  0.08653700  0.87707100  0.07449300  1
  H  1293  1  0.23621000  0.78442700  0.13228500  1
  H  1294  1  0.11930400  0.82726700  0.08072600  1
  H  1295  1  0.21591000  0.83307200  0.11449300  1
  H  1305  1  0.36529300  0.26069300  0.62991800  1
  H  1312  1  0.32464400  0.12038700  0.62402000  1
  H  1313  1  0.35343500  0.06967900  0.61579100  1
  H  1314  1  0.41569100  0.12487700  0.57467200  1
  H  1315  1  0.26562500  0.21745000  0.63213100  1
  H  1316  1  0.38296600  0.17466700  0.58089400  1
  H  1317  1  0.28596000  0.16884000  0.61432200  1
  H  1327  1  0.02404000  0.61700000  0.62149600  1
  H  1334  1  0.89010800  0.56186900  0.63433100  1
  H  1335  1  0.83791400  0.58627600  0.64394800  1
  H  1336  1  0.89102200  0.65580300  0.68193800  1
  H  1337  1  0.98998500  0.51376000  0.62084500  1
  H  1338  1  0.94308200  0.62736400  0.67443600  1
  H  1339  1  0.94296600  0.52924500  0.64142000  1
  H  1349  1  0.47784300  0.38479900  0.12148200  1
  H  1356  1  0.61175300  0.43983500  0.13422100  1
  H  1357  1  0.66393700  0.41547100  0.14383500  1
  H  1358  1  0.61088800  0.34611700  0.18194900  1
  H  1359  1  0.51191200  0.48803900  0.12079000  1
  H  1360  1  0.55881000  0.37454400  0.17443100  1
  H  1361  1  0.55894200  0.47257500  0.14136500  1
  H  1371  1  0.35195100  0.76416700  0.85121200  1
  H  1378  1  0.30702800  0.86486400  0.89768300  1
  H  1379  1  0.33607600  0.91585600  0.90615800  1
  H  1380  1  0.42152700  0.85744300  0.92631900  1
  H  1381  1  0.27197000  0.74318400  0.89246800  1
  H  1382  1  0.39182200  0.80619100  0.91768000  1
  H  1383  1  0.29210300  0.78868300  0.91332900  1
  H  1393  1  0.14946800  0.23820800  0.35119000  1
  H  1400  1  0.19457000  0.13726000  0.39746900  1
  H  1401  1  0.16564600  0.08619100  0.40596900  1
  H  1402  1  0.08012200  0.14446400  0.42618800  1
  H  1403  1  0.22968700  0.25875900  0.39236000  1
  H  1404  1  0.10963800  0.19571400  0.41752500  1
  H  1405  1  0.20950800  0.21320600  0.41317200  1
  H  1415  1  0.93700900  0.05966000  0.96680100  1
  H  1422  1  0.05862400  0.01388000  0.00625100  1
  H  1423  1  0.07787000  0.99980700  0.03912700  1
  H  1424  1  0.97611600  0.97045300  0.05453500  1
  H  1425  1  0.00543800  0.98498800  0.94359500  1
  H  1426  1  0.95748300  0.98445900  0.02198900  1
  H  1427  1  0.02608400  0.97381600  0.97633500  1
  H  1437  1  0.56470000  0.94208300  0.46673100  1
  H  1444  1  0.44316700  0.98786900  0.50624400  1
  H  1445  1  0.42395300  0.00194900  0.53912500  1
  H  1446  1  0.52572700  0.03128700  0.55450000  1
  H  1447  1  0.49630100  0.01683600  0.44358100  1
  H  1448  1  0.54432900  0.01726400  0.52195000  1
  H  1449  1  0.47569600  0.02797600  0.47633300  1
  H  1459  1  0.19400300  0.68943900  0.21857900  1
  H  1466  1  0.24320500  0.81173600  0.25657800  1
  H  1467  1  0.25712400  0.83068200  0.28954600  1
  H  1468  1  0.28397500  0.72832200  0.30511300  1
  H  1469  1  0.26718700  0.75760000  0.19359000  1
  H  1470  1  0.27051700  0.71006500  0.27245000  1
  H  1471  1  0.28022200  0.77869100  0.22604200  1
  H  1481  1  0.30779400  0.31238900  0.71855900  1
  H  1488  1  0.25859900  0.19005800  0.75654200  1
  H  1489  1  0.24466500  0.17109000  0.78950300  1
  H  1490  1  0.21783900  0.27344900  0.80509300  1
  H  1491  1  0.23462600  0.24421500  0.69356400  1
  H  1492  1  0.23130900  0.29172400  0.77243500  1
  H  1493  1  0.22159800  0.22311300  0.72601500  1
  H  1503  1  0.56735900  0.06056100  0.03079900  1
  H  1510  1  0.44586000  0.00217600  0.99826800  1
  H  1511  1  0.42174300  0.98570300  0.96697400  1
  H  1512  1  0.52200500  0.96670300  0.94451000  1
  H  1513  1  0.50893900  0.98093000  0.05737400  1
  H  1514  1  0.54564800  0.98310600  0.97570100  1
  H  1515  1  0.48601300  0.96639300  0.02565900  1
  H  1525  1  0.93457200  0.94127800  0.53077200  1
  H  1532  1  0.05604200  0.99978800  0.49822100  1
  H  1533  1  0.08011500  0.01628100  0.46692000  1
  H  1534  1  0.97981800  0.03514800  0.44447700  1
  H  1535  1  0.99304100  0.02085700  0.55735900  1
  H  1536  1  0.95621500  0.01873000  0.47567800  1
  H  1537  1  0.01592700  0.03543700  0.52564100  1
  H  1547  1  0.31499100  0.68869800  0.78107800  1
  H  1554  1  0.25292700  0.80873900  0.74879000  1
  H  1555  1  0.23550200  0.83249400  0.71757000  1
  H  1556  1  0.21890900  0.73180700  0.69510600  1
  H  1557  1  0.23331700  0.74414500  0.80770600  1
  H  1558  1  0.23632800  0.70853200  0.72619900  1
  H  1559  1  0.21835400  0.76720800  0.77613200  1
  H  1569  1  0.18708400  0.31338500  0.28093500  1
  H  1576  1  0.24890600  0.19305800  0.24875000  1
  H  1577  1  0.26633300  0.16928300  0.21753300  1
  H  1578  1  0.28327000  0.26994400  0.19511700  1
  H  1579  1  0.26829200  0.25750300  0.30773400  1
  H  1580  1  0.26589600  0.29323400  0.22621200  1
  H  1581  1  0.28334500  0.23437700  0.27619100  1
  H  1591  1  0.80694800  0.31485100  0.78434100  1
  H  1598  1  0.75698300  0.19474900  0.74511000  1
  H  1599  1  0.74320800  0.17578000  0.71216600  1
  H  1600  1  0.71760200  0.27829100  0.69624300  1
  H  1601  1  0.73100600  0.24799300  0.80768200  1
  H  1602  1  0.73123600  0.29668500  0.72893200  1
  H  1603  1  0.71869400  0.22812900  0.77492900  1
  H  1613  1  0.69487200  0.68689400  0.28430700  1
  H  1620  1  0.74482900  0.80700200  0.24508700  1
  H  1621  1  0.75863300  0.82598400  0.21215100  1
  H  1622  1  0.78427700  0.72348200  0.19622500  1
  H  1623  1  0.77078800  0.75377200  0.30766000  1
  H  1624  1  0.77061200  0.70507800  0.22890900  1
  H  1625  1  0.78311300  0.77363500  0.27490900  1
  H  1635  1  0.68898500  0.32068000  0.22289400  1
  H  1642  1  0.74516900  0.19514400  0.25272200  1
  H  1643  1  0.76184100  0.17029700  0.28383800  1
  H  1644  1  0.78418400  0.26988700  0.30628800  1
  H  1645  1  0.76333300  0.25952800  0.19336700  1
  H  1646  1  0.76800000  0.29411900  0.27532100  1
  H  1647  1  0.77914800  0.23458100  0.22439900  1
  H  1657  1  0.81286600  0.68117400  0.72290500  1
  H  1664  1  0.75669400  0.80674100  0.75269600  1
  H  1665  1  0.73997900  0.83160600  0.78380200  1
  H  1666  1  0.71756600  0.73202900  0.80624800  1
  H  1667  1  0.73853300  0.74230400  0.69335000  1
  H  1668  1  0.73379700  0.70778100  0.77529600  1
  H  1669  1  0.72270500  0.76728000  0.72437200  1
  H  1679  1  0.43806200  0.55848000  0.46720500  1
  H  1686  1  0.55840700  0.50902600  0.50622900  1
  H  1687  1  0.57741000  0.49592700  0.53926000  1
  H  1688  1  0.47495200  0.47035200  0.55535100  1
  H  1689  1  0.50473700  0.48249700  0.44370800  1
  H  1690  1  0.45655300  0.48322500  0.52256800  1
  H  1691  1  0.52491100  0.47034000  0.47645500  1
  H  1701  1  0.06373700  0.44326800  0.96716900  1
  H  1708  1  0.94348000  0.49281700  0.00619200  1
  H  1709  1  0.92448500  0.50589300  0.03922600  1
  H  1710  1  0.02694300  0.53146200  0.05531800  1
  H  1711  1  0.99713500  0.51931300  0.94366800  1
  H  1712  1  0.04534000  0.51860300  0.02253000  1
  H  1713  1  0.97699700  0.53151900  0.97641500  1
  H  1723  1  0.06711900  0.56018800  0.52902000  1
  H  1730  1  0.94206500  0.50270000  0.49940100  1
  H  1731  1  0.91776100  0.48579800  0.46813500  1
  H  1732  1  0.01779100  0.46318200  0.44642900  1
  H  1733  1  0.00840600  0.48427800  0.55889600  1
  H  1734  1  0.04144100  0.47973000  0.47745300  1
  H  1735  1  0.98265700  0.46843700  0.52806400  1
  H  1745  1  0.43471900  0.44171900  0.02900400  1
  H  1752  1  0.55966400  0.49940100  0.99936900  1
  H  1753  1  0.58388600  0.51621500  0.96806500  1
  H  1754  1  0.48379300  0.53867400  0.94640300  1
  H  1755  1  0.49337900  0.51764500  0.05890100  1
  H  1756  1  0.46022400  0.52223700  0.97746700  1
  H  1757  1  0.51907200  0.53356800  0.02806600  1
  H  1767  1  0.19578900  0.18653300  0.14458700  1
  H  1774  1  0.13653400  0.05548600  0.15459800  1
  H  1775  1  0.09796700  0.01384400  0.14213700  1
  H  1776  1  0.08896400  0.07029500  0.08796200  1
  H  1777  1  0.24875000  0.09131300  0.14464500  1
  H  1778  1  0.12868900  0.11113800  0.10036200  1
  H  1779  1  0.19832800  0.06288800  0.13511600  1
  H  1789  1  0.30615300  0.81528700  0.64462700  1
  H  1796  1  0.36525200  0.94644000  0.65458700  1
  H  1797  1  0.40379400  0.98809000  0.64212400  1
  H  1798  1  0.41300400  0.93148200  0.58800800  1
  H  1799  1  0.25314100  0.91047700  0.64466800  1
  H  1800  1  0.37328700  0.89062200  0.60042900  1
  H  1801  1  0.30355300  0.93892700  0.63514100  1
  H  1811  1  0.06368700  0.94823900  0.39306100  1
  H  1818  1  0.19336000  0.88880800  0.40370300  1
  H  1819  1  0.23562500  0.85037600  0.39187500  1
  H  1820  1  0.18283900  0.84276700  0.33640600  1
  H  1821  1  0.15891000  0.00118000  0.39402600  1
  H  1822  1  0.14125300  0.88248900  0.34822700  1
  H  1823  1  0.18742900  0.95112300  0.38400500  1
  H  1833  1  0.43813100  0.05363000  0.89308300  1
  H  1840  1  0.30847000  0.11304000  0.90369700  1
  H  1841  1  0.26616700  0.15140400  0.89184900  1
  H  1842  1  0.31893700  0.15894900  0.83636800  1
  H  1843  1  0.34290100  0.00069700  0.89405900  1
  H  1844  1  0.36053300  0.11929900  0.84819600  1
  H  1845  1  0.31439400  0.05073000  0.88399900  1
  H  1855  1  0.80733200  0.81414700  0.85785700  1
  H  1862  1  0.86982300  0.94228200  0.84726400  1
  H  1863  1  0.90632900  0.98561000  0.85987500  1
  H  1864  1  0.90885300  0.93492300  0.91616300  1
  H  1865  1  0.75590500  0.91022600  0.85667100  1
  H  1866  1  0.87116800  0.89233300  0.90352400  1
  H  1867  1  0.80617800  0.93797900  0.86678100  1
  H  1877  1  0.69432500  0.18778200  0.35784600  1
  H  1884  1  0.63188100  0.05969000  0.34728200  1
  H  1885  1  0.59541900  0.01631900  0.35985700  1
  H  1886  1  0.59279400  0.06695400  0.41616600  1
  H  1887  1  0.74572900  0.09168700  0.35667800  1
  H  1888  1  0.63046100  0.10959900  0.40353700  1
  H  1889  1  0.69544800  0.06395600  0.36680000  1
  H  1899  1  0.93830200  0.06224400  0.60550900  1
  H  1906  1  0.80840300  0.11705700  0.59856500  1
  H  1907  1  0.76476800  0.15419900  0.61024300  1
  H  1908  1  0.81869200  0.16640500  0.66506600  1
  H  1909  1  0.84578700  0.00610100  0.61309400  1
  H  1910  1  0.86181100  0.12823900  0.65334500  1
  H  1911  1  0.81716900  0.05620900  0.62267000  1
  H  1921  1  0.56365000  0.93956700  0.10552000  1
  H  1928  1  0.69354800  0.88474200  0.09853300  1
  H  1929  1  0.73716000  0.84757000  0.11021500  1
  H  1930  1  0.68322100  0.83542300  0.16503800  1
  H  1931  1  0.65617200  0.99570800  0.11309700  1
  H  1932  1  0.64014800  0.87358600  0.15332500  1
  H  1933  1  0.68479500  0.94558900  0.12265600  1
  H  1943  1  0.69782000  0.68725000  0.64521800  1
  H  1950  1  0.63737600  0.56017500  0.65286400  1
  H  1951  1  0.59903500  0.51759300  0.64129900  1
  H  1952  1  0.58935100  0.57076100  0.58605400  1
  H  1953  1  0.74963700  0.59188000  0.63934600  1
  H  1954  1  0.62896200  0.61264800  0.59760300  1
  H  1955  1  0.69863800  0.56551600  0.62923100  1
  H  1965  1  0.80408500  0.31456200  0.14523200  1
  H  1972  1  0.86451900  0.44162100  0.15281800  1
  H  1973  1  0.90282300  0.48421900  0.14125900  1
  H  1974  1  0.91258500  0.43101500  0.08602400  1
  H  1975  1  0.75231700  0.40995500  0.13935800  1
  H  1976  1  0.87298200  0.38910400  0.09758900  1
  H  1977  1  0.80332600  0.43628600  0.12922400  1
  H  1987  1  0.56418900  0.44687100  0.89467500  1
  H  1994  1  0.69220600  0.38375900  0.90438700  1
  H  1995  1  0.73480300  0.34657100  0.89157300  1
  H  1996  1  0.68313300  0.34458100  0.83558600  1
  H  1997  1  0.66038200  0.49811300  0.89488800  1
  H  1998  1  0.64118300  0.38281400  0.84846300  1
  H  1999  1  0.68782000  0.44760400  0.88481000  1
  H  2009  1  0.93741700  0.55459700  0.39455200  1
  H  2016  1  0.80948500  0.61792200  0.40436500  1
  H  2017  1  0.76696800  0.65523000  0.39156800  1
  H  2018  1  0.81858600  0.65706300  0.33556300  1
  H  2019  1  0.84113600  0.50352900  0.39494000  1
  H  2020  1  0.86042700  0.61875600  0.34840900  1
  H  2021  1  0.81374900  0.55405800  0.38484100  1
  H  2031  1  0.30904600  0.31405400  0.35583100  1
  H  2038  1  0.36751000  0.44397800  0.34736400  1
  H  2039  1  0.40439500  0.48704000  0.36010100  1
  H  2040  1  0.40925600  0.43408400  0.41562200  1
  H  2041  1  0.25405700  0.40803000  0.35856900  1
  H  2042  1  0.37166100  0.39154900  0.40280300  1
  H  2043  1  0.30403900  0.43688500  0.36826400  1
  H  2053  1  0.19272500  0.68776100  0.85588300  1
  H  2060  1  0.13462800  0.55768700  0.84742800  1
  H  2061  1  0.09766900  0.51463800  0.86009900  1
  H  2062  1  0.09246400  0.56768400  0.91559000  1
  H  2063  1  0.24794400  0.59393000  0.85875300  1
  H  2064  1  0.13010500  0.61023800  0.90280700  1
  H  2065  1  0.19798800  0.56496100  0.86839000  1
  H  2075  1  0.43488400  0.55856000  0.10614500  1
  H  2082  1  0.30613400  0.61975700  0.09778700  1
  H  2083  1  0.26310100  0.65627300  0.11071800  1
  H  2084  1  0.31685400  0.66154900  0.16595900  1
  H  2085  1  0.33924600  0.50644300  0.10870300  1
  H  2086  1  0.35920600  0.62390200  0.15300000  1
  H  2087  1  0.31199900  0.55700600  0.11873400  1
  H  2097  1  0.06696600  0.44321400  0.60610800  1
  H  2104  1  0.19571300  0.38193900  0.59769900  1
  H  2105  1  0.23875300  0.34544900  0.61065500  1
  H  2106  1  0.18500500  0.34032200  0.66590400  1
  H  2107  1  0.16264100  0.49526900  0.60859700  1
  H  2108  1  0.14268400  0.37791200  0.65293600  1
  H  2109  1  0.18987400  0.44470300  0.61862000  1
  C  1  1  0.07185900  0.00480200  0.10406300  1
  C  2  1  0.05751300  0.01021600  0.08209500  1
  C  3  1  0.09993500  0.97561000  0.10269300  1
  C  4  1  0.08639700  0.94039500  0.09388200  1
  C  7  1  0.07168700  0.94839400  0.07224800  1
  C  8  1  0.04229600  0.97647800  0.07239100  1
  C  13  1  0.01307900  0.96306800  0.08696200  1
  C  14  1  0.02541500  0.95631900  0.10908700  1
  C  17  1  0.05554300  0.92905300  0.10759000  1
  C  20  1  0.04103400  0.99100500  0.11732500  1
  C  23  1  0.42999600  0.99703900  0.60406200  1
  C  24  1  0.44433400  0.99159100  0.58209400  1
  C  25  1  0.40193300  0.02624200  0.60268300  1
  C  26  1  0.41548200  0.06143100  0.59384600  1
  C  29  1  0.43016600  0.05339700  0.57221200  1
  C  30  1  0.45955500  0.02531200  0.57237000  1
  C  35  1  0.48878200  0.03872800  0.58693200  1
  C  36  1  0.47646000  0.04550700  0.60905700  1
  C  39  1  0.44634200  0.07278200  0.60754900  1
  C  42  1  0.46082500  0.01084200  0.61731500  1
  C  45  1  0.24676800  0.82438900  0.35407400  1
  C  46  1  0.24298500  0.81012800  0.33195500  1
  C  47  1  0.27626500  0.85231200  0.35324600  1
  C  48  1  0.31193400  0.83742900  0.34612100  1
  C  51  1  0.30634100  0.82261800  0.32423600  1
  C  52  1  0.27729200  0.79422500  0.32320500  1
  C  57  1  0.28845600  0.76446400  0.33797700  1
  C  58  1  0.29346900  0.77639400  0.36030200  1
  C  61  1  0.32133500  0.80593300  0.35987200  1
  C  64  1  0.25867700  0.79304800  0.36761500  1
  C  67  1  0.25502600  0.17736000  0.85403400  1
  C  68  1  0.25880800  0.19162800  0.83191500  1
  C  69  1  0.22553500  0.14943100  0.85320100  1
  C  70  1  0.18985900  0.16431300  0.84608300  1
  C  73  1  0.19544700  0.17913200  0.82420000  1
  C  74  1  0.22449700  0.20753000  0.82317000  1
  C  79  1  0.21333100  0.23728500  0.83794500  1
  C  80  1  0.20832000  0.22534400  0.86026900  1
  C  83  1  0.18046300  0.19580300  0.85983700  1
  C  86  1  0.24311500  0.20869800  0.86757700  1
  C  89  1  0.41347300  0.98910000  0.90247400  1
  C  90  1  0.43207100  0.99682000  0.92302700  1
  C  91  1  0.38906800  0.95736400  0.90633500  1
  C  92  1  0.40742300  0.92389900  0.91422600  1
  C  95  1  0.42618800  0.93378700  0.93436700  1
  C  96  1  0.45229700  0.96478200  0.93165200  1
  C  101  1  0.47912900  0.95391600  0.91483500  1
  C  102  1  0.46234600  0.94463600  0.89398300  1
  C  105  1  0.43576500  0.91485400  0.89826900  1
  C  108  1  0.44105100  0.97688600  0.88661700  1
  C  111  1  0.08833400  0.01278700  0.40242100  1
  C  112  1  0.06975700  0.00508700  0.42298300  1
  C  113  1  0.11272100  0.04455200  0.40625800  1
  C  114  1  0.09433800  0.07801500  0.41413400  1
  C  117  1  0.07559500  0.06814200  0.43428700  1
  C  118  1  0.04951100  0.03712200  0.43159600  1
  C  123  1  0.02266000  0.04794300  0.41477900  1
  C  124  1  0.03942200  0.05720100  0.39391500  1
  C  127  1  0.06598500  0.08700700  0.39817900  1
  C  130  1  0.06073100  0.02495300  0.38656300  1
  C  133  1  0.24128100  0.83996600  0.65306100  1
  C  134  1  0.24829500  0.82175300  0.67380200  1
  C  135  1  0.20924100  0.86425800  0.65637600  1
  C  136  1  0.17557600  0.84576100  0.66390200  1
  C  139  1  0.18480300  0.82734900  0.68428300  1
  C  140  1  0.21608500  0.80142900  0.68210600  1
  C  145  1  0.20601700  0.77432400  0.66528400  1
  C  146  1  0.19749900  0.79073800  0.64421400  1
  C  149  1  0.16741600  0.81717400  0.64794500  1
  C  152  1  0.22991100  0.81205800  0.63717300  1
  C  155  1  0.26064600  0.16182000  0.15303500  1
  C  156  1  0.25364100  0.18003600  0.17377500  1
  C  157  1  0.29266800  0.13750600  0.15634800  1
  C  158  1  0.32634500  0.15597700  0.16388000  1
  C  161  1  0.31712500  0.17438100  0.18426300  1
  C  162  1  0.28586700  0.20033100  0.18208600  1
  C  167  1  0.29595700  0.22743600  0.16526600  1
  C  168  1  0.30446200  0.21102400  0.14419700  1
  C  171  1  0.33452800  0.18456700  0.14792700  1
  C  174  1  0.27204000  0.18972400  0.13715100  1
  C  177  1  0.92796900  0.99846900  0.89842700  1
  C  178  1  0.94042400  0.99519900  0.92092200  1
  C  179  1  0.89926400  0.02714100  0.89818100  1
  C  180  1  0.91265000  0.06307800  0.90571900  1
  C  183  1  0.92603300  0.05765600  0.92786600  1
  C  184  1  0.95553900  0.02969700  0.92981500  1
  C  189  1  0.98615500  0.04224200  0.91610600  1
  C  190  1  0.97542200  0.04656600  0.89346300  1
  C  193  1  0.94499500  0.07349000  0.89293500  1
  C  196  1  0.96019600  0.01119700  0.88585500  1
  C  199  1  0.57374000  0.00341100  0.39840000  1
  C  200  1  0.56129800  0.00663800  0.42089900  1
  C  201  1  0.60243500  0.97473000  0.39812700  1
  C  202  1  0.58904300  0.93878200  0.40564300  1
  C  205  1  0.57566500  0.94416100  0.42779700  1
  C  206  1  0.54617200  0.97212800  0.42976700  1
  C  211  1  0.51555200  0.95961700  0.41605400  1
  C  212  1  0.52627100  0.95534500  0.39340500  1
  C  215  1  0.55669100  0.92841600  0.39285200  1
  C  218  1  0.54150000  0.99072800  0.38582200  1
  C  221  1  0.75366100  0.18164300  0.64768400  1
  C  222  1  0.75750700  0.19635100  0.66968500  1
  C  223  1  0.72445800  0.15340700  0.64879900  1
  C  224  1  0.68865700  0.16805900  0.65594000  1
  C  227  1  0.69432200  0.18338300  0.67769100  1
  C  228  1  0.72316000  0.21203600  0.67845800  1
  C  233  1  0.71157300  0.24145400  0.66354900  1
  C  234  1  0.70637100  0.22899500  0.64131100  1
  C  237  1  0.67881500  0.19919200  0.64202900  1
  C  240  1  0.74123600  0.21251700  0.63395800  1
  C  243  1  0.74823800  0.82013800  0.14766500  1
  C  244  1  0.74437700  0.80542500  0.16966500  1
  C  245  1  0.77743700  0.84837600  0.14878900  1
  C  246  1  0.81323300  0.83372200  0.15593600  1
  C  249  1  0.80755400  0.81839500  0.17768600  1
  C  250  1  0.77872000  0.78973900  0.17844300  1
  C  255  1  0.79031700  0.76032400  0.16353400  1
  C  256  1  0.79553100  0.77278800  0.14130100  1
  C  259  1  0.82308800  0.80259100  0.14202700  1
  C  262  1  0.76067500  0.78926400  0.13394000  1
  C  265  1  0.58747100  0.00577600  0.09986000  1
  C  266  1  0.57491100  0.99970100  0.07770800  1
  C  267  1  0.61109200  0.03870000  0.09960900  1
  C  268  1  0.59355500  0.07239300  0.09153000  1
  C  271  1  0.58024200  0.06343700  0.06971600  1
  C  272  1  0.55473700  0.03151100  0.06890800  1
  C  277  1  0.52369300  0.04045100  0.08336600  1
  C  278  1  0.53516400  0.04850400  0.10560200  1
  C  281  1  0.56151000  0.07938500  0.10526100  1
  C  284  1  0.55527600  0.01541800  0.11323100  1
  C  287  1  0.91448300  0.99603500  0.59984200  1
  C  288  1  0.92705600  0.00211200  0.57769200  1
  C  289  1  0.89084900  0.96312000  0.59958100  1
  C  290  1  0.90837000  0.92942500  0.59149900  1
  C  293  1  0.92169400  0.93838200  0.56968800  1
  C  294  1  0.94721500  0.97029300  0.56888700  1
  C  299  1  0.97825100  0.96133100  0.58334800  1
  C  300  1  0.96677000  0.95327800  0.60558300  1
  C  303  1  0.94040800  0.92241200  0.60523600  1
  C  306  1  0.94667000  0.98637400  0.61321400  1
  C  309  1  0.75851400  0.16213500  0.34838400  1
  C  310  1  0.75120400  0.18062900  0.32777800  1
  C  311  1  0.78990400  0.13716000  0.34488800  1
  C  312  1  0.82381300  0.15473700  0.33705300  1
  C  315  1  0.81400700  0.17333100  0.31672700  1
  C  316  1  0.78365500  0.20019800  0.31922100  1
  C  321  1  0.79504300  0.22699800  0.33594000  1
  C  322  1  0.80400500  0.21031300  0.35681300  1
  C  325  1  0.83349300  0.18326500  0.35265800  1
  C  328  1  0.77119300  0.18972700  0.36414500  1
  C  331  1  0.74314800  0.83977500  0.84836200  1
  C  332  1  0.75050500  0.82129100  0.82775800  1
  C  333  1  0.71176100  0.86475100  0.84484700  1
  C  334  1  0.67787800  0.84717800  0.83697200  1
  C  337  1  0.68773300  0.82859900  0.81665100  1
  C  338  1  0.71807500  0.80172600  0.81917200  1
  C  343  1  0.70664800  0.77492300  0.83587800  1
  C  344  1  0.69763900  0.79159700  0.85674800  1
  C  347  1  0.66817000  0.81864600  0.85256800  1
  C  350  1  0.73043900  0.81217200  0.86411000  1
  C  353  1  0.57208800  0.50649900  0.60373100  1
  C  354  1  0.55726900  0.51041000  0.58175000  1
  C  355  1  0.60005000  0.47705300  0.60263300  1
  C  356  1  0.58507600  0.44140700  0.59550400  1
  C  359  1  0.56967200  0.44715000  0.57379300  1
  C  360  1  0.54121900  0.47615200  0.57306200  1
  C  365  1  0.51180400  0.46482600  0.58803900  1
  C  366  1  0.52436700  0.45962800  0.61024900  1
  C  369  1  0.55394400  0.43179500  0.60949300  1
  C  372  1  0.54115700  0.49439400  0.61750900  1
  C  375  1  0.92980700  0.49529700  0.10369400  1
  C  376  1  0.94463100  0.49139200  0.08171300  1
  C  377  1  0.90184300  0.52473800  0.10259500  1
  C  378  1  0.91681300  0.56039000  0.09547300  1
  C  381  1  0.93222300  0.55465700  0.07376200  1
  C  382  1  0.96067800  0.52565200  0.07302900  1
  C  387  1  0.99009100  0.53697800  0.08800800  1
  C  388  1  0.97752600  0.54217400  0.11021800  1
  C  391  1  0.94794300  0.56999900  0.10946300  1
  C  394  1  0.96073500  0.50740300  0.11747400  1
  C  397  1  0.74670000  0.32459800  0.85299800  1
  C  398  1  0.74296800  0.31245600  0.83047800  1
  C  399  1  0.77596000  0.35272000  0.85320400  1
  C  400  1  0.81156500  0.33868100  0.84551900  1
  C  403  1  0.80566500  0.32561000  0.82334600  1
  C  404  1  0.77705000  0.29672900  0.82140800  1
  C  409  1  0.78913000  0.26574400  0.83497700  1
  C  410  1  0.79385600  0.27613800  0.85765700  1
  C  413  1  0.82135600  0.30604400  0.85820100  1
  C  416  1  0.75885500  0.29196100  0.86542100  1
  C  419  1  0.75507100  0.67718100  0.35297900  1
  C  420  1  0.75881600  0.68931000  0.33045700  1
  C  421  1  0.72581000  0.64906100  0.35318200  1
  C  422  1  0.69020800  0.66310000  0.34549100  1
  C  425  1  0.69611900  0.67615900  0.32331600  1
  C  426  1  0.72473900  0.70503700  0.32138000  1
  C  431  1  0.71265400  0.73602900  0.33494000  1
  C  432  1  0.70791500  0.72565000  0.35762200  1
  C  435  1  0.68041500  0.69574500  0.35816500  1
  C  438  1  0.74291100  0.70982500  0.36539400  1
  C  441  1  0.91143900  0.49037000  0.40349000  1
  C  442  1  0.92924400  0.49712700  0.42435800  1
  C  443  1  0.88637600  0.45885100  0.40648600  1
  C  444  1  0.90377600  0.42473800  0.41421500  1
  C  447  1  0.92162500  0.43401700  0.43483700  1
  C  448  1  0.94846100  0.46441600  0.43287900  1
  C  453  1  0.97563100  0.45323900  0.41636800  1
  C  454  1  0.95972100  0.44515200  0.39512200  1
  C  457  1  0.93255400  0.41554600  0.39861300  1
  C  460  1  0.93961100  0.47823800  0.38791000  1
  C  463  1  0.59007300  0.51120200  0.90344600  1
  C  464  1  0.57232500  0.50458400  0.92434400  1
  C  465  1  0.61509000  0.54279100  0.90634400  1
  C  466  1  0.59764400  0.57694000  0.91398600  1
  C  469  1  0.57985400  0.56779800  0.93464500  1
  C  470  1  0.55307700  0.53734000  0.93278900  1
  C  475  1  0.52586600  0.54835600  0.91626600  1
  C  476  1  0.54171700  0.55626000  0.89497900  1
  C  479  1  0.56885100  0.58593800  0.89835800  1
  C  482  1  0.56183800  0.52313500  0.88785400  1
  C  485  1  0.73960200  0.34169600  0.15260300  1
  C  486  1  0.74679000  0.32722300  0.17430800  1
  C  487  1  0.70843400  0.36736600  0.15444300  1
  C  488  1  0.67465900  0.35161300  0.16351600  1
  C  491  1  0.68468900  0.33660000  0.18470800  1
  C  492  1  0.71454900  0.30872600  0.18388400  1
  C  497  1  0.70228800  0.27914300  0.16914200  1
  C  498  1  0.69355800  0.29239500  0.14736100  1
  C  501  1  0.66451000  0.32050700  0.14982000  1
  C  504  1  0.72670400  0.31117800  0.13882200  1
  C  507  1  0.76231400  0.66014500  0.65259500  1
  C  508  1  0.75510700  0.67461000  0.67429900  1
  C  509  1  0.79348900  0.63448300  0.65444300  1
  C  510  1  0.82725100  0.65023800  0.66352900  1
  C  513  1  0.81720000  0.66524500  0.68471800  1
  C  514  1  0.78733300  0.69311400  0.68388500  1
  C  519  1  0.79959900  0.72270500  0.66914900  1
  C  520  1  0.80835200  0.70945900  0.64736900  1
  C  523  1  0.83740300  0.68135200  0.64983800  1
  C  526  1  0.77521700  0.69066800  0.63882100  1
  C  529  1  0.42758500  0.49840500  0.39851400  1
  C  530  1  0.44011400  0.49443000  0.42096100  1
  C  531  1  0.39935900  0.52758800  0.39856300  1
  C  532  1  0.41339100  0.56311300  0.40636000  1
  C  535  1  0.42682100  0.55694600  0.42840700  1
  C  536  1  0.45581500  0.52846800  0.43010100  1
  C  541  1  0.48655500  0.54078000  0.41643000  1
  C  542  1  0.47580400  0.54578300  0.39381600  1
  C  545  1  0.44580300  0.57322600  0.39354500  1
  C  548  1  0.45994300  0.51084400  0.38595900  1
  C  551  1  0.07428200  0.50332200  0.89848300  1
  C  552  1  0.06174400  0.50730200  0.92092700  1
  C  553  1  0.10247300  0.47410600  0.89853700  1
  C  554  1  0.08839300  0.43859600  0.90632600  1
  C  557  1  0.07496600  0.44477000  0.92837200  1
  C  558  1  0.04600600  0.47328500  0.93006400  1
  C  563  1  0.01525500  0.46101400  0.91638700  1
  C  564  1  0.02600800  0.45600400  0.89377300  1
  C  567  1  0.05597400  0.42852200  0.89350500  1
  C  570  1  0.04191900  0.49092200  0.88591800  1
  C  573  1  0.25193900  0.67885600  0.14926500  1
  C  574  1  0.25640000  0.69215400  0.17153100  1
  C  575  1  0.22394000  0.64958800  0.14991500  1
  C  576  1  0.18824700  0.66250400  0.15806500  1
  C  579  1  0.19479800  0.67669800  0.17994700  1
  C  580  1  0.22223400  0.70692600  0.18099900  1
  C  585  1  0.20853800  0.73706200  0.16726400  1
  C  586  1  0.20246100  0.72537200  0.14497100  1
  C  589  1  0.17613700  0.69441000  0.14546500  1
  C  592  1  0.23749600  0.71024600  0.13661000  1
  C  595  1  0.24990000  0.32293300  0.64922700  1
  C  596  1  0.24542000  0.30965000  0.67149600  1
  C  597  1  0.27789100  0.35220900  0.64987400  1
  C  598  1  0.31357900  0.33930800  0.65804000  1
  C  601  1  0.30700700  0.32512700  0.67992300  1
  C  602  1  0.27957900  0.29489100  0.68097600  1
  C  607  1  0.29329300  0.26474300  0.66725400  1
  C  608  1  0.29939500  0.27641700  0.64496400  1
  C  611  1  0.32571000  0.30738900  0.64545700  1
  C  614  1  0.26436600  0.29153500  0.63658700  1
  C  617  1  0.09298400  0.50790400  0.59806600  1
  C  618  1  0.07714600  0.50115600  0.57667100  1
  C  619  1  0.11802000  0.53954100  0.59601800  1
  C  620  1  0.10101900  0.57348900  0.58793200  1
  C  623  1  0.08467100  0.56388500  0.56696900  1
  C  624  1  0.05749100  0.53341400  0.56796100  1
  C  629  1  0.02866500  0.54460800  0.58347000  1
  C  630  1  0.04321500  0.55293000  0.60501900  1
  C  633  1  0.07062900  0.58262700  0.60235700  1
  C  636  1  0.06324700  0.51988800  0.61270900  1
  C  639  1  0.40887600  0.49387200  0.09809700  1
  C  640  1  0.42468300  0.50067400  0.07669900  1
  C  641  1  0.38385900  0.46221900  0.09604100  1
  C  642  1  0.40086700  0.42831300  0.08790200  1
  C  645  1  0.41717000  0.43798200  0.06694100  1
  C  646  1  0.44434400  0.46845000  0.06795300  1
  C  651  1  0.47319200  0.45723200  0.08344300  1
  C  652  1  0.45867300  0.44886100  0.10499200  1
  C  655  1  0.43127300  0.41915500  0.10231300  1
  C  658  1  0.43863700  0.48187500  0.11271700  1
  C  661  1  0.25872600  0.66422100  0.84910500  1
  C  662  1  0.25307600  0.67791600  0.82715800  1
  C  663  1  0.29191200  0.64085300  0.84853300  1
  C  664  1  0.32547500  0.66015300  0.84177400  1
  C  667  1  0.31753600  0.67470000  0.82004600  1
  C  668  1  0.28475400  0.69919100  0.81906100  1
  C  673  1  0.29215700  0.72983500  0.83401700  1
  C  674  1  0.29995500  0.71752700  0.85610400  1
  C  677  1  0.33134000  0.69201500  0.85581900  1
  C  680  1  0.26745300  0.69593100  0.86318400  1
  C  683  1  0.24310300  0.33774100  0.34899000  1
  C  684  1  0.24875300  0.32395500  0.32706600  1
  C  685  1  0.20998000  0.36120200  0.34836000  1
  C  686  1  0.17635300  0.34196900  0.34162700  1
  C  689  1  0.18428900  0.32731100  0.31992000  1
  C  690  1  0.21702500  0.30274500  0.31897800  1
  C  695  1  0.20949600  0.27217900  0.33396800  1
  C  696  1  0.20170700  0.28458700  0.35603900  1
  C  699  1  0.17041400  0.31020500  0.35572900  1
  C  702  1  0.23427200  0.30610100  0.36310500  1
  C  705  1  0.99509800  0.94415100  0.12204600  1
  C  706  1  0.96486000  0.96460200  0.12390300  1
  C  707  1  0.93475800  0.95216300  0.13325500  1
  C  708  1  0.93372800  0.91882700  0.14181500  1
  C  709  1  0.96413700  0.89849000  0.14141600  1
  C  710  1  0.99409200  0.91157100  0.13189200  1
  C  712  1  0.90136800  0.90384000  0.14701200  1
  C  713  1  0.87720200  0.89765100  0.13159900  1
  C  714  1  0.84826700  0.87670900  0.13507200  1
  C  715  1  0.84167500  0.86091500  0.15401000  1
  C  716  1  0.86525400  0.86919300  0.16966700  1
  C  717  1  0.89467200  0.88984800  0.16622500  1
  C  727  1  0.50678600  0.05768000  0.62200600  1
  C  728  1  0.53701200  0.03720800  0.62387300  1
  C  729  1  0.56712100  0.04963100  0.63322300  1
  C  730  1  0.56815600  0.08298100  0.64176200  1
  C  731  1  0.53777100  0.10334700  0.64136000  1
  C  732  1  0.50781100  0.09027400  0.63183800  1
  C  734  1  0.60052700  0.09791500  0.64699900  1
  C  735  1  0.62470000  0.10413300  0.63159000  1
  C  736  1  0.65365600  0.12504400  0.63507600  1
  C  737  1  0.66022500  0.14085900  0.65401100  1
  C  738  1  0.63657900  0.13264600  0.66964300  1
  C  739  1  0.60719700  0.11193900  0.66620800  1
  C  749  1  0.30400000  0.74558000  0.37334900  1
  C  750  1  0.28309700  0.71551100  0.37422200  1
  C  751  1  0.29480600  0.68466600  0.38308000  1
  C  752  1  0.32757900  0.68287700  0.39229700  1
  C  753  1  0.34810000  0.71311600  0.39308500  1
  C  754  1  0.33587500  0.74370800  0.38391600  1
  C  756  1  0.34214500  0.65021800  0.39713200  1
  C  757  1  0.35077400  0.62759100  0.38132000  1
  C  758  1  0.37221000  0.59898900  0.38478300  1
  C  759  1  0.38612300  0.59136600  0.40407900  1
  C  760  1  0.37538800  0.61334800  0.42001800  1
  C  761  1  0.35422500  0.64236800  0.41662200  1
  C  771  1  0.19778500  0.25614000  0.87332700  1
  C  772  1  0.21868600  0.28620800  0.87421200  1
  C  773  1  0.20697900  0.31703200  0.88308800  1
  C  774  1  0.17419600  0.31882400  0.89229400  1
  C  775  1  0.15367600  0.28857700  0.89306300  1
  C  776  1  0.16592500  0.25798100  0.88391100  1
  C  778  1  0.15955700  0.35146000  0.89709400  1
  C  779  1  0.15098400  0.37409700  0.88128100  1
  C  780  1  0.12955000  0.40269900  0.88474500  1
  C  781  1  0.11563500  0.41032200  0.90404100  1
  C  782  1  0.12639600  0.38836900  0.91998700  1
  C  783  1  0.14754200  0.35933000  0.91659400  1
  C  793  1  0.49045700  0.93423100  0.87893000  1
  C  794  1  0.51540700  0.95838100  0.87219800  1
  C  795  1  0.54330700  0.94877600  0.85984000  1
  C  796  1  0.54903500  0.91397400  0.85418000  1
  C  797  1  0.52426600  0.88919000  0.86059200  1
  C  798  1  0.49532000  0.89985200  0.87200800  1
  C  800  1  0.58129500  0.90390000  0.84514300  1
  C  801  1  0.61268200  0.91714400  0.85271600  1
  C  802  1  0.64451100  0.90201300  0.84776200  1
  C  803  1  0.64695000  0.87179500  0.83567000  1
  C  804  1  0.61564000  0.86118900  0.82640500  1
  C  805  1  0.58385300  0.87743000  0.83054400  1
  C  815  1  0.01129800  0.06757200  0.37886200  1
  C  816  1  0.98631700  0.04341600  0.37217500  1
  C  817  1  0.95838400  0.05300200  0.35983800  1
  C  818  1  0.95267400  0.08779700  0.35416000  1
  C  819  1  0.97750500  0.11257600  0.36048600  1
  C  820  1  0.00646700  0.10192800  0.37189000  1
  C  822  1  0.92040400  0.09787100  0.34513800  1
  C  823  1  0.88904200  0.08480900  0.35285300  1
  C  824  1  0.85721100  0.09995100  0.34791900  1
  C  825  1  0.85471000  0.13008700  0.33575700  1
  C  826  1  0.88602500  0.14060600  0.32645800  1
  C  827  1  0.91779900  0.12426600  0.33049600  1
  C  837  1  0.18783200  0.76239400  0.62916500  1
  C  838  1  0.21205000  0.73673700  0.62350300  1
  C  839  1  0.20280600  0.70820200  0.61156300  1
  C  840  1  0.16836900  0.70294100  0.60508500  1
  C  841  1  0.14368000  0.72869600  0.61007500  1
  C  842  1  0.15401200  0.75801600  0.62125300  1
  C  844  1  0.15822500  0.67021200  0.59680300  1
  C  845  1  0.16866400  0.63946400  0.60642600  1
  C  846  1  0.15310600  0.60769000  0.60186400  1
  C  847  1  0.12563800  0.60451300  0.58775000  1
  C  848  1  0.11742100  0.63523600  0.57708000  1
  C  849  1  0.13384100  0.66698000  0.58108700  1
  C  859  1  0.31414700  0.23937400  0.12915400  1
  C  860  1  0.28991900  0.26499800  0.12345400  1
  C  861  1  0.29917300  0.29352800  0.11151300  1
  C  862  1  0.33363200  0.29885800  0.10509000  1
  C  863  1  0.35833700  0.27314200  0.11014500  1
  C  864  1  0.34798600  0.24378100  0.12127900  1
  C  866  1  0.34378400  0.33158000  0.09679400  1
  C  867  1  0.33303300  0.36238900  0.10623400  1
  C  868  1  0.34852500  0.39418200  0.10162900  1
  C  869  1  0.37624500  0.39730200  0.08768500  1
  C  870  1  0.38468500  0.36651600  0.07712900  1
  C  871  1  0.36828400  0.33476200  0.08113500  1
  C  881  1  0.00660500  0.05770500  0.88090800  1
  C  882  1  0.03662700  0.03677400  0.87995800  1
  C  883  1  0.06716200  0.04806700  0.87058300  1
  C  884  1  0.06894100  0.08073800  0.86121700  1
  C  885  1  0.03896800  0.10171000  0.86101100  1
  C  886  1  0.00856300  0.08973900  0.87050800  1
  C  888  1  0.10158300  0.09481300  0.85580400  1
  C  889  1  0.12573100  0.10145100  0.87115500  1
  C  890  1  0.15472200  0.12216600  0.86743800  1
  C  891  1  0.16132200  0.13732800  0.84832400  1
  C  892  1  0.13783500  0.12849100  0.83273600  1
  C  893  1  0.10840400  0.10799100  0.83640500  1
  C  903  1  0.49508000  0.94424600  0.38084500  1
  C  904  1  0.46503800  0.96515900  0.37994400  1
  C  905  1  0.43448400  0.95386900  0.37058900  1
  C  906  1  0.43273400  0.92123000  0.36118600  1
  C  907  1  0.46273300  0.90030200  0.36089500  1
  C  908  1  0.49314200  0.91226500  0.37038600  1
  C  910  1  0.40009200  0.90714700  0.35577300  1
  C  911  1  0.37604100  0.90035600  0.37115800  1
  C  912  1  0.34707200  0.87959500  0.36746200  1
  C  913  1  0.34044400  0.86444100  0.34834900  1
  C  914  1  0.36388600  0.87333100  0.33274900  1
  C  915  1  0.39322600  0.89397200  0.33637800  1
  C  925  1  0.69538900  0.25937600  0.62804800  1
  C  926  1  0.71613100  0.28949400  0.62671300  1
  C  927  1  0.70417000  0.31994400  0.61751700  1
  C  928  1  0.67118700  0.32136100  0.60850700  1
  C  929  1  0.65077800  0.29101100  0.60822400  1
  C  930  1  0.66332200  0.26077000  0.61765100  1
  C  932  1  0.65632500  0.35390700  0.60361500  1
  C  933  1  0.64944300  0.37730100  0.61933700  1
  C  934  1  0.62800400  0.40597800  0.61616500  1
  C  935  1  0.61230800  0.41299300  0.59725400  1
  C  936  1  0.62121800  0.39021200  0.58132100  1
  C  937  1  0.64244800  0.36112400  0.58443800  1
  C  947  1  0.80652400  0.74241300  0.12803500  1
  C  948  1  0.78579700  0.71228800  0.12670500  1
  C  949  1  0.79772500  0.68186300  0.11747100  1
  C  950  1  0.83072300  0.68043300  0.10848100  1
  C  951  1  0.85114300  0.71078300  0.10822300  1
  C  952  1  0.83858000  0.74103400  0.11762900  1
  C  954  1  0.84564000  0.64790500  0.10361100  1
  C  955  1  0.85243900  0.62447000  0.11932000  1
  C  956  1  0.87386800  0.59578800  0.11613900  1
  C  957  1  0.88958200  0.58879600  0.09723000  1
  C  958  1  0.88065600  0.61157200  0.08129600  1
  C  959  1  0.85945200  0.64068000  0.08442000  1
  C  969  1  0.50420700  0.05911800  0.11845000  1
  C  970  1  0.49438900  0.04243000  0.13659100  1
  C  971  1  0.46700500  0.05460500  0.14860600  1
  C  972  1  0.44854400  0.08456000  0.14316600  1
  C  973  1  0.45688100  0.10135000  0.12486500  1
  C  974  1  0.48418000  0.08837400  0.11295200  1
  C  976  1  0.42022300  0.09628900  0.15490200  1
  C  977  1  0.38796900  0.07986000  0.15296900  1
  C  978  1  0.35745600  0.09729500  0.15830100  1
  C  979  1  0.35776300  0.13205500  0.16527400  1
  C  980  1  0.39080000  0.14584700  0.17002600  1
  C  981  1  0.42145200  0.12878800  0.16445900  1
  C  991  1  0.99771600  0.94264300  0.61843700  1
  C  992  1  0.00753500  0.95932800  0.63658000  1
  C  993  1  0.03490200  0.94713500  0.64860200  1
  C  994  1  0.05334800  0.91717000  0.64316600  1
  C  995  1  0.04500200  0.90037100  0.62487100  1
  C  996  1  0.01772600  0.91337000  0.61294600  1
  C  998  1  0.08162800  0.90540500  0.65492700  1
  C  999  1  0.11389400  0.92183100  0.65298300  1
  C  1000  1  0.14441700  0.90443700  0.65835100  1
  C  1001  1  0.14414900  0.86966500  0.66530600  1
  C  1002  1  0.11109900  0.85584600  0.66999100  1
  C  1003  1  0.08042000  0.87292800  0.66450800  1
  C  1013  1  0.81481300  0.23845600  0.37173700  1
  C  1014  1  0.79088200  0.26341600  0.37873700  1
  C  1015  1  0.80084100  0.29120000  0.39108300  1
  C  1016  1  0.83579500  0.29680300  0.39643200  1
  C  1017  1  0.86043500  0.27226900  0.38956000  1
  C  1018  1  0.84945500  0.24346000  0.37814800  1
  C  1020  1  0.84611200  0.32877400  0.40567000  1
  C  1021  1  0.83293500  0.36041400  0.39841800  1
  C  1022  1  0.84854900  0.39199800  0.40342100  1
  C  1023  1  0.87916400  0.39383300  0.41520600  1
  C  1024  1  0.88973200  0.36225200  0.42415500  1
  C  1025  1  0.87300000  0.33075100  0.42002600  1
  C  1035  1  0.68677200  0.76344400  0.87165100  1
  C  1036  1  0.71065100  0.73842200  0.87862800  1
  C  1037  1  0.70061800  0.71057600  0.89090600  1
  C  1038  1  0.66563800  0.70497800  0.89619900  1
  C  1039  1  0.64105200  0.72959400  0.88935600  1
  C  1040  1  0.65211500  0.75849100  0.87804800  1
  C  1042  1  0.65521700  0.67296100  0.90533800  1
  C  1043  1  0.66838400  0.64134100  0.89805400  1
  C  1044  1  0.65277000  0.60975500  0.90304400  1
  C  1045  1  0.62223000  0.60786800  0.91488900  1
  C  1046  1  0.61165500  0.63945400  0.92383900  1
  C  1047  1  0.62837800  0.67096800  0.91972100  1
  C  1057  1  0.49398600  0.44909100  0.62363700  1
  C  1058  1  0.46414700  0.47022900  0.62504700  1
  C  1059  1  0.43379500  0.45891500  0.63461800  1
  C  1060  1  0.43220500  0.42619900  0.64392400  1
  C  1061  1  0.46224500  0.40532200  0.64402400  1
  C  1062  1  0.49240400  0.41722400  0.63422700  1
  C  1064  1  0.39961200  0.41169000  0.64900000  1
  C  1065  1  0.37673800  0.40336000  0.63326900  1
  C  1066  1  0.34831400  0.38174800  0.63674000  1
  C  1067  1  0.34101400  0.36743800  0.65598400  1
  C  1068  1  0.36309400  0.37799200  0.67190600  1
  C  1069  1  0.39207300  0.39926100  0.66847200  1
  C  1079  1  0.00790200  0.55270800  0.12360900  1
  C  1080  1  0.03772700  0.53155500  0.12503200  1
  C  1081  1  0.06807700  0.54285300  0.13461300  1
  C  1082  1  0.06965000  0.57557700  0.14390600  1
  C  1083  1  0.03963700  0.59648000  0.14399900  1
  C  1084  1  0.00948500  0.58458800  0.13419100  1
  C  1086  1  0.10224700  0.59004000  0.14902800  1
  C  1087  1  0.12512400  0.59840800  0.13330000  1
  C  1088  1  0.15355300  0.62001300  0.13677600  1
  C  1089  1  0.16082100  0.63436400  0.15601300  1
  C  1090  1  0.13867500  0.62387700  0.17191600  1
  C  1091  1  0.10975600  0.60252500  0.16849300  1
  C  1101  1  0.80456500  0.24466400  0.87010800  1
  C  1102  1  0.78355900  0.21465400  0.87070200  1
  C  1103  1  0.79469000  0.18383600  0.87985200  1
  C  1104  1  0.82706800  0.18191700  0.88953300  1
  C  1105  1  0.84797800  0.21189400  0.89022000  1
  C  1106  1  0.83630900  0.24246200  0.88079400  1
  C  1108  1  0.84102700  0.14927000  0.89498800  1
  C  1109  1  0.84978500  0.12592900  0.87956400  1
  C  1110  1  0.87120400  0.09752500  0.88354400  1
  C  1111  1  0.88497400  0.09080700  0.90299300  1
  C  1112  1  0.87394000  0.11336100  0.91857700  1
  C  1113  1  0.85277700  0.14219700  0.91465600  1
  C  1123  1  0.69717500  0.75713100  0.37006100  1
  C  1124  1  0.71816500  0.78715000  0.37065600  1
  C  1125  1  0.70698800  0.81798200  0.37977000  1
  C  1126  1  0.67458400  0.81991600  0.38942400  1
  C  1127  1  0.65369200  0.78992200  0.39011100  1
  C  1128  1  0.66541800  0.75932700  0.38073600  1
  C  1130  1  0.66055300  0.85254700  0.39485000  1
  C  1131  1  0.65188000  0.87594300  0.37944300  1
  C  1132  1  0.63048400  0.90435900  0.38344200  1
  C  1133  1  0.61670300  0.91104400  0.40289500  1
  C  1134  1  0.62775100  0.88847700  0.41847000  1
  C  1135  1  0.64887800  0.85961900  0.41453400  1
  C  1145  1  0.98832500  0.43514500  0.38033300  1
  C  1146  1  0.01587000  0.45825400  0.37623700  1
  C  1147  1  0.04521000  0.44814600  0.36526700  1
  C  1148  1  0.04826500  0.41435900  0.35749400  1
  C  1149  1  0.02038000  0.39115400  0.36023800  1
  C  1150  1  0.99091700  0.40208500  0.37112400  1
  C  1152  1  0.08134000  0.40194800  0.35158400  1
  C  1153  1  0.10706900  0.39931300  0.36645900  1
  C  1154  1  0.13775500  0.38134300  0.36264500  1
  C  1155  1  0.14490700  0.36550400  0.34378800  1
  C  1156  1  0.11930600  0.36972200  0.32868500  1
  C  1157  1  0.08794500  0.38712200  0.33255800  1
  C  1167  1  0.51309700  0.56607300  0.88015700  1
  C  1168  1  0.48535700  0.54305900  0.87632200  1
  C  1169  1  0.45595500  0.55315700  0.86540600  1
  C  1170  1  0.45313900  0.58677200  0.85736000  1
  C  1171  1  0.48129900  0.60975700  0.85970600  1
  C  1172  1  0.51075100  0.59887300  0.87061500  1
  C  1174  1  0.42008900  0.59939900  0.85155700  1
  C  1175  1  0.39476700  0.60284500  0.86661900  1
  C  1176  1  0.36421600  0.62108400  0.86287700  1
  C  1177  1  0.35687600  0.63657900  0.84394900  1
  C  1178  1  0.38210200  0.63169200  0.82870400  1
  C  1179  1  0.41326200  0.61387700  0.83246700  1
  C  1189  1  0.68212400  0.26220500  0.13402600  1
  C  1190  1  0.70554000  0.23579600  0.12838100  1
  C  1191  1  0.69514800  0.20680000  0.11713700  1
  C  1192  1  0.66025100  0.20163100  0.11151700  1
  C  1193  1  0.63605500  0.22744100  0.11718400  1
  C  1194  1  0.64746900  0.25716200  0.12760600  1
  C  1196  1  0.64943000  0.16935800  0.10289100  1
  C  1197  1  0.66110300  0.13789700  0.11117800  1
  C  1198  1  0.64575200  0.10630500  0.10592100  1
  C  1199  1  0.61703400  0.10417500  0.09261500  1
  C  1200  1  0.60744500  0.13568800  0.08322700  1
  C  1201  1  0.62383300  0.16720900  0.08776300  1
  C  1211  1  0.81979400  0.73965600  0.63404200  1
  C  1212  1  0.79637500  0.76604900  0.62837900  1
  C  1213  1  0.80676400  0.79503000  0.61712100  1
  C  1214  1  0.84167200  0.80023100  0.61153000  1
  C  1215  1  0.86587600  0.77446100  0.61724800  1
  C  1216  1  0.85446000  0.74471500  0.62764400  1
  C  1218  1  0.85250600  0.83250100  0.60290400  1
  C  1219  1  0.84074300  0.86397600  0.61112400  1
  C  1220  1  0.85608600  0.89556000  0.60584600  1
  C  1221  1  0.88484800  0.89767700  0.59257400  1
  C  1222  1  0.89447800  0.86614200  0.58322300  1
  C  1223  1  0.87810100  0.83461800  0.58777400  1
  C  1233  1  0.50712900  0.55668300  0.38129000  1
  C  1234  1  0.53712500  0.53567700  0.38048800  1
  C  1235  1  0.56785400  0.54691800  0.37129400  1
  C  1236  1  0.56973900  0.57945200  0.36178800  1
  C  1237  1  0.53975000  0.60037200  0.36129200  1
  C  1238  1  0.50923800  0.58857600  0.37075100  1
  C  1240  1  0.60238600  0.59346500  0.35635500  1
  C  1241  1  0.62594400  0.60175600  0.37174800  1
  C  1242  1  0.65478600  0.62255200  0.36773200  1
  C  1243  1  0.66179700  0.63611700  0.34826600  1
  C  1244  1  0.63889900  0.62563400  0.33272100  1
  C  1245  1  0.60958700  0.60512700  0.33668100  1
  C  1255  1  0.99466500  0.44512900  0.88125100  1
  C  1256  1  0.96468400  0.46616300  0.88045300  1
  C  1257  1  0.93392400  0.45493500  0.87128400  1
  C  1258  1  0.93201200  0.42238400  0.86180700  1
  C  1259  1  0.96197700  0.40143700  0.86128900  1
  C  1260  1  0.99251200  0.41322300  0.87072600  1
  C  1262  1  0.89934700  0.40842200  0.85635100  1
  C  1263  1  0.87581600  0.40007700  0.87175300  1
  C  1264  1  0.84696600  0.37928000  0.86774500  1
  C  1265  1  0.83995800  0.36568500  0.84828700  1
  C  1266  1  0.86288500  0.37613100  0.83274600  1
  C  1267  1  0.89214000  0.39672400  0.83668700  1
  C  1277  1  0.18928500  0.75597200  0.13255800  1
  C  1278  1  0.21100600  0.78429800  0.12781800  1
  C  1279  1  0.19884800  0.81352700  0.11740200  1
  C  1280  1  0.16376700  0.81678700  0.11173200  1
  C  1281  1  0.14113700  0.78922500  0.11674800  1
  C  1282  1  0.15431300  0.75951600  0.12642300  1
  C  1284  1  0.15097800  0.84863600  0.10357500  1
  C  1285  1  0.15951500  0.88041600  0.11269700  1
  C  1286  1  0.14146700  0.91083000  0.10793100  1
  C  1287  1  0.11312100  0.91121500  0.09429600  1
  C  1288  1  0.10690100  0.87959800  0.08407400  1
  C  1289  1  0.12599300  0.84946500  0.08808900  1
  C  1299  1  0.31260600  0.24580900  0.63256900  1
  C  1300  1  0.29086700  0.21754400  0.62773500  1
  C  1301  1  0.30304200  0.18833300  0.61730900  1
  C  1302  1  0.33816400  0.18500100  0.61174100  1
  C  1303  1  0.36082500  0.21246700  0.61689600  1
  C  1304  1  0.34762700  0.24219100  0.62654600  1
  C  1306  1  0.35096200  0.15317200  0.60355900  1
  C  1307  1  0.34219400  0.12132900  0.61252600  1
  C  1308  1  0.36021600  0.09091200  0.60773100  1
  C  1309  1  0.38874600  0.09059300  0.59423100  1
  C  1310  1  0.39513900  0.12227600  0.58411200  1
  C  1311  1  0.37606200  0.15241800  0.58813500  1
  C  1321  1  0.01363600  0.56320800  0.61912100  1
  C  1322  1  0.98848800  0.53887500  0.62539300  1
  C  1323  1  0.96015700  0.54815000  0.63750900  1
  C  1324  1  0.95429200  0.58279200  0.64339900  1
  C  1325  1  0.97859700  0.60795800  0.63693100  1
  C  1326  1  0.00780700  0.59766500  0.62565900  1
  C  1328  1  0.92244800  0.59250200  0.65295000  1
  C  1329  1  0.89067400  0.58013600  0.64544600  1
  C  1330  1  0.85926800  0.59555600  0.65101800  1
  C  1331  1  0.85785100  0.62516200  0.66366900  1
  C  1332  1  0.88953500  0.63452400  0.67294900  1
  C  1333  1  0.92087900  0.61804100  0.66813400  1
  C  1343  1  0.48826900  0.43858300  0.11907900  1
  C  1344  1  0.51341500  0.46292600  0.12534200  1
  C  1345  1  0.54175100  0.45366800  0.13745800  1
  C  1346  1  0.54762000  0.41902800  0.14334300  1
  C  1347  1  0.52330600  0.39385400  0.13690600  1
  C  1348  1  0.49409400  0.40412900  0.12562800  1
  C  1350  1  0.57944400  0.40935100  0.15292800  1
  C  1351  1  0.61122100  0.42165600  0.14538500  1
  C  1352  1  0.64263400  0.40629500  0.15099900  1
  C  1353  1  0.64407700  0.37670200  0.16366200  1
  C  1354  1  0.61235900  0.36732900  0.17290300  1
  C  1355  1  0.58102100  0.38385900  0.16813600  1
  C  1365  1  0.30981500  0.74813800  0.86939400  1
  C  1366  1  0.29306100  0.75666300  0.88772000  1
  C  1367  1  0.30499100  0.78351600  0.90023400  1
  C  1368  1  0.33472900  0.80259800  0.89509400  1
  C  1369  1  0.35153500  0.79552800  0.87662200  1
  C  1370  1  0.33881200  0.76880000  0.86423600  1
  C  1372  1  0.34626700  0.83049100  0.90721000  1
  C  1373  1  0.33015800  0.86287400  0.90505900  1
  C  1374  1  0.34816700  0.89334500  0.90977200  1
  C  1375  1  0.38319300  0.89283900  0.91628700  1
  C  1376  1  0.39667200  0.85984700  0.92139600  1
  C  1377  1  0.37900700  0.82922100  0.91648900  1
  C  1387  1  0.19172500  0.25403200  0.36933900  1
  C  1388  1  0.20851500  0.24538700  0.38763400  1
  C  1389  1  0.19655700  0.21850100  0.40011500  1
  C  1390  1  0.16671900  0.19955100  0.39500000  1
  C  1391  1  0.14984400  0.20677700  0.37656900  1
  C  1392  1  0.16263000  0.23349700  0.36419600  1
  C  1394  1  0.15526200  0.17150800  0.40703200  1
  C  1395  1  0.17146400  0.13918600  0.40487500  1
  C  1396  1  0.15353100  0.10867800  0.40960600  1
  C  1397  1  0.11853900  0.10909800  0.41618100  1
  C  1398  1  0.10500400  0.14206700  0.42131400  1
  C  1399  1  0.12257000  0.17274400  0.41636900  1
  C  1409  1  0.96855300  0.02360100  0.95124400  1
  C  1410  1  0.99492000  0.99896500  0.95507800  1
  C  1411  1  0.00748700  0.99234900  0.97452400  1
  C  1412  1  0.99398300  0.00992400  0.99135000  1
  C  1413  1  0.96778200  0.03492800  0.98815300  1
  C  1414  1  0.95574300  0.04139400  0.96836600  1
  C  1416  1  0.00602300  0.00116000  0.01096800  1
  C  1417  1  0.04108200  0.00457300  0.01640400  1
  C  1418  1  0.05231600  0.99627000  0.03597800  1
  C  1419  1  0.02939100  0.98388300  0.05104600  1
  C  1420  1  0.99442200  0.97964500  0.04493600  1
  C  1421  1  0.98296700  0.98809800  0.02549100  1
  C  1431  1  0.53317100  0.97818900  0.45120100  1
  C  1432  1  0.50682200  0.00283500  0.45505300  1
  C  1433  1  0.49427800  0.00943300  0.47450600  1
  C  1434  1  0.50778800  0.99183100  0.49131900  1
  C  1435  1  0.53396300  0.96680600  0.48810500  1
  C  1436  1  0.54597900  0.96035800  0.46831100  1
  C  1438  1  0.49577500  0.00057800  0.51094400  1
  C  1439  1  0.46071700  0.99718100  0.51638900  1
  C  1440  1  0.44950400  0.00548800  0.53596600  1
  C  1441  1  0.47244600  0.01787100  0.55102700  1
  C  1442  1  0.50741300  0.02209100  0.54490800  1
  C  1443  1  0.51885000  0.01362900  0.52546000  1
  C  1453  1  0.22931300  0.72059400  0.20218300  1
  C  1454  1  0.25394200  0.74720600  0.20540000  1
  C  1455  1  0.26163500  0.76004200  0.22466600  1
  C  1456  1  0.24504700  0.74674400  0.24188900  1
  C  1457  1  0.21974600  0.72062700  0.23926100  1
  C  1458  1  0.21235600  0.70817600  0.21968400  1
  C  1460  1  0.25481100  0.75888800  0.26134100  1
  C  1461  1  0.25221100  0.79404400  0.26673500  1
  C  1462  1  0.26033900  0.80509200  0.28637800  1
  C  1463  1  0.27148700  0.78182200  0.30159700  1
  C  1464  1  0.27551400  0.74685700  0.29543800  1
  C  1465  1  0.26740900  0.73563700  0.27590400  1
  C  1475  1  0.27249100  0.28123100  0.70216100  1
  C  1476  1  0.24786300  0.25461800  0.70537700  1
  C  1477  1  0.24018600  0.24176000  0.72464000  1
  C  1478  1  0.25676700  0.25506100  0.74186400  1
  C  1479  1  0.28205700  0.28118700  0.73923900  1
  C  1480  1  0.28944500  0.29364400  0.71966200  1
  C  1482  1  0.24700500  0.24290400  0.76131500  1
  C  1483  1  0.24959300  0.20774400  0.76670000  1
  C  1484  1  0.24145500  0.19668400  0.78634000  1
  C  1485  1  0.23030300  0.21994400  0.80156300  1
  C  1486  1  0.22627800  0.25491200  0.79541000  1
  C  1487  1  0.23440000  0.26614700  0.77588100  1
  C  1497  1  0.54090400  0.02264900  0.04795700  1
  C  1498  1  0.51692800  0.99525100  0.04535700  1
  C  1499  1  0.50304800  0.98656000  0.02649800  1
  C  1500  1  0.51275400  0.00464400  0.00897000  1
  C  1501  1  0.53684400  0.03206100  0.01090200  1
  C  1502  1  0.55032000  0.04054900  0.03013600  1
  C  1504  1  0.49822400  0.99471100  0.99007200  1
  C  1505  1  0.46216000  0.99454900  0.98699700  1
  C  1506  1  0.44798100  0.98477900  0.96833700  1
  C  1507  1  0.46881700  0.97429700  0.95182100  1
  C  1508  1  0.50503300  0.97405900  0.95540200  1
  C  1509  1  0.51940800  0.98404300  0.97396900  1
  C  1519  1  0.96105300  0.97916200  0.54793700  1
  C  1520  1  0.98503700  0.00655300  0.54534000  1
  C  1521  1  0.99889000  0.01527100  0.52647700  1
  C  1522  1  0.98915700  0.99722000  0.50894100  1
  C  1523  1  0.96506900  0.96980000  0.51087500  1
  C  1524  1  0.95161300  0.96128700  0.53011000  1
  C  1526  1  0.00366100  0.00718000  0.49003800  1
  C  1527  1  0.03972400  0.00740000  0.48695600  1
  C  1528  1  0.05387500  0.01718200  0.46829000  1
  C  1529  1  0.03301700  0.02761600  0.45177400  1
  C  1530  1  0.99680200  0.02781600  0.45536500  1
  C  1531  1  0.98245600  0.01782000  0.47393800  1
  C  1541  1  0.27607900  0.71360700  0.79822600  1
  C  1542  1  0.24804200  0.73687100  0.79570300  1
  C  1543  1  0.23905800  0.75081700  0.77691800  1
  C  1544  1  0.25746700  0.74187600  0.75937700  1
  C  1545  1  0.28561100  0.71860600  0.76123700  1
  C  1546  1  0.29446800  0.70512500  0.78042400  1
  C  1548  1  0.24692400  0.75621200  0.74054100  1
  C  1549  1  0.24558000  0.79227400  0.73753900  1
  C  1550  1  0.23520400  0.80623800  0.71893200  1
  C  1551  1  0.22527400  0.78516800  0.70240300  1
  C  1552  1  0.22590300  0.74894800  0.70598400  1
  C  1553  1  0.23650900  0.73479600  0.72449100  1
  C  1563  1  0.22573100  0.28824200  0.29816800  1
  C  1564  1  0.25366800  0.26484100  0.29570200  1
  C  1565  1  0.26270900  0.25085800  0.27693600  1
  C  1566  1  0.24448900  0.25993100  0.25934900  1
  C  1567  1  0.21645700  0.28335000  0.26115200  1
  C  1568  1  0.20751700  0.29684000  0.28032400  1
  C  1570  1  0.25509800  0.24557500  0.24052800  1
  C  1571  1  0.25633800  0.20951300  0.23751100  1
  C  1572  1  0.26670700  0.19553600  0.21890700  1
  C  1573  1  0.27670900  0.21659400  0.20238800  1
  C  1574  1  0.27621600  0.25280700  0.20598800  1
  C  1575  1  0.26562800  0.26697300  0.22449300  1
  C  1585  1  0.77034400  0.28406300  0.79996500  1
  C  1586  1  0.74500400  0.25835900  0.79616200  1
  C  1587  1  0.73768700  0.24626800  0.77669700  1
  C  1588  1  0.75526200  0.25955900  0.75981400  1
  C  1589  1  0.78104300  0.28502000  0.76299300  1
  C  1590  1  0.78815400  0.29664100  0.78279400  1
  C  1592  1  0.74610400  0.24771500  0.74020100  1
  C  1593  1  0.74840400  0.21251600  0.73487200  1
  C  1594  1  0.74026300  0.20143400  0.71525100  1
  C  1595  1  0.72926100  0.22468100  0.69998600  1
  C  1596  1  0.72579800  0.25977100  0.70601000  1
  C  1597  1  0.73405500  0.27106100  0.72552700  1
  C  1607  1  0.73145800  0.71769500  0.29993700  1
  C  1608  1  0.75679500  0.74340100  0.29613700  1
  C  1609  1  0.76412300  0.75549200  0.27667400  1
  C  1610  1  0.74656300  0.74219100  0.25978800  1
  C  1611  1  0.72078500  0.71672700  0.26296000  1
  C  1612  1  0.71366300  0.70510900  0.28276300  1
  C  1614  1  0.75572600  0.75404100  0.24017700  1
  C  1615  1  0.75343700  0.78924300  0.23485200  1
  C  1616  1  0.76159600  0.80033200  0.21523400  1
  C  1617  1  0.77260200  0.77708800  0.19996900  1
  C  1618  1  0.77605600  0.74199500  0.20598800  1
  C  1619  1  0.76779400  0.73070200  0.22550500  1
  C  1629  1  0.72419700  0.29323900  0.20432700  1
  C  1630  1  0.75038300  0.26768500  0.20586500  1
  C  1631  1  0.75978700  0.25257900  0.22430200  1
  C  1632  1  0.74360800  0.26246600  0.24242400  1
  C  1633  1  0.71723300  0.28786000  0.24151800  1
  C  1634  1  0.70810900  0.30263400  0.22273400  1
  C  1636  1  0.75443100  0.24719600  0.26096200  1
  C  1637  1  0.75372900  0.21110300  0.26392800  1
  C  1638  1  0.76352200  0.19650400  0.28249200  1
  C  1639  1  0.77471100  0.21694400  0.29901700  1
  C  1640  1  0.77616900  0.25313700  0.29544400  1
  C  1641  1  0.76634500  0.26789700  0.27697600  1
  C  1651  1  0.77766400  0.70860400  0.70432500  1
  C  1652  1  0.75147800  0.73415800  0.70585100  1
  C  1653  1  0.74207200  0.74928600  0.72428200  1
  C  1654  1  0.75824100  0.73941100  0.74241000  1
  C  1655  1  0.78460700  0.71400700  0.74151400  1
  C  1656  1  0.79374000  0.69921600  0.72273700  1
  C  1658  1  0.74740500  0.75469400  0.76093900  1
  C  1659  1  0.74811500  0.79078900  0.76390200  1
  C  1660  1  0.73829300  0.80539900  0.78245700  1
  C  1661  1  0.72706200  0.78496900  0.79897700  1
  C  1662  1  0.72559600  0.74877500  0.79540500  1
  C  1663  1  0.73545900  0.73400300  0.77694800  1
  C  1673  1  0.46868200  0.52178500  0.45150300  1
  C  1674  1  0.49446100  0.49650500  0.45525300  1
  C  1675  1  0.50673400  0.48929800  0.47469900  1
  C  1676  1  0.49356800  0.50695600  0.49159100  1
  C  1677  1  0.46809900  0.53273000  0.48845800  1
  C  1678  1  0.45628200  0.53968800  0.46869100  1
  C  1680  1  0.50549800  0.49797600  0.51120400  1
  C  1681  1  0.54067700  0.50055500  0.51651800  1
  C  1682  1  0.55176300  0.49286000  0.53619800  1
  C  1683  1  0.52853500  0.48208400  0.55153100  1
  C  1684  1  0.49345900  0.47839300  0.54553200  1
  C  1685  1  0.48217200  0.48616500  0.52595400  1
  C  1695  1  0.03314800  0.47998500  0.95146600  1
  C  1696  1  0.00740300  0.50530200  0.95521400  1
  C  1697  1  0.99515300  0.51253900  0.97466100  1
  C  1698  1  0.00831400  0.49488200  0.99155400  1
  C  1699  1  0.03374700  0.46907500  0.98842200  1
  C  1700  1  0.04554100  0.46208500  0.96865600  1
  C  1702  1  0.99638900  0.50387200  0.01116600  1
  C  1703  1  0.96121000  0.50130100  0.01647900  1
  C  1704  1  0.95012900  0.50898000  0.03616100  1
  C  1705  1  0.97336200  0.51973100  0.05149700  1
  C  1706  1  0.00843700  0.52341900  0.04549900  1
  C  1707  1  0.01972100  0.51567000  0.02591600  1
  C  1717  1  0.04100300  0.52417300  0.54772500  1
  C  1718  1  0.01579200  0.49762500  0.54637700  1
  C  1719  1  0.00022700  0.48818900  0.52807300  1
  C  1720  1  0.00933400  0.50471100  0.50992500  1
  C  1721  1  0.03421300  0.53157600  0.51065500  1
  C  1722  1  0.04939600  0.54077000  0.52930800  1
  C  1724  1  0.99423900  0.49344100  0.49145400  1
  C  1725  1  0.95819500  0.49401400  0.48831200  1
  C  1726  1  0.94393700  0.48409200  0.46967500  1
  C  1727  1  0.96471000  0.47292600  0.45328300  1
  C  1728  1  0.00081800  0.47131000  0.45712400  1
  C  1729  1  0.01523900  0.48129700  0.47564200  1
  C  1739  1  0.46080500  0.47774000  0.04771900  1
  C  1740  1  0.48598900  0.50431800  0.04637700  1
  C  1741  1  0.50153100  0.51379400  0.02807300  1
  C  1742  1  0.49241100  0.49729500  0.00991900  1
  C  1743  1  0.46757300  0.47039100  0.01064500  1
  C  1744  1  0.45242100  0.46115600  0.02929700  1
  C  1746  1  0.50746500  0.50859800  0.99144600  1
  C  1747  1  0.54350600  0.50805100  0.98828400  1
  C  1748  1  0.55771500  0.51791400  0.96962300  1
  C  1749  1  0.53689000  0.52896600  0.95322700  1
  C  1750  1  0.50079500  0.53061800  0.95710100  1
  C  1751  1  0.48642600  0.52069600  0.97564100  1
  C  1761  1  0.22834900  0.14261400  0.14598800  1
  C  1762  1  0.22743300  0.10637200  0.14281300  1
  C  1763  1  0.19718300  0.08908200  0.13718400  1
  C  1764  1  0.16591400  0.10709700  0.13434500  1
  C  1765  1  0.16585800  0.14343100  0.13678400  1
  C  1766  1  0.19678300  0.16041200  0.14259300  1
  C  1768  1  0.13625000  0.08759500  0.12877800  1
  C  1769  1  0.12550800  0.05961100  0.14080900  1
  C  1770  1  0.10235100  0.03490700  0.13328600  1
  C  1771  1  0.08896500  0.03659500  0.11339400  1
  C  1772  1  0.09739600  0.06689600  0.10233400  1
  C  1773  1  0.12079500  0.09170500  0.10972700  1
  C  1783  1  0.27357000  0.85919100  0.64602100  1
  C  1784  1  0.27446800  0.89543100  0.64284300  1
  C  1785  1  0.30471200  0.91273500  0.63721600  1
  C  1786  1  0.33599400  0.89473700  0.63438800  1
  C  1787  1  0.33606600  0.85840400  0.63683100  1
  C  1788  1  0.30514600  0.84140700  0.64263100  1
  C  1790  1  0.36565700  0.91423500  0.62881000  1
  C  1791  1  0.37634800  0.94227400  0.64082100  1
  C  1792  1  0.39952700  0.96696900  0.63330200  1
  C  1793  1  0.41287200  0.96526500  0.61340400  1
  C  1794  1  0.40447800  0.93494400  0.60235800  1
  C  1795  1  0.38117500  0.91007700  0.60977900  1
  C  1805  1  0.10758300  0.98074200  0.39500300  1
  C  1806  1  0.14384600  0.97996000  0.39186700  1
  C  1807  1  0.16120100  0.94993500  0.38591500  1
  C  1808  1  0.14323100  0.91876200  0.38268500  1
  C  1809  1  0.10688200  0.91859400  0.38501600  1
  C  1810  1  0.08982200  0.94931100  0.39114000  1
  C  1812  1  0.16289400  0.88916600  0.37721200  1
  C  1813  1  0.19001500  0.87801800  0.38977800  1
  C  1814  1  0.21509500  0.85492400  0.38263400  1
  C  1815  1  0.21460200  0.84191200  0.36263700  1
  C  1816  1  0.18524500  0.85092300  0.35090300  1
  C  1817  1  0.16007200  0.87429600  0.35792300  1
  C  1827  1  0.39423300  0.02113400  0.89503400  1
  C  1828  1  0.35797300  0.02191000  0.89188800  1
  C  1829  1  0.34062200  0.05192000  0.88591000  1
  C  1830  1  0.35859700  0.08308500  0.88266600  1
  C  1831  1  0.39494600  0.08325900  0.88500500  1
  C  1832  1  0.41199900  0.05255400  0.89115100  1
  C  1834  1  0.33891600  0.11267300  0.87720100  1
  C  1835  1  0.31181600  0.12383100  0.88977200  1
  C  1836  1  0.28671100  0.14688000  0.88261300  1
  C  1837  1  0.28718600  0.15985600  0.86260800  1
  C  1838  1  0.31658300  0.15090800  0.85088900  1
  C  1839  1  0.34177600  0.12755400  0.85791600  1
  C  1849  1  0.77550400  0.85851700  0.85579500  1
  C  1850  1  0.77684300  0.89479600  0.85885700  1
  C  1851  1  0.80703000  0.91173400  0.86486900  1
  C  1852  1  0.83787300  0.89330700  0.86821800  1
  C  1853  1  0.83755300  0.85695000  0.86595400  1
  C  1854  1  0.80665300  0.84030700  0.85973200  1
  C  1856  1  0.86743500  0.91265800  0.87403400  1
  C  1857  1  0.87939400  0.93951200  0.86153100  1
  C  1858  1  0.90125400  0.96526800  0.86916300  1
  C  1859  1  0.91216700  0.96567300  0.88957500  1
  C  1860  1  0.90249800  0.93653600  0.90132900  1
  C  1861  1  0.88032100  0.91071400  0.89383000  1
  C  1871  1  0.72614300  0.14340200  0.35579400  1
  C  1872  1  0.72479300  0.10712400  0.35886100  1
  C  1873  1  0.69460100  0.09020100  0.36488000  1
  C  1874  1  0.66376600  0.10864100  0.36822200  1
  C  1875  1  0.66409400  0.14499300  0.36595100  1
  C  1876  1  0.69499900  0.16162400  0.35972500  1
  C  1878  1  0.63419600  0.08931400  0.37404900  1
  C  1879  1  0.62225300  0.06245400  0.36153700  1
  C  1880  1  0.60038300  0.03668900  0.36914500  1
  C  1881  1  0.58954900  0.03622200  0.38957000  1
  C  1882  1  0.59921600  0.06533000  0.40134200  1
  C  1883  1  0.62128000  0.09123900  0.39384000  1
  C  1893  1  0.89573000  0.02809000  0.60773300  1
  C  1894  1  0.86032400  0.02798400  0.61336100  1
  C  1895  1  0.84285700  0.05802400  0.61911500  1
  C  1896  1  0.85990900  0.09013000  0.61968300  1
  C  1897  1  0.89557500  0.09132200  0.61506600  1
  C  1898  1  0.91277100  0.06050500  0.60920300  1
  C  1900  1  0.83976000  0.11958100  0.62465600  1
  C  1901  1  0.81170700  0.12874900  0.61224600  1
  C  1902  1  0.78572000  0.15087700  0.61934500  1
  C  1903  1  0.78615100  0.16466500  0.63916200  1
  C  1904  1  0.81625500  0.15756000  0.65070700  1
  C  1905  1  0.84236700  0.13520300  0.64373900  1
  C  1915  1  0.60622400  0.97372100  0.10774900  1
  C  1916  1  0.64163500  0.97382400  0.11336500  1
  C  1917  1  0.65910000  0.94378200  0.11911400  1
  C  1918  1  0.64204600  0.91167700  0.11968000  1
  C  1919  1  0.60637600  0.91048700  0.11507300  1
  C  1920  1  0.58917800  0.94130900  0.10922100  1
  C  1922  1  0.66220700  0.88222300  0.12462600  1
  C  1923  1  0.69022900  0.87302900  0.11220500  1
  C  1924  1  0.71619800  0.85088700  0.11930900  1
  C  1925  1  0.71576200  0.83711400  0.13912900  1
  C  1926  1  0.68562600  0.84417400  0.15065900  1
  C  1927  1  0.65952800  0.86655500  0.14369300  1
  C  1937  1  0.72986500  0.64293100  0.64407400  1
  C  1938  1  0.72851300  0.60746300  0.63863600  1
  C  1939  1  0.69793100  0.59136100  0.63252300  1
  C  1940  1  0.66666667  0.60989900  0.63142000  1
  C  1941  1  0.66708100  0.64572100  0.63565700  1
  C  1942  1  0.69845800  0.66154900  0.64181100  1
  C  1944  1  0.63643700  0.59094100  0.62650100  1
  C  1945  1  0.62602400  0.56358000  0.63909500  1
  C  1946  1  0.60310300  0.53825100  0.63207700  1
  C  1947  1  0.58956500  0.53875400  0.61220200  1
  C  1948  1  0.59779400  0.56839100  0.60049700  1
  C  1949  1  0.62106300  0.59379300  0.60735800  1
  C  1959  1  0.77206500  0.35889900  0.14409000  1
  C  1960  1  0.77343300  0.39436200  0.13865000  1
  C  1961  1  0.80402100  0.41044300  0.13252500  1
  C  1962  1  0.83524500  0.39188700  0.13142000  1
  C  1963  1  0.83484300  0.35607000  0.13566100  1
  C  1964  1  0.80346000  0.34025800  0.14182200  1
  C  1966  1  0.86551700  0.41081200  0.12647700  1
  C  1967  1  0.87592000  0.43819600  0.13906300  1
  C  1968  1  0.89885900  0.46352000  0.13205300  1
  C  1969  1  0.91232500  0.46304300  0.11216400  1
  C  1970  1  0.90408600  0.43341800  0.10045400  1
  C  1971  1  0.88091400  0.40795000  0.10734100  1
  C  1981  1  0.60865500  0.47864800  0.89619500  1
  C  1982  1  0.64487200  0.47717500  0.89291000  1
  C  1983  1  0.66161900  0.44685300  0.88692200  1
  C  1984  1  0.64302600  0.41604400  0.88378400  1
  C  1985  1  0.60672700  0.41648300  0.88633000  1
  C  1986  1  0.59030300  0.44747300  0.89258800  1
  C  1988  1  0.66209600  0.38639700  0.87780800  1
  C  1989  1  0.68902800  0.37413600  0.89016200  1
  C  1990  1  0.71435800  0.35189400  0.88240700  1
  C  1991  1  0.71429600  0.34097300  0.86199300  1
  C  1992  1  0.68513300  0.35106300  0.85038700  1
  C  1993  1  0.65971100  0.37354700  0.85802300  1
  C  2003  1  0.89290100  0.52290800  0.39616800  1
  C  2004  1  0.85667400  0.52443600  0.39291800  1
  C  2005  1  0.83996100  0.55476800  0.38691400  1
  C  2006  1  0.85859500  0.58553300  0.38371800  1
  C  2007  1  0.89490400  0.58503200  0.38621800  1
  C  2008  1  0.91129500  0.55403200  0.39249000  1
  C  2010  1  0.83954000  0.61521900  0.37777500  1
  C  2011  1  0.81267800  0.62756000  0.39014600  1
  C  2012  1  0.78740300  0.64987400  0.38240200  1
  C  2013  1  0.78746000  0.66078500  0.36198500  1
  C  2014  1  0.81662700  0.65068700  0.35038000  1
  C  2015  1  0.84199800  0.62812300  0.35800200  1
  C  2025  1  0.27530700  0.35714400  0.35609700  1
  C  2026  1  0.27563300  0.39322600  0.35997800  1
  C  2027  1  0.30563600  0.41084300  0.36568600  1
  C  2028  1  0.33728400  0.39331400  0.36790500  1
  C  2029  1  0.33813900  0.35721900  0.36457200  1
  C  2030  1  0.30745300  0.33993500  0.35859000  1
  C  2032  1  0.36651900  0.41316900  0.37370200  1
  C  2033  1  0.37758400  0.44077200  0.36148100  1
  C  2034  1  0.39959700  0.46635700  0.36918900  1
  C  2035  1  0.41125900  0.46601400  0.38946300  1
  C  2036  1  0.40225800  0.43631200  0.40091300  1
  C  2037  1  0.38013000  0.41054600  0.39330500  1
  C  2047  1  0.22656400  0.64475100  0.85620900  1
  C  2048  1  0.22632100  0.60867900  0.86011800  1
  C  2049  1  0.19633800  0.59099200  0.86579000  1
  C  2050  1  0.16463700  0.60844600  0.86795500  1
  C  2051  1  0.16371200  0.64453900  0.86461300  1
  C  2052  1  0.19437200  0.66189000  0.85866000  1
  C  2054  1  0.13542500  0.58856100  0.87374000  1
  C  2055  1  0.12444100  0.56091600  0.86151500  1
  C  2056  1  0.10234900  0.53536000  0.86917900  1
  C  2057  1  0.09066300  0.53569800  0.88944800  1
  C  2058  1  0.09960900  0.56540000  0.90090500  1
  C  2059  1  0.12167300  0.59122200  0.89330800  1
  C  2069  1  0.39065600  0.52633100  0.10586300  1
  C  2070  1  0.35470200  0.52756200  0.11007700  1
  C  2071  1  0.33804600  0.55792500  0.11605400  1
  C  2072  1  0.35645500  0.58907400  0.11824400  1
  C  2073  1  0.39258100  0.58886300  0.11497700  1
  C  2074  1  0.40893300  0.55776700  0.10881000  1
  C  2076  1  0.33732000  0.61882000  0.12397700  1
  C  2077  1  0.30967300  0.63004800  0.11182300  1
  C  2078  1  0.28406000  0.65189300  0.11965200  1
  C  2079  1  0.28457100  0.66345100  0.13994500  1
  C  2080  1  0.31446700  0.65456400  0.15125800  1
  C  2081  1  0.34015500  0.63244900  0.14356100  1
  C  2091  1  0.11120400  0.47542500  0.60580700  1
  C  2092  1  0.14716900  0.47416500  0.60999100  1
  C  2093  1  0.16382000  0.44379700  0.61596400  1
  C  2094  1  0.14539700  0.41266300  0.61818000  1
  C  2095  1  0.10926500  0.41289300  0.61492800  1
  C  2096  1  0.09291900  0.44399600  0.60876600  1
  C  2098  1  0.16454400  0.38290900  0.62389100  1
  C  2099  1  0.19216500  0.37164800  0.61173500  1
  C  2100  1  0.21778100  0.34982600  0.61958100  1
  C  2101  1  0.21727800  0.33831700  0.63988200  1
  C  2102  1  0.18734800  0.34716300  0.65117900  1
  C  2103  1  0.16165700  0.36927600  0.64347100  1
  N  724  1  0.96359000  0.86445900  0.14926800  1
  N  746  1  0.53833800  0.13737800  0.64920900  1
  N  768  1  0.38157000  0.71182600  0.40170100  1
  N  790  1  0.12018000  0.28986800  0.90164900  1
  N  812  1  0.52955000  0.85341200  0.85717800  1
  N  834  1  0.97225700  0.14834400  0.35701300  1
  N  856  1  0.10820400  0.72401700  0.60549900  1
  N  878  1  0.39384100  0.27788900  0.10566100  1
  N  900  1  0.04033000  0.13533100  0.85259700  1
  N  922  1  0.46140600  0.86674100  0.35239800  1
  N  944  1  0.61707300  0.29185500  0.59990500  1
  N  966  1  0.88487100  0.70992300  0.09993500  1
  N  988  1  0.43758400  0.13055200  0.11859000  1
  N  1010  1  0.06426700  0.87113700  0.61861300  1
  N  1032  1  0.89632100  0.27769000  0.39250200  1
  N  1054  1  0.60515000  0.72418700  0.89223900  1
  N  1076  1  0.46107800  0.37182100  0.65260600  1
  N  1098  1  0.04080900  0.62997900  0.15258200  1
  N  1120  1  0.88123700  0.21041600  0.89911000  1
  N  1142  1  0.62039700  0.79140400  0.39895300  1
  N  1164  1  0.02342400  0.35654800  0.35350700  1
  N  1186  1  0.47859900  0.64412600  0.85253400  1
  N  1208  1  0.60016800  0.22262300  0.11390500  1
  N  1230  1  0.90177000  0.77933400  0.61402000  1
  N  1252  1  0.54119300  0.63373200  0.35253700  1
  N  1274  1  0.96049200  0.36807500  0.85254300  1
  N  1296  1  0.10502200  0.79215200  0.11353700  1
  N  1318  1  0.39696900  0.20943700  0.61382600  1
  N  1340  1  0.97263400  0.64365900  0.64028500  1
  N  1362  1  0.52926600  0.35815800  0.14028900  1
  N  1384  1  0.38057100  0.81539300  0.87066100  1
  N  1406  1  0.12069900  0.18706400  0.37062200  1
  N  1428  1  0.95459200  0.05368800  0.00475300  1
  N  1450  1  0.54715100  0.94801200  0.50469100  1
  N  1472  1  0.20152800  0.70792000  0.25619700  1
  N  1494  1  0.30027800  0.29388900  0.75617600  1
  N  1516  1  0.54620900  0.05134000  0.99364500  1
  N  1538  1  0.95567800  0.95054200  0.49361400  1
  N  1560  1  0.30508400  0.70995400  0.74393100  1
  N  1582  1  0.19718000  0.29216300  0.24380000  1
  N  1604  1  0.79998600  0.29782600  0.74636200  1
  N  1626  1  0.70186000  0.70390900  0.24632700  1
  N  1648  1  0.69952600  0.29733800  0.25932700  1
  N  1670  1  0.80230100  0.70454100  0.75933000  1
  N  1692  1  0.45547200  0.55182800  0.50507900  1
  N  1714  1  0.04636600  0.44997700  0.00504600  1
  N  1736  1  0.04290600  0.54952300  0.49278800  1
  N  1758  1  0.45890000  0.45244400  0.99277500  1
  N  1780  1  0.13465900  0.16181400  0.13399900  1
  N  1802  1  0.36727500  0.84002800  0.63405400  1
  N  1824  1  0.08859200  0.88746500  0.38181400  1
  N  1846  1  0.41323100  0.11439000  0.88180000  1
  N  1868  1  0.86837200  0.83828600  0.86940300  1
  N  1890  1  0.63328500  0.16367300  0.36940200  1
  N  1912  1  0.91284100  0.12346600  0.61579700  1
  N  1934  1  0.58911800  0.87834100  0.11578700  1
  N  1956  1  0.63584800  0.66449200  0.63433800  1
  N  1978  1  0.86605900  0.33727400  0.13433300  1
  N  2000  1  0.58788400  0.38571300  0.88306700  1
  N  2022  1  0.91378800  0.61576400  0.38291600  1
  N  2044  1  0.36983800  0.33948900  0.36676400  1
  N  2066  1  0.13196900  0.66220500  0.86677200  1
  N  2088  1  0.41125400  0.61996900  0.11736800  1
  N  2110  1  0.09058600  0.38179200  0.61732100  1
  O  725  1  0.98543400  0.86072200  0.16306100  1
  O  726  1  0.96918300  0.84228200  0.13586300  1
  O  747  1  0.51649400  0.14113000  0.66300100  1
  O  748  1  0.53275500  0.15955400  0.63580400  1
  O  769  1  0.38448700  0.73274100  0.41603700  1
  O  770  1  0.40469500  0.71808200  0.38895400  1
  O  791  1  0.11721900  0.26894700  0.91597900  1
  O  792  1  0.09709200  0.28362100  0.88887800  1
  O  813  1  0.50522200  0.84011600  0.84734900  1
  O  814  1  0.53345700  0.83691000  0.87329500  1
  O  835  1  0.99657200  0.16155200  0.34713300  1
  O  836  1  0.96843200  0.16493600  0.37310700  1
  O  857  1  0.09662000  0.74801100  0.59471100  1
  O  858  1  0.08998000  0.72161300  0.62108000  1
  O  879  1  0.40555400  0.25392200  0.09489700  1
  O  880  1  0.41194500  0.28032300  0.12128600  1
  O  901  1  0.01882500  0.13885400  0.83860500  1
  O  902  1  0.03499100  0.15827800  0.86559200  1
  O  923  1  0.48286100  0.86337200  0.33836800  1
  O  924  1  0.46685000  0.84370900  0.36532800  1
  O  945  1  0.61385900  0.27043400  0.58584400  1
  O  946  1  0.59431200  0.28596800  0.61292800  1
  O  967  1  0.88813900  0.73134500  0.08587800  1
  O  968  1  0.90759900  0.71580300  0.11298200  1
  O  989  1  0.45633900  0.15685800  0.11687800  1
  O  990  1  0.42255400  0.12520700  0.10214100  1
  O  1011  1  0.04548000  0.84485500  0.61690800  1
  O  1012  1  0.07931300  0.87644400  0.60216400  1
  O  1033  1  0.91015700  0.25328000  0.40200200  1
  O  1034  1  0.91212600  0.28197200  0.37618000  1
  O  1055  1  0.59130200  0.74854000  0.90178100  1
  O  1056  1  0.58940700  0.72005400  0.87588400  1
  O  1077  1  0.48285100  0.36855500  0.66647700  1
  O  1078  1  0.46622300  0.34869300  0.63969300  1
  O  1099  1  0.01902300  0.63325100  0.16644600  1
  O  1100  1  0.03568600  0.65310900  0.13966900  1
  O  1121  1  0.88408400  0.23158700  0.91332600  1
  O  1122  1  0.90472100  0.21612900  0.88650100  1
  O  1143  1  0.61750100  0.77027100  0.41318400  1
  O  1144  1  0.59696800  0.78564800  0.38631700  1
  O  1165  1  0.99984500  0.34885800  0.34133700  1
  O  1166  1  0.02275300  0.33553400  0.36790500  1
  O  1187  1  0.50208300  0.65099500  0.84013500  1
  O  1188  1  0.47978700  0.66570200  0.86663400  1
  O  1209  1  0.58742800  0.24630200  0.10331900  1
  O  1210  1  0.58361500  0.22066500  0.13012300  1
  O  1231  1  0.91459900  0.75566700  0.60345900  1
  O  1232  1  0.91824900  0.78132700  0.63026400  1
  O  1253  1  0.51992200  0.63675200  0.33838600  1
  O  1254  1  0.53556100  0.65705800  0.36525600  1
  O  1275  1  0.98173600  0.36503500  0.83837600  1
  O  1276  1  0.96613700  0.34475200  0.86526100  1
  O  1297  1  0.09369500  0.76853400  0.10237300  1
  O  1298  1  0.08838500  0.79198200  0.12976500  1
  O  1319  1  0.40850700  0.23306500  0.60274300  1
  O  1320  1  0.41341100  0.20948300  0.63012100  1
  O  1341  1  0.99668100  0.65746600  0.65010800  1
  O  1342  1  0.96850700  0.65998000  0.62412400  1
  O  1363  1  0.50521700  0.34438500  0.15012600  1
  O  1364  1  0.53337500  0.34179900  0.12414000  1
  O  1385  1  0.40705100  0.79698200  0.86861400  1
  O  1386  1  0.37507800  0.83124400  0.85449300  1
  O  1407  1  0.09428800  0.20560200  0.36865200  1
  O  1408  1  0.12603800  0.17128000  0.35441400  1
  O  1429  1  0.92266000  0.04915100  0.00678200  1
  O  1430  1  0.96032500  0.08547000  0.00300000  1
  O  1451  1  0.57908800  0.95252200  0.50671300  1
  O  1452  1  0.54138700  0.91623800  0.50292600  1
  O  1473  1  0.20581900  0.67598300  0.25838800  1
  O  1474  1  0.16974200  0.71395200  0.25484800  1
  O  1495  1  0.29598500  0.32582600  0.75837100  1
  O  1496  1  0.33206500  0.28786200  0.75482500  1
  O  1517  1  0.57813300  0.04982600  0.99041100  1
  O  1518  1  0.53759500  0.08248100  0.99530800  1
  O  1539  1  0.92374900  0.95206200  0.49039700  1
  O  1540  1  0.96429200  0.91940000  0.49526100  1
  O  1561  1  0.30437400  0.67803800  0.74057900  1
  O  1562  1  0.33599900  0.71932900  0.74561800  1
  O  1583  1  0.19812100  0.32408200  0.24047300  1
  O  1584  1  0.16619400  0.28297900  0.24539000  1
  O  1605  1  0.79640100  0.32990200  0.74447200  1
  O  1606  1  0.83160100  0.29110400  0.74795100  1
  O  1627  1  0.70546000  0.67183300  0.24444200  1
  O  1628  1  0.67024300  0.71061800  0.24790700  1
  O  1649  1  0.70267300  0.32901400  0.26298000  1
  O  1650  1  0.66794300  0.29016500  0.25826800  1
  O  1671  1  0.79914700  0.67287000  0.76299100  1
  O  1672  1  0.83388500  0.71170700  0.75827600  1
  O  1693  1  0.42340800  0.54829200  0.50709200  1
  O  1694  1  0.46221400  0.58342200  0.50338500  1
  O  1715  1  0.07843500  0.45347700  0.00705000  1
  O  1716  1  0.03958700  0.41839100  0.00336300  1
  O  1737  1  0.07451600  0.54689000  0.48882200  1
  O  1738  1  0.03527900  0.58098200  0.49398300  1
  O  1759  1  0.42728300  0.45502500  0.98881600  1
  O  1760  1  0.46658400  0.42099800  0.99395900  1
  O  1781  1  0.13754100  0.18389600  0.12026600  1
  O  1782  1  0.12549200  0.17682900  0.14986800  1
  O  1803  1  0.36441000  0.81794100  0.62032400  1
  O  1804  1  0.37643800  0.82502400  0.64992700  1
  O  1825  1  0.06665200  0.89078200  0.36803900  1
  O  1826  1  0.07342400  0.87775000  0.39752200  1
  O  1847  1  0.43518600  0.11106400  0.86803500  1
  O  1848  1  0.42837700  0.12412300  0.89751200  1
  O  1869  1  0.86451100  0.81654400  0.88323700  1
  O  1870  1  0.87811600  0.82280600  0.85380700  1
  O  1891  1  0.63716200  0.18541500  0.38323200  1
  O  1892  1  0.62354100  0.17915400  0.35380500  1
  O  1913  1  0.93723300  0.12278900  0.62823600  1
  O  1914  1  0.92469400  0.13162500  0.59886900  1
  O  1935  1  0.56472600  0.87899400  0.12822700  1
  O  1936  1  0.57726300  0.87020200  0.09885600  1
  O  1957  1  0.63818400  0.68847100  0.62169900  1
  O  1958  1  0.62760900  0.67719400  0.65104400  1
  O  1979  1  0.86369800  0.31330000  0.12169200  1
  O  1980  1  0.87430400  0.32456700  0.15103500  1
  O  2001  1  0.56590000  0.38957700  0.86936400  1
  O  2002  1  0.57265800  0.37612900  0.89878200  1
  O  2023  1  0.93572800  0.61183300  0.36919500  1
  O  2024  1  0.92907700  0.62535300  0.39861000  1
  O  2045  1  0.36774800  0.31648500  0.38002200  1
  O  2046  1  0.37903300  0.32571000  0.35052400  1
  O  2067  1  0.13397400  0.68520300  0.88003800  1
  O  2068  1  0.12279600  0.67597000  0.85052700  1
  O  2089  1  0.43413800  0.61694900  0.13063400  1
  O  2090  1  0.42536000  0.62900800  0.10119400  1
  O  2111  1  0.06771500  0.38481700  0.63059600  1
  O  2112  1  0.07646200  0.37276300  0.60115200  1
