# generated using pymatgen
data_H17C20(N2O)2
_symmetry_space_group_name_H-M   'P 1'
_cell_length_a   54.41200000
_cell_length_b   54.41200000
_cell_length_c   54.41200000
_cell_angle_alpha   90.00000000
_cell_angle_beta   90.00000000
_cell_angle_gamma   90.00000000
_symmetry_Int_Tables_number   1
_chemical_formula_structural   H17C20(N2O)2
_chemical_formula_sum   'H816 C960 N192 O96'
_cell_volume   161095.74446253
_cell_formula_units_Z   48
loop_
 _symmetry_equiv_pos_site_id
 _symmetry_equiv_pos_as_xyz
  1  'x, y, z'
loop_
 _atom_site_type_symbol
 _atom_site_label
 _atom_site_symmetry_multiplicity
 _atom_site_fract_x
 _atom_site_fract_y
 _atom_site_fract_z
 _atom_site_occupancy
  H  7  1  0.31122700  0.32757500  0.03688200  1
  H  16  1  0.32649600  0.31180400  0.96329400  1
  H  19  1  0.34663600  0.36916100  0.96738300  1
  H  20  1  0.36934800  0.34549200  0.03277500  1
  H  21  1  0.27686100  0.40999900  0.02071600  1
  H  22  1  0.40727200  0.27394700  0.97958800  1
  H  27  1  0.34681700  0.26242900  0.94877900  1
  H  28  1  0.30804900  0.40497700  0.96372200  1
  H  29  1  0.27553100  0.34369000  0.05978100  1
  H  30  1  0.40363300  0.30607400  0.03624300  1
  H  37  1  0.68909900  0.67375500  0.03767400  1
  H  46  1  0.67464800  0.68978100  0.96360800  1
  H  49  1  0.65546100  0.63250100  0.96718100  1
  H  50  1  0.63154000  0.65568000  0.03272500  1
  H  51  1  0.72461300  0.59183000  0.02117900  1
  H  52  1  0.59325100  0.72671800  0.97936800  1
  H  57  1  0.65450200  0.73817700  0.94830700  1
  H  58  1  0.69419400  0.59713200  0.96399400  1
  H  59  1  0.73556900  0.65374500  0.05450500  1
  H  60  1  0.59690600  0.69498900  0.03604700  1
  H  67  1  0.68952000  0.32707100  0.96307400  1
  H  76  1  0.67432100  0.31126000  0.03667500  1
  H  79  1  0.65615400  0.36930800  0.03308700  1
  H  80  1  0.63213900  0.34696200  0.96769000  1
  H  81  1  0.72712900  0.40791900  0.97968600  1
  H  82  1  0.59185200  0.27681000  0.02090000  1
  H  87  1  0.65843300  0.27549600  0.05953700  1
  H  88  1  0.69548400  0.40373000  0.03651400  1
  H  89  1  0.73826100  0.34716900  0.94803800  1
  H  90  1  0.59641800  0.30832700  0.96403800  1
  H  97  1  0.31190200  0.67400500  0.96353300  1
  H  106  1  0.32632800  0.68990100  0.03756000  1
  H  109  1  0.34558200  0.63256000  0.03390100  1
  H  110  1  0.36952100  0.65581100  0.96848400  1
  H  111  1  0.27632100  0.59211000  0.97980300  1
  H  112  1  0.40774400  0.72685000  0.02192600  1
  H  117  1  0.34644500  0.73831800  0.05286500  1
  H  118  1  0.30682200  0.59718200  0.03699800  1
  H  119  1  0.26507000  0.65380700  0.94693900  1
  H  120  1  0.40417000  0.69509400  0.96522600  1
  H  127  1  0.03699100  0.31118100  0.32758000  1
  H  136  1  0.96338400  0.32649400  0.31181100  1
  H  139  1  0.96749500  0.34662900  0.36913500  1
  H  140  1  0.03292700  0.36929700  0.34543500  1
  H  141  1  0.02080300  0.27687300  0.41002100  1
  H  142  1  0.97972800  0.40725000  0.27392600  1
  H  147  1  0.94883200  0.34680900  0.26246000  1
  H  148  1  0.96381400  0.30805100  0.40496900  1
  H  149  1  0.05987200  0.27547000  0.34373300  1
  H  150  1  0.03640900  0.40355600  0.30599700  1
  H  157  1  0.03758800  0.68922600  0.67376400  1
  H  166  1  0.96353500  0.67486500  0.68979600  1
  H  169  1  0.96708700  0.65561200  0.63249600  1
  H  170  1  0.03256200  0.63164300  0.65565600  1
  H  171  1  0.02116200  0.72471100  0.59181400  1
  H  172  1  0.97919100  0.59345300  0.72674500  1
  H  177  1  0.94826800  0.65472100  0.73824500  1
  H  178  1  0.96396100  0.69431700  0.59709400  1
  H  179  1  0.05444700  0.73568600  0.65374500  1
  H  180  1  0.03585000  0.59700900  0.69495500  1
  H  187  1  0.96323200  0.68939900  0.32705300  1
  H  196  1  0.03686100  0.67412600  0.31124200  1
  H  199  1  0.03326200  0.65605000  0.36927300  1
  H  200  1  0.96780800  0.63206000  0.34694300  1
  H  201  1  0.97986400  0.72699300  0.40790800  1
  H  202  1  0.02098100  0.59164700  0.27684900  1
  H  207  1  0.05974400  0.65816300  0.27552400  1
  H  208  1  0.03670200  0.69537700  0.40368100  1
  H  209  1  0.94814300  0.73807700  0.34711400  1
  H  210  1  0.96413000  0.59631300  0.30832300  1
  H  217  1  0.96352700  0.31192000  0.67402000  1
  H  226  1  0.03755600  0.32637300  0.68986900  1
  H  229  1  0.03384600  0.34565300  0.63253600  1
  H  230  1  0.96844200  0.36954900  0.65583600  1
  H  231  1  0.97975400  0.27638000  0.59209900  1
  H  232  1  0.02193300  0.40777600  0.72683700  1
  H  237  1  0.05287000  0.34653000  0.73831100  1
  H  238  1  0.03694100  0.30691200  0.59714400  1
  H  239  1  0.94694300  0.26508500  0.65381500  1
  H  240  1  0.96520000  0.40418800  0.69511800  1
  H  247  1  0.32751600  0.03768500  0.31208000  1
  H  256  1  0.31116300  0.96366300  0.32612300  1
  H  259  1  0.36842200  0.96695700  0.34567500  1
  H  260  1  0.34535000  0.03239100  0.36978200  1
  H  261  1  0.40955300  0.02114500  0.27689600  1
  H  262  1  0.27374600  0.97914500  0.40730900  1
  H  267  1  0.26191100  0.94896800  0.34663600  1
  H  268  1  0.40399500  0.96384900  0.30710700  1
  H  269  1  0.34781500  0.05452700  0.26565600  1
  H  270  1  0.30585300  0.03570100  0.40421900  1
  H  277  1  0.67384900  0.03766300  0.68923700  1
  H  286  1  0.68976100  0.96359500  0.67477900  1
  H  289  1  0.63243900  0.96724500  0.65563400  1
  H  290  1  0.65565400  0.03272000  0.63168400  1
  H  291  1  0.59195200  0.02127800  0.72488400  1
  H  292  1  0.72660700  0.97929400  0.59332100  1
  H  297  1  0.73810300  0.94824800  0.65461400  1
  H  298  1  0.59711600  0.96411200  0.69440000  1
  H  299  1  0.65379300  0.05457900  0.73587600  1
  H  300  1  0.69491400  0.03598800  0.59699100  1
  H  307  1  0.32683000  0.96321100  0.68958300  1
  H  316  1  0.31133500  0.03680100  0.67410800  1
  H  319  1  0.36947300  0.03293700  0.65614900  1
  H  320  1  0.34696700  0.96758900  0.63223700  1
  H  321  1  0.40753100  0.97971100  0.72759300  1
  H  322  1  0.27706000  0.02087300  0.59158000  1
  H  327  1  0.27570700  0.05973400  0.65808000  1
  H  328  1  0.40371800  0.03638800  0.69560100  1
  H  329  1  0.34692300  0.94852200  0.73877600  1
  H  330  1  0.30843000  0.96397200  0.59638600  1
  H  337  1  0.67393300  0.96364000  0.31189000  1
  H  346  1  0.68985300  0.03766400  0.32633200  1
  H  349  1  0.63252200  0.03402000  0.34557800  1
  H  350  1  0.65576500  0.96857600  0.36950300  1
  H  351  1  0.59204900  0.97996900  0.27630100  1
  H  352  1  0.72682100  0.02199400  0.40772600  1
  H  357  1  0.73831100  0.05293300  0.34649300  1
  H  358  1  0.59716000  0.03715700  0.30681600  1
  H  359  1  0.65373600  0.94704800  0.26507200  1
  H  360  1  0.69506300  0.96528400  0.40413300  1
  H  367  1  0.81712800  0.83275300  0.53683300  1
  H  376  1  0.83234100  0.81706400  0.46413600  1
  H  379  1  0.85228600  0.87613700  0.46792600  1
  H  380  1  0.87631700  0.85220500  0.53266500  1
  H  381  1  0.78035100  0.91389100  0.52113800  1
  H  382  1  0.91315800  0.77953900  0.47974300  1
  H  387  1  0.85453500  0.76513400  0.45281500  1
  H  388  1  0.81253700  0.91225900  0.46618900  1
  H  389  1  0.76589300  0.85475400  0.54883100  1
  H  390  1  0.91200800  0.81210300  0.53460600  1
  H  397  1  0.18368300  0.16792000  0.53706500  1
  H  406  1  0.16860800  0.18415000  0.46415500  1
  H  409  1  0.14871900  0.12542400  0.46754000  1
  H  410  1  0.12470200  0.14907000  0.53271100  1
  H  411  1  0.21998400  0.08662200  0.52071200  1
  H  412  1  0.08789300  0.22186800  0.48008700  1
  H  417  1  0.14664900  0.23590500  0.45292400  1
  H  418  1  0.18830000  0.08903200  0.46576100  1
  H  419  1  0.23405100  0.14625600  0.54950700  1
  H  420  1  0.08915500  0.18929100  0.53481700  1
  H  427  1  0.18530100  0.83198300  0.46360300  1
  H  436  1  0.16904600  0.81715200  0.53637600  1
  H  439  1  0.15031200  0.87643300  0.53190100  1
  H  440  1  0.12648600  0.85240900  0.46699800  1
  H  441  1  0.22346000  0.91244100  0.47912400  1
  H  442  1  0.08748500  0.78133100  0.52029300  1
  H  447  1  0.14735300  0.76692600  0.54905100  1
  H  448  1  0.19082400  0.91190700  0.53369400  1
  H  449  1  0.23773400  0.85455200  0.45282800  1
  H  450  1  0.08983800  0.81303300  0.46536600  1
  H  457  1  0.81653100  0.16886100  0.46443600  1
  H  466  1  0.83169100  0.18446700  0.53723400  1
  H  469  1  0.85194200  0.12560400  0.53330100  1
  H  470  1  0.87581500  0.14986200  0.46853400  1
  H  471  1  0.78039500  0.08741000  0.47993400  1
  H  472  1  0.91225600  0.22252800  0.52162700  1
  H  477  1  0.85347600  0.23630800  0.54857900  1
  H  478  1  0.81240500  0.08922000  0.53499200  1
  H  479  1  0.76558600  0.14655700  0.45253900  1
  H  480  1  0.91147300  0.19025800  0.46703800  1
  H  487  1  0.53685000  0.81715500  0.83266700  1
  H  496  1  0.46413600  0.83249900  0.81704900  1
  H  499  1  0.46800500  0.85232600  0.87613100  1
  H  500  1  0.53277900  0.87628900  0.85221000  1
  H  501  1  0.52116600  0.78031300  0.91377600  1
  H  502  1  0.47972300  0.91342100  0.77981800  1
  H  507  1  0.45301200  0.85485800  0.76528800  1
  H  508  1  0.46624400  0.81253900  0.91220600  1
  H  509  1  0.54882000  0.76587100  0.85467300  1
  H  510  1  0.53470700  0.91208800  0.81221700  1
  H  517  1  0.53716800  0.18409200  0.16786300  1
  H  526  1  0.46440800  0.16916300  0.18423100  1
  H  529  1  0.46766100  0.14907100  0.12535800  1
  H  530  1  0.53269100  0.12498900  0.14892000  1
  H  531  1  0.52069700  0.22056700  0.08666600  1
  H  532  1  0.48016400  0.08844300  0.22196200  1
  H  537  1  0.45316100  0.14731800  0.23615900  1
  H  538  1  0.46588800  0.18871700  0.08895500  1
  H  539  1  0.54958800  0.23471500  0.14608800  1
  H  540  1  0.53492400  0.08953700  0.18912400  1
  H  547  1  0.46360900  0.18519100  0.83206600  1
  H  556  1  0.53635500  0.16900100  0.81713000  1
  H  559  1  0.53197800  0.15023700  0.87643600  1
  H  560  1  0.46708200  0.12637000  0.85250600  1
  H  561  1  0.47921900  0.22335700  0.91252200  1
  H  562  1  0.52029500  0.08743900  0.78131600  1
  H  567  1  0.54890800  0.14726400  0.76681500  1
  H  568  1  0.53375500  0.19073700  0.91193400  1
  H  569  1  0.45280600  0.23756700  0.85452200  1
  H  570  1  0.46537700  0.08975100  0.81312900  1
  H  577  1  0.46422100  0.81697000  0.16859600  1
  H  586  1  0.53692500  0.83214500  0.18435800  1
  H  589  1  0.53318700  0.85218800  0.12535200  1
  H  590  1  0.46840900  0.87617400  0.14926900  1
  H  591  1  0.47991600  0.78043200  0.08737500  1
  H  592  1  0.52131800  0.91293000  0.22194900  1
  H  597  1  0.54805500  0.85409200  0.23614600  1
  H  598  1  0.53495100  0.81251500  0.08914600  1
  H  599  1  0.45241600  0.76587500  0.14647600  1
  H  600  1  0.46654900  0.91187300  0.18942500  1
  H  607  1  0.83270200  0.53694700  0.81711100  1
  H  616  1  0.81700500  0.46428700  0.83228300  1
  H  619  1  0.87608700  0.46807100  0.85233300  1
  H  620  1  0.85212600  0.53276400  0.87635600  1
  H  621  1  0.91385100  0.52125600  0.78036400  1
  H  622  1  0.77938400  0.47982400  0.91305100  1
  H  627  1  0.76499100  0.45301700  0.85448200  1
  H  628  1  0.91222400  0.46630300  0.81259200  1
  H  629  1  0.85475200  0.54887100  0.76583800  1
  H  630  1  0.81199900  0.53470700  0.91198700  1
  H  637  1  0.16794700  0.53699300  0.18384700  1
  H  646  1  0.18402400  0.46410500  0.16848300  1
  H  649  1  0.12525200  0.46764100  0.14878900  1
  H  650  1  0.14895700  0.53288400  0.12490900  1
  H  651  1  0.08681900  0.52053500  0.22049200  1
  H  652  1  0.22154300  0.48025800  0.08770800  1
  H  657  1  0.23555400  0.45244000  0.14663300  1
  H  658  1  0.08899800  0.46575700  0.18857200  1
  H  659  1  0.14624700  0.54939100  0.23453400  1
  H  660  1  0.18908500  0.53502100  0.08925500  1
  H  667  1  0.83209100  0.46358100  0.18519600  1
  H  676  1  0.81719200  0.53635700  0.16898100  1
  H  679  1  0.87646400  0.53193700  0.15023000  1
  H  680  1  0.85248400  0.46701800  0.12639000  1
  H  681  1  0.91256400  0.47918400  0.22333700  1
  H  682  1  0.78136000  0.52027400  0.08742300  1
  H  687  1  0.76695900  0.54901300  0.14731900  1
  H  688  1  0.91196700  0.53372000  0.19072800  1
  H  689  1  0.85455300  0.45275600  0.23755200  1
  H  690  1  0.81309900  0.46535700  0.08976100  1
  H  697  1  0.16882100  0.46447400  0.81649000  1
  H  706  1  0.18442800  0.53726700  0.83167100  1
  H  709  1  0.12556900  0.53332900  0.85192500  1
  H  710  1  0.14982300  0.46855600  0.87577700  1
  H  711  1  0.08736400  0.47997300  0.78037500  1
  H  712  1  0.22248600  0.52163800  0.91223400  1
  H  717  1  0.23626600  0.54861000  0.85346000  1
  H  718  1  0.08917900  0.53503000  0.81239900  1
  H  719  1  0.14649800  0.45258900  0.76554200  1
  H  720  1  0.19021700  0.46705700  0.91143800  1
  H  731  1  0.43004600  0.26703100  0.87551900  1
  H  732  1  0.40410400  0.29213800  0.90024600  1
  H  735  1  0.35876100  0.20712500  0.98154600  1
  H  736  1  0.36833900  0.17676000  0.97666200  1
  H  737  1  0.32562800  0.20258200  0.95016800  1
  H  738  1  0.32304100  0.18009500  0.97359100  1
  H  739  1  0.33507300  0.17184400  0.94447800  1
  H  742  1  0.39856100  0.15158600  0.91687200  1
  H  743  1  0.37719800  0.15118900  0.94095700  1
  H  744  1  0.41152500  0.15975500  0.97117600  1
  H  745  1  0.43277500  0.15975900  0.94638400  1
  H  746  1  0.41661000  0.13253900  0.95404200  1
  H  759  1  0.56946200  0.73548100  0.87678200  1
  H  760  1  0.59556300  0.70981200  0.90077700  1
  H  763  1  0.64499300  0.79336500  0.98085800  1
  H  764  1  0.63451200  0.82363200  0.97734100  1
  H  765  1  0.67694200  0.79962400  0.94869600  1
  H  766  1  0.67981100  0.82140800  0.97274000  1
  H  767  1  0.66676200  0.83032300  0.94427600  1
  H  770  1  0.60462500  0.85029500  0.91781500  1
  H  771  1  0.62526800  0.85014400  0.94251700  1
  H  772  1  0.59023000  0.84143100  0.97166400  1
  H  773  1  0.56953400  0.84201900  0.94639700  1
  H  774  1  0.58577300  0.86896200  0.95484600  1
  H  787  1  0.56678800  0.26585300  0.12167000  1
  H  788  1  0.59262800  0.29217400  0.09806800  1
  H  791  1  0.65085400  0.20986300  0.02338700  1
  H  792  1  0.63923200  0.17986300  0.02497400  1
  H  793  1  0.68043000  0.20159900  0.05711800  1
  H  794  1  0.68426200  0.18059500  0.03252300  1
  H  795  1  0.66932600  0.17104100  0.05981500  1
  H  798  1  0.61299500  0.15186700  0.08537800  1
  H  799  1  0.62835400  0.15245200  0.05707900  1
  H  800  1  0.58842300  0.15889300  0.03500900  1
  H  801  1  0.57265100  0.15737000  0.06359400  1
  H  802  1  0.58875400  0.13136500  0.05242900  1
  H  815  1  0.43149500  0.73554300  0.12440900  1
  H  816  1  0.40535000  0.70989600  0.10043600  1
  H  819  1  0.35574300  0.79345700  0.02052300  1
  H  820  1  0.36649400  0.82365400  0.02384200  1
  H  821  1  0.32395000  0.80013000  0.05273300  1
  H  822  1  0.32118300  0.82181800  0.02859000  1
  H  823  1  0.33437300  0.83077000  0.05697500  1
  H  826  1  0.39618400  0.85041500  0.08344900  1
  H  827  1  0.37584900  0.85026600  0.05849600  1
  H  828  1  0.41116800  0.84144100  0.02977500  1
  H  829  1  0.43159700  0.84204100  0.05526000  1
  H  830  1  0.41549400  0.86899300  0.04659100  1
  H  843  1  0.87561300  0.43006500  0.26703500  1
  H  844  1  0.90036300  0.40414900  0.29215000  1
  H  847  1  0.98159900  0.35872600  0.20713600  1
  H  848  1  0.97672900  0.36832700  0.17677400  1
  H  849  1  0.95023300  0.32559200  0.20256200  1
  H  850  1  0.97366500  0.32302200  0.18008300  1
  H  851  1  0.94455200  0.33504900  0.17182700  1
  H  854  1  0.91688000  0.39843400  0.15158700  1
  H  855  1  0.94102100  0.37713500  0.15119600  1
  H  856  1  0.97115300  0.41154100  0.15972600  1
  H  857  1  0.94630900  0.43273300  0.15972200  1
  H  858  1  0.95399600  0.41656600  0.13251200  1
  H  871  1  0.87674200  0.56965500  0.73547700  1
  H  872  1  0.90066600  0.59584000  0.70983000  1
  H  875  1  0.98077500  0.64524100  0.79337200  1
  H  876  1  0.97734200  0.63465700  0.82361400  1
  H  877  1  0.94855800  0.67710200  0.79979700  1
  H  878  1  0.97264100  0.67995200  0.82154100  1
  H  879  1  0.94422300  0.66681700  0.83047200  1
  H  882  1  0.91789800  0.60462300  0.85031000  1
  H  883  1  0.94258000  0.62529000  0.85017000  1
  H  884  1  0.97174600  0.59030500  0.84132300  1
  H  885  1  0.94650400  0.56958200  0.84190400  1
  H  886  1  0.95498000  0.58576200  0.86887200  1
  H  899  1  0.12182300  0.56653600  0.26571700  1
  H  900  1  0.09821000  0.59231900  0.29208800  1
  H  903  1  0.02342700  0.65056400  0.20987100  1
  H  904  1  0.02511600  0.63909000  0.17981900  1
  H  905  1  0.05711000  0.68026100  0.20182500  1
  H  906  1  0.03255900  0.68413200  0.18077700  1
  H  907  1  0.05991000  0.66929800  0.17122500  1
  H  910  1  0.08547200  0.61270600  0.15181300  1
  H  911  1  0.05735100  0.62838300  0.15243400  1
  H  912  1  0.03483500  0.58869300  0.15885300  1
  H  913  1  0.06324300  0.57260300  0.15733200  1
  H  914  1  0.05225800  0.58882900  0.13132600  1
  H  927  1  0.12447400  0.43151700  0.73529300  1
  H  928  1  0.10046300  0.40533300  0.70972200  1
  H  931  1  0.02053000  0.35603300  0.79349000  1
  H  932  1  0.02400100  0.36669500  0.82370000  1
  H  933  1  0.05274500  0.32418400  0.79995000  1
  H  934  1  0.02868900  0.32139000  0.82173000  1
  H  935  1  0.05712300  0.33453600  0.83059500  1
  H  938  1  0.08354700  0.39667000  0.85025700  1
  H  939  1  0.05881000  0.37606900  0.85019000  1
  H  940  1  0.02971600  0.41111100  0.84135600  1
  H  941  1  0.05501000  0.43177600  0.84186300  1
  H  942  1  0.04654600  0.41564700  0.86886600  1
  H  955  1  0.26702400  0.87533700  0.42963800  1
  H  956  1  0.29196500  0.90007600  0.40354700  1
  H  959  1  0.20659900  0.98141300  0.35882500  1
  H  960  1  0.17626100  0.97638500  0.36841300  1
  H  961  1  0.20215900  0.95003400  0.32566300  1
  H  962  1  0.17957300  0.97336400  0.32311600  1
  H  963  1  0.17145600  0.94421000  0.33514300  1
  H  966  1  0.15139600  0.91667200  0.39896300  1
  H  967  1  0.15084600  0.94064100  0.37747200  1
  H  968  1  0.15954700  0.97105000  0.41161700  1
  H  969  1  0.15970400  0.94635700  0.43298100  1
  H  970  1  0.13238600  0.95389700  0.41692600  1
  H  983  1  0.73547300  0.87687000  0.56942900  1
  H  984  1  0.70978600  0.90078600  0.59558500  1
  H  987  1  0.79326600  0.98077400  0.64526500  1
  H  988  1  0.82351600  0.97736400  0.63469800  1
  H  989  1  0.79967400  0.94852700  0.67709300  1
  H  990  1  0.82140800  0.97261400  0.67998900  1
  H  991  1  0.83036000  0.94421200  0.66683400  1
  H  994  1  0.85026400  0.91790700  0.60472600  1
  H  995  1  0.85009100  0.94262400  0.62535000  1
  H  996  1  0.84131900  0.97173900  0.59031000  1
  H  997  1  0.84193500  0.94646500  0.56962200  1
  H  998  1  0.86887200  0.95495900  0.58584500  1
  H  1011  1  0.26539300  0.12171400  0.56649000  1
  H  1012  1  0.29193500  0.09813900  0.59214300  1
  H  1015  1  0.21016500  0.02332000  0.65092900  1
  H  1016  1  0.18010400  0.02479400  0.63944700  1
  H  1017  1  0.20192200  0.05703900  0.68052400  1
  H  1018  1  0.18102800  0.03236900  0.68447200  1
  H  1019  1  0.17130200  0.05961900  0.66956900  1
  H  1022  1  0.15178900  0.08517700  0.61353700  1
  H  1023  1  0.15252900  0.05677400  0.62869700  1
  H  1024  1  0.15874900  0.03498800  0.58857900  1
  H  1025  1  0.15704300  0.06367500  0.57300900  1
  H  1026  1  0.13118200  0.05233800  0.58922400  1
  H  1039  1  0.73532400  0.12454200  0.43147600  1
  H  1040  1  0.70974200  0.10054500  0.40529100  1
  H  1043  1  0.79346200  0.02056200  0.35600200  1
  H  1044  1  0.82367200  0.02400800  0.36667200  1
  H  1045  1  0.79995900  0.05276500  0.32415100  1
  H  1046  1  0.82172100  0.02869100  0.32136600  1
  H  1047  1  0.83060500  0.05711900  0.33451000  1
  H  1050  1  0.85026900  0.08355000  0.39662200  1
  H  1051  1  0.85018700  0.05879500  0.37604400  1
  H  1052  1  0.84133200  0.02973600  0.41110700  1
  H  1053  1  0.84185600  0.05504700  0.43175200  1
  H  1054  1  0.86885400  0.04655200  0.41563000  1
  H  1067  1  0.26631100  0.43448300  0.12266700  1
  H  1068  1  0.29248700  0.40908200  0.09845900  1
  H  1071  1  0.20968500  0.35220700  0.02327500  1
  H  1072  1  0.17956900  0.36339700  0.02560400  1
  H  1073  1  0.20231200  0.32174700  0.05643700  1
  H  1074  1  0.18096200  0.31822700  0.03209400  1
  H  1075  1  0.17167300  0.33242300  0.05987100  1
  H  1078  1  0.15212800  0.38912900  0.08653400  1
  H  1079  1  0.15254400  0.37331100  0.05849300  1
  H  1080  1  0.15874400  0.41291000  0.03573300  1
  H  1081  1  0.15750100  0.42912900  0.06408200  1
  H  1082  1  0.13137900  0.41287400  0.05341200  1
  H  1095  1  0.73565500  0.56725700  0.12387300  1
  H  1096  1  0.70923600  0.59277700  0.10002500  1
  H  1099  1  0.79118900  0.64530700  0.02046300  1
  H  1100  1  0.82163200  0.63520900  0.02355800  1
  H  1101  1  0.79735300  0.67717200  0.05268300  1
  H  1102  1  0.81882200  0.68046900  0.02841300  1
  H  1103  1  0.82824500  0.66744200  0.05672100  1
  H  1106  1  0.84945500  0.60678800  0.08325700  1
  H  1107  1  0.84865000  0.62651000  0.05783200  1
  H  1108  1  0.84083400  0.59036200  0.02994200  1
  H  1109  1  0.84213000  0.57049700  0.05584900  1
  H  1110  1  0.86855000  0.58723600  0.04676100  1
  H  1123  1  0.26661700  0.56932800  0.87546400  1
  H  1124  1  0.29254600  0.59451200  0.90015400  1
  H  1127  1  0.20925700  0.64245100  0.98154400  1
  H  1128  1  0.17866900  0.63343300  0.97698800  1
  H  1129  1  0.20499700  0.67576000  0.95034800  1
  H  1130  1  0.18282800  0.67869200  0.97403200  1
  H  1131  1  0.17402000  0.66694600  0.94496700  1
  H  1134  1  0.15220800  0.60479300  0.91695000  1
  H  1135  1  0.15255600  0.62553400  0.94156900  1
  H  1136  1  0.16030700  0.59030700  0.97088400  1
  H  1137  1  0.15954400  0.56963100  0.94561600  1
  H  1138  1  0.13285000  0.58639600  0.95381800  1
  H  1151  1  0.73501900  0.43142800  0.87592900  1
  H  1152  1  0.70951600  0.40559000  0.90035900  1
  H  1155  1  0.79354500  0.35813600  0.98125300  1
  H  1156  1  0.82390900  0.36803600  0.97702400  1
  H  1157  1  0.79886400  0.32536500  0.94968700  1
  H  1158  1  0.82096200  0.32271200  0.97346800  1
  H  1159  1  0.82963200  0.33503400  0.94460500  1
  H  1162  1  0.85001600  0.39746200  0.91714100  1
  H  1163  1  0.85001800  0.37672000  0.94176000  1
  H  1164  1  0.84158200  0.41174500  0.97108100  1
  H  1165  1  0.84199700  0.43247000  0.94584000  1
  H  1166  1  0.86898400  0.41618700  0.95405700  1
  H  1179  1  0.43113600  0.87629500  0.73534300  1
  H  1180  1  0.40515700  0.90061700  0.70986900  1
  H  1183  1  0.35745400  0.98133400  0.79394200  1
  H  1184  1  0.36753300  0.97724700  0.82427000  1
  H  1185  1  0.32496100  0.94952700  0.79947400  1
  H  1186  1  0.32222300  0.97333200  0.82153700  1
  H  1187  1  0.33480800  0.94458100  0.83020800  1
  H  1190  1  0.39747800  0.91757400  0.85036700  1
  H  1191  1  0.37650100  0.94199500  0.85041600  1
  H  1192  1  0.41122700  0.97163200  0.84180400  1
  H  1193  1  0.43218200  0.94658300  0.84216800  1
  H  1194  1  0.41593200  0.95468400  0.86921000  1
  H  1207  1  0.56886500  0.87596200  0.26652000  1
  H  1208  1  0.59416400  0.90049500  0.29248100  1
  H  1211  1  0.64302100  0.98139100  0.20937100  1
  H  1212  1  0.63349400  0.97727100  0.17887100  1
  H  1213  1  0.67595900  0.94997300  0.20432200  1
  H  1214  1  0.67880400  0.97386200  0.18236300  1
  H  1215  1  0.66666667  0.94498700  0.17341400  1
  H  1218  1  0.60514500  0.91715000  0.15211600  1
  H  1219  1  0.62542200  0.94215000  0.15251300  1
  H  1220  1  0.58977000  0.97082200  0.16036900  1
  H  1221  1  0.56948200  0.94523400  0.15953600  1
  H  1222  1  0.58610700  0.95377800  0.13286100  1
  H  1235  1  0.56750700  0.12400800  0.73561800  1
  H  1236  1  0.59310400  0.10013900  0.70929500  1
  H  1239  1  0.64488300  0.02024100  0.79151000  1
  H  1240  1  0.63504100  0.02363300  0.82200500  1
  H  1241  1  0.67689600  0.05244300  0.79719500  1
  H  1242  1  0.68027600  0.02833000  0.81883000  1
  H  1243  1  0.66737100  0.05673900  0.82812000  1
  H  1246  1  0.60587300  0.08309900  0.84952700  1
  H  1247  1  0.62633000  0.05825300  0.84882700  1
  H  1248  1  0.59092200  0.02936500  0.84087800  1
  H  1249  1  0.57039800  0.05475300  0.84203000  1
  H  1250  1  0.58722800  0.04613300  0.86855000  1
  H  1263  1  0.43306400  0.12511000  0.26669300  1
  H  1264  1  0.40787700  0.10056100  0.29275000  1
  H  1267  1  0.35798000  0.02024300  0.20980800  1
  H  1268  1  0.36766300  0.02416900  0.17933100  1
  H  1269  1  0.32520600  0.05175300  0.20451200  1
  H  1270  1  0.32234000  0.02778500  0.18264200  1
  H  1271  1  0.33456900  0.05657700  0.17361300  1
  H  1274  1  0.39542500  0.08450600  0.15238100  1
  H  1275  1  0.37566300  0.05910300  0.15286200  1
  H  1276  1  0.41184300  0.03111100  0.16046100  1
  H  1277  1  0.43167600  0.05705300  0.15952400  1
  H  1278  1  0.41503100  0.04824700  0.13294800  1
  H  1291  1  0.87546200  0.26665200  0.56932400  1
  H  1292  1  0.90013700  0.29257500  0.59452600  1
  H  1295  1  0.98149600  0.20928300  0.64251000  1
  H  1296  1  0.97697300  0.17870300  0.63344400  1
  H  1297  1  0.95026800  0.20495800  0.67577700  1
  H  1298  1  0.97396300  0.18280200  0.67870600  1
  H  1299  1  0.94491600  0.17399000  0.66691800  1
  H  1302  1  0.91695100  0.15223300  0.60475900  1
  H  1303  1  0.94156200  0.15257600  0.62550900  1
  H  1304  1  0.97088800  0.16035700  0.59029900  1
  H  1305  1  0.94562700  0.15960000  0.56961300  1
  H  1306  1  0.95383300  0.13289800  0.58636500  1
  H  1319  1  0.87615200  0.73506700  0.43148700  1
  H  1320  1  0.90056900  0.70949700  0.40570100  1
  H  1323  1  0.98127900  0.79336500  0.35776600  1
  H  1324  1  0.97723200  0.82370400  0.36782100  1
  H  1325  1  0.94966300  0.79896300  0.32511600  1
  H  1326  1  0.97353800  0.82096200  0.32248400  1
  H  1327  1  0.94474300  0.82971500  0.33490900  1
  H  1330  1  0.91726900  0.84999900  0.39699500  1
  H  1331  1  0.94207400  0.84993700  0.37647700  1
  H  1332  1  0.97108300  0.84151800  0.41173400  1
  H  1333  1  0.94568200  0.84200700  0.43226500  1
  H  1334  1  0.95406400  0.86895300  0.41600000  1
  H  1347  1  0.12304800  0.26649100  0.43427300  1
  H  1348  1  0.09870800  0.29259300  0.40892600  1
  H  1351  1  0.02317900  0.20956900  0.35277900  1
  H  1352  1  0.02577900  0.17941900  0.36381500  1
  H  1353  1  0.05615900  0.20251400  0.32203000  1
  H  1354  1  0.03191800  0.18103300  0.31860800  1
  H  1355  1  0.05985300  0.17185600  0.33256600  1
  H  1358  1  0.08672900  0.15217800  0.38977800  1
  H  1359  1  0.05898400  0.15254900  0.37345000  1
  H  1360  1  0.03552000  0.15885700  0.41264200  1
  H  1361  1  0.06358400  0.15772600  0.42935500  1
  H  1362  1  0.05323000  0.13151700  0.41303400  1
  H  1375  1  0.12389400  0.73565900  0.56732500  1
  H  1376  1  0.10000600  0.70927500  0.59284300  1
  H  1379  1  0.02042600  0.79133000  0.64520800  1
  H  1380  1  0.02359000  0.82177600  0.63513700  1
  H  1381  1  0.05261900  0.79741700  0.67711800  1
  H  1382  1  0.02838100  0.81892500  0.68039900  1
  H  1383  1  0.05672100  0.82830700  0.66741300  1
  H  1386  1  0.08331300  0.84951200  0.60668600  1
  H  1387  1  0.05793200  0.84874000  0.62646800  1
  H  1388  1  0.02995600  0.84093000  0.59037700  1
  H  1389  1  0.05582600  0.84218700  0.57046000  1
  H  1390  1  0.04679600  0.86862800  0.58719900  1
  H  1403  1  0.53752400  0.73300300  0.08659700  1
  H  1404  1  0.56461800  0.71151000  0.05971200  1
  H  1407  1  0.64482600  0.80205400  0.02622000  1
  H  1408  1  0.63491600  0.83179700  0.03359100  1
  H  1409  1  0.66606800  0.79758100  0.06622700  1
  H  1410  1  0.67689100  0.82350500  0.04975400  1
  H  1411  1  0.65673700  0.82757600  0.07496200  1
  H  1414  1  0.60267500  0.84391600  0.09613300  1
  H  1415  1  0.61932100  0.85093700  0.06941400  1
  H  1416  1  0.57998700  0.85690400  0.04608000  1
  H  1417  1  0.56327600  0.85151200  0.07364200  1
  H  1418  1  0.58308200  0.87722100  0.07136300  1
  H  1431  1  0.46312500  0.26818700  0.08665400  1
  H  1432  1  0.43593700  0.28963100  0.05983700  1
  H  1435  1  0.35565100  0.19900900  0.02669100  1
  H  1436  1  0.36575000  0.16927600  0.03385400  1
  H  1437  1  0.33466300  0.20320500  0.06685100  1
  H  1438  1  0.32384400  0.17731300  0.05032700  1
  H  1439  1  0.34417200  0.17321000  0.07538800  1
  H  1442  1  0.39816600  0.15711900  0.09629600  1
  H  1443  1  0.38161000  0.15005000  0.06953000  1
  H  1444  1  0.42103200  0.14430800  0.04627900  1
  H  1445  1  0.43764400  0.14971200  0.07389900  1
  H  1446  1  0.41795000  0.12392700  0.07151200  1
  H  1459  1  0.46352600  0.73305600  0.91460600  1
  H  1460  1  0.43642900  0.71158000  0.94150100  1
  H  1463  1  0.35639000  0.80221400  0.97515000  1
  H  1464  1  0.36632300  0.83194800  0.96777500  1
  H  1465  1  0.33508600  0.79778100  0.93517200  1
  H  1466  1  0.32431600  0.82370900  0.95166800  1
  H  1467  1  0.34443800  0.82776700  0.92643500  1
  H  1470  1  0.39850900  0.84405600  0.90520400  1
  H  1471  1  0.38189500  0.85108200  0.93194100  1
  H  1472  1  0.42125800  0.85699200  0.95524300  1
  H  1473  1  0.43794000  0.85159300  0.92766400  1
  H  1474  1  0.41816500  0.87732400  0.92997200  1
  H  1487  1  0.53768400  0.27022000  0.91224800  1
  H  1488  1  0.56467800  0.29193000  0.93910800  1
  H  1491  1  0.64174900  0.20057100  0.97728400  1
  H  1492  1  0.63196100  0.17087200  0.96961400  1
  H  1493  1  0.66477600  0.20463100  0.93816700  1
  H  1494  1  0.67464500  0.17869800  0.95521700  1
  H  1495  1  0.65552200  0.17467300  0.92920200  1
  H  1498  1  0.60103800  0.15816900  0.90652700  1
  H  1499  1  0.61749600  0.15158600  0.93345700  1
  H  1500  1  0.57801900  0.14634100  0.95671500  1
  H  1501  1  0.56144600  0.15141800  0.92900900  1
  H  1502  1  0.58099500  0.12555600  0.93180100  1
  H  1515  1  0.08645800  0.53763500  0.73287300  1
  H  1516  1  0.05954400  0.56473200  0.71142700  1
  H  1519  1  0.02612900  0.64487700  0.80205800  1
  H  1520  1  0.03352700  0.63494900  0.83178800  1
  H  1521  1  0.06613200  0.66612100  0.79756200  1
  H  1522  1  0.04968300  0.67692700  0.82350700  1
  H  1523  1  0.07489500  0.65677200  0.82754300  1
  H  1526  1  0.09607800  0.60269400  0.84383000  1
  H  1527  1  0.06937000  0.61934100  0.85088300  1
  H  1528  1  0.04603000  0.58001100  0.85684300  1
  H  1529  1  0.07358200  0.56329300  0.85141600  1
  H  1530  1  0.07133100  0.58308400  0.87714200  1
  H  1543  1  0.08680000  0.46301700  0.26803300  1
  H  1544  1  0.05998800  0.43585200  0.28951300  1
  H  1547  1  0.02673900  0.35553000  0.19895800  1
  H  1548  1  0.03389700  0.36560300  0.16921600  1
  H  1549  1  0.06688700  0.33451800  0.20315200  1
  H  1550  1  0.05034400  0.32369100  0.17727600  1
  H  1551  1  0.07541700  0.34399900  0.17314700  1
  H  1554  1  0.09635900  0.39795600  0.15701500  1
  H  1555  1  0.06957300  0.38142700  0.14996200  1
  H  1556  1  0.04636800  0.42087200  0.14419500  1
  H  1557  1  0.07400800  0.43745500  0.14958000  1
  H  1558  1  0.07159400  0.41774200  0.12381200  1
  H  1571  1  0.91466000  0.46359800  0.73309300  1
  H  1572  1  0.94153200  0.43648600  0.71161100  1
  H  1575  1  0.97516800  0.35643800  0.80224300  1
  H  1576  1  0.96780600  0.36637500  0.83197800  1
  H  1577  1  0.93517700  0.33515400  0.79781800  1
  H  1578  1  0.95167300  0.32437700  0.82374400  1
  H  1579  1  0.92645100  0.34451200  0.82780600  1
  H  1582  1  0.90526100  0.39860800  0.84410700  1
  H  1583  1  0.93198300  0.38196700  0.85112000  1
  H  1584  1  0.95532900  0.42130200  0.85702200  1
  H  1585  1  0.92776700  0.43801500  0.85163100  1
  H  1586  1  0.93006200  0.41823800  0.87736500  1
  H  1599  1  0.91232200  0.53760300  0.27020700  1
  H  1600  1  0.93920600  0.56457500  0.29191500  1
  H  1603  1  0.97732200  0.64171300  0.20058600  1
  H  1604  1  0.96963500  0.63194100  0.17088600  1
  H  1605  1  0.93821100  0.66473700  0.20468400  1
  H  1606  1  0.95524400  0.67462100  0.17874800  1
  H  1607  1  0.92922600  0.65550200  0.17472600  1
  H  1610  1  0.90653300  0.60104000  0.15820500  1
  H  1611  1  0.93346400  0.61749200  0.15161400  1
  H  1612  1  0.95670400  0.57801000  0.14632700  1
  H  1613  1  0.92899500  0.56144400  0.15141300  1
  H  1614  1  0.93177700  0.58100900  0.12556200  1
  H  1627  1  0.73287300  0.08655800  0.53760000  1
  H  1628  1  0.71140700  0.05965200  0.56469100  1
  H  1631  1  0.80202300  0.02613100  0.64480900  1
  H  1632  1  0.83175500  0.03351600  0.63488500  1
  H  1633  1  0.79755100  0.06612500  0.66607500  1
  H  1634  1  0.82348700  0.04965500  0.67687200  1
  H  1635  1  0.82753700  0.07487500  0.65673000  1
  H  1638  1  0.84384400  0.09606700  0.60264400  1
  H  1639  1  0.85087400  0.06935300  0.61929300  1
  H  1640  1  0.85681600  0.04600700  0.57996300  1
  H  1641  1  0.85140900  0.07356200  0.56324500  1
  H  1642  1  0.87713500  0.07129100  0.58303400  1
  H  1655  1  0.26781400  0.08637800  0.46346500  1
  H  1656  1  0.28932900  0.05952000  0.43636500  1
  H  1659  1  0.19901100  0.02660600  0.35564900  1
  H  1660  1  0.16924800  0.03386800  0.36558400  1
  H  1661  1  0.20344600  0.06674400  0.33467200  1
  H  1662  1  0.17756000  0.05030000  0.32371900  1
  H  1663  1  0.17342800  0.07538300  0.34401400  1
  H  1666  1  0.15712600  0.09636300  0.39790800  1
  H  1667  1  0.15005200  0.06961300  0.38133100  1
  H  1668  1  0.14401000  0.04640900  0.42073600  1
  H  1669  1  0.14941900  0.07402000  0.43735900  1
  H  1670  1  0.12373600  0.07171300  0.41752300  1
  H  1683  1  0.73304000  0.91469500  0.46350800  1
  H  1684  1  0.71155800  0.94158200  0.43640900  1
  H  1687  1  0.80216800  0.97520100  0.35632900  1
  H  1688  1  0.83190400  0.96784300  0.36626400  1
  H  1689  1  0.79774600  0.93520700  0.33505300  1
  H  1690  1  0.82366900  0.95170700  0.32427000  1
  H  1691  1  0.82773600  0.92648600  0.34440700  1
  H  1694  1  0.84403400  0.90528700  0.39847400  1
  H  1695  1  0.85105200  0.93202200  0.38185500  1
  H  1696  1  0.85695900  0.95533300  0.42121000  1
  H  1697  1  0.85156700  0.92775600  0.43789900  1
  H  1698  1  0.87729800  0.93006600  0.41812100  1
  H  1711  1  0.27029900  0.91226700  0.53758900  1
  H  1712  1  0.29200700  0.93914500  0.56456600  1
  H  1715  1  0.20067600  0.97724300  0.64170700  1
  H  1716  1  0.17097500  0.96954300  0.63194600  1
  H  1717  1  0.20480000  0.93813600  0.66473300  1
  H  1718  1  0.17885800  0.95515800  0.67462500  1
  H  1719  1  0.17484300  0.92913600  0.65550900  1
  H  1722  1  0.15829300  0.90645900  0.60099900  1
  H  1723  1  0.15171500  0.93336300  0.61750100  1
  H  1724  1  0.14641400  0.95667400  0.57806500  1
  H  1725  1  0.15149500  0.92899800  0.56144400  1
  H  1726  1  0.12564900  0.93174200  0.58102200  1
  H  1739  1  0.73251200  0.53743200  0.91396500  1
  H  1740  1  0.71090300  0.56444700  0.94084500  1
  H  1743  1  0.80137200  0.64438300  0.97517200  1
  H  1744  1  0.83113900  0.63450100  0.96786700  1
  H  1745  1  0.79707000  0.66583200  0.93525100  1
  H  1746  1  0.82293400  0.67655800  0.95188100  1
  H  1747  1  0.82709400  0.65652700  0.92658900  1
  H  1750  1  0.84356900  0.60242000  0.90530000  1
  H  1751  1  0.85042600  0.61905800  0.93206400  1
  H  1752  1  0.85624100  0.57972500  0.95543000  1
  H  1753  1  0.85099400  0.56301000  0.92784400  1
  H  1754  1  0.87670500  0.58279900  0.93026500  1
  H  1767  1  0.26972700  0.46353500  0.91191000  1
  H  1768  1  0.29150700  0.43672100  0.93889000  1
  H  1771  1  0.20045700  0.35926100  0.97704100  1
  H  1772  1  0.17072800  0.36895500  0.96937200  1
  H  1773  1  0.20458000  0.33622200  0.93793900  1
  H  1774  1  0.17869100  0.32628100  0.95501100  1
  H  1775  1  0.17458600  0.34536500  0.92898200  1
  H  1778  1  0.15800300  0.39952700  0.90613600  1
  H  1779  1  0.15138800  0.38329900  0.93320100  1
  H  1780  1  0.14597300  0.42298700  0.95607000  1
  H  1781  1  0.15104200  0.43930000  0.92821000  1
  H  1782  1  0.12524800  0.41968500  0.93114700  1
  H  1795  1  0.73355100  0.46293400  0.08708500  1
  H  1796  1  0.71205000  0.43598300  0.06008300  1
  H  1799  1  0.80248200  0.35568600  0.02644100  1
  H  1800  1  0.83223500  0.36560300  0.03376100  1
  H  1801  1  0.79809500  0.33440600  0.06643300  1
  H  1802  1  0.82398700  0.32360700  0.04989300  1
  H  1803  1  0.82810700  0.34372900  0.07511700  1
  H  1806  1  0.84440900  0.39759900  0.09641300  1
  H  1807  1  0.85143800  0.38113300  0.06958500  1
  H  1808  1  0.85737800  0.42062600  0.04651100  1
  H  1809  1  0.85199900  0.43714600  0.07419000  1
  H  1810  1  0.87770800  0.41735800  0.07176100  1
  H  1823  1  0.26853600  0.53748000  0.08701600  1
  H  1824  1  0.29010500  0.56449400  0.06010600  1
  H  1827  1  0.19980000  0.64499900  0.02663000  1
  H  1828  1  0.17002900  0.63511500  0.03392800  1
  H  1829  1  0.20422100  0.66617600  0.06667300  1
  H  1830  1  0.17834900  0.67705800  0.05016000  1
  H  1831  1  0.17419600  0.65688200  0.07533500  1
  H  1834  1  0.15777900  0.60294900  0.09647500  1
  H  1835  1  0.15079300  0.61952300  0.06970000  1
  H  1836  1  0.14480200  0.58012000  0.04648400  1
  H  1837  1  0.15014400  0.56349100  0.07410600  1
  H  1838  1  0.12446400  0.58332700  0.07173700  1
  H  1851  1  0.53750800  0.08726400  0.26858000  1
  H  1852  1  0.56449600  0.06031600  0.29012900  1
  H  1855  1  0.64476700  0.02656700  0.19971900  1
  H  1856  1  0.63490500  0.03393000  0.16995900  1
  H  1857  1  0.66607100  0.06654200  0.20418300  1
  H  1858  1  0.67689800  0.05002600  0.17829000  1
  H  1859  1  0.65679600  0.07526600  0.17416900  1
  H  1862  1  0.60280000  0.09651800  0.15772900  1
  H  1863  1  0.61940000  0.06975600  0.15076100  1
  H  1864  1  0.58002800  0.04649500  0.14477700  1
  H  1865  1  0.56336200  0.07409500  0.15012100  1
  H  1866  1  0.58319300  0.07174900  0.12443400  1
  H  1879  1  0.46288600  0.08704200  0.73358400  1
  H  1880  1  0.43588900  0.06006600  0.71211100  1
  H  1883  1  0.35562000  0.02653800  0.80260000  1
  H  1884  1  0.36558300  0.03382400  0.83234500  1
  H  1885  1  0.33439100  0.06656100  0.79826600  1
  H  1886  1  0.32359900  0.05002000  0.82415900  1
  H  1887  1  0.34376200  0.07521300  0.82827100  1
  H  1890  1  0.39768600  0.09642700  0.84451700  1
  H  1891  1  0.38118000  0.06962200  0.85155000  1
  H  1892  1  0.42064000  0.04647800  0.85743100  1
  H  1893  1  0.43720300  0.07413200  0.85204800  1
  H  1894  1  0.41744100  0.07172200  0.87778000  1
  H  1907  1  0.46374300  0.91382700  0.26885000  1
  H  1908  1  0.43676200  0.94077900  0.29041400  1
  H  1911  1  0.35682500  0.97500500  0.19989100  1
  H  1912  1  0.36672000  0.96766300  0.17013900  1
  H  1913  1  0.33536700  0.93509400  0.20423400  1
  H  1914  1  0.32465200  0.95170100  0.17835100  1
  H  1915  1  0.34467400  0.92640000  0.17422100  1
  H  1918  1  0.39864000  0.90500000  0.15785100  1
  H  1919  1  0.38214900  0.93183200  0.15089900  1
  H  1920  1  0.42161800  0.95496500  0.14504400  1
  H  1921  1  0.43817100  0.92729500  0.15036600  1
  H  1922  1  0.41840200  0.92976500  0.12464400  1
  H  1935  1  0.53732600  0.91421900  0.73272200  1
  H  1936  1  0.56437900  0.94106200  0.71112000  1
  H  1939  1  0.64454800  0.97502100  0.80152500  1
  H  1940  1  0.63465500  0.96774700  0.83129600  1
  H  1941  1  0.66585300  0.93502800  0.79720000  1
  H  1942  1  0.67665300  0.95161600  0.82306000  1
  H  1943  1  0.65653800  0.92639200  0.82722900  1
  H  1946  1  0.60241800  0.90525500  0.84370700  1
  H  1947  1  0.61911100  0.93198100  0.85057800  1
  H  1948  1  0.57982600  0.95541900  0.85643200  1
  H  1949  1  0.56305500  0.92786400  0.85117700  1
  H  1950  1  0.58286700  0.93023200  0.87687800  1
  H  1963  1  0.08723500  0.73347000  0.46291000  1
  H  1964  1  0.06026000  0.71195300  0.43594600  1
  H  1967  1  0.02648500  0.80239600  0.35572100  1
  H  1968  1  0.03376600  0.83215200  0.36565800  1
  H  1969  1  0.06647800  0.79808100  0.33443000  1
  H  1970  1  0.04990100  0.82395500  0.32365400  1
  H  1971  1  0.07512300  0.82809600  0.34377300  1
  H  1974  1  0.09640100  0.84439400  0.39766700  1
  H  1975  1  0.06956800  0.85139200  0.38119500  1
  H  1976  1  0.04646900  0.85727000  0.42068400  1
  H  1977  1  0.07415000  0.85192000  0.43721200  1
  H  1978  1  0.07169000  0.87764000  0.41744100  1
  H  1991  1  0.08697900  0.26870200  0.53741000  1
  H  1992  1  0.06005400  0.29023500  0.56444100  1
  H  1995  1  0.02659800  0.19983300  0.64485000  1
  H  1996  1  0.03391700  0.17007700  0.63494200  1
  H  1997  1  0.06663300  0.20426500  0.66604200  1
  H  1998  1  0.05013500  0.17837200  0.67689600  1
  H  1999  1  0.07531700  0.17425200  0.65672200  1
  H  2002  1  0.09647500  0.15789200  0.60277500  1
  H  2003  1  0.06970400  0.15087600  0.61933900  1
  H  2004  1  0.04649400  0.14490400  0.57993200  1
  H  2005  1  0.07411300  0.15027900  0.56330900  1
  H  2006  1  0.07176000  0.12458000  0.58312100  1
  H  2019  1  0.91397800  0.73262300  0.53735000  1
  H  2020  1  0.94084100  0.71101900  0.56438200  1
  H  2023  1  0.97512600  0.80150800  0.64431900  1
  H  2024  1  0.96780800  0.83127200  0.63443900  1
  H  2025  1  0.93520100  0.79718200  0.66575700  1
  H  2026  1  0.95181500  0.82305300  0.67649000  1
  H  2027  1  0.92652600  0.82720300  0.65645200  1
  H  2030  1  0.90525500  0.84368100  0.60232100  1
  H  2031  1  0.93200300  0.85054100  0.61898200  1
  H  2032  1  0.95540200  0.85636600  0.57967100  1
  H  2033  1  0.92783100  0.85111100  0.56293000  1
  H  2034  1  0.93022800  0.87682400  0.58272200  1
  H  2047  1  0.91201100  0.26975500  0.46354800  1
  H  2048  1  0.93900700  0.29151600  0.43673400  1
  H  2051  1  0.97695300  0.20048000  0.35915600  1
  H  2052  1  0.96929100  0.17075100  0.36885900  1
  H  2053  1  0.93781600  0.20462200  0.33618300  1
  H  2054  1  0.95486400  0.17872800  0.32620900  1
  H  2055  1  0.92886400  0.17462900  0.34533300  1
  H  2058  1  0.90606000  0.15807500  0.39946100  1
  H  2059  1  0.93312600  0.15142800  0.38324600  1
  H  2060  1  0.95596500  0.14598300  0.42294900  1
  H  2061  1  0.92809800  0.15107700  0.43924300  1
  H  2062  1  0.93102400  0.12528500  0.41962400  1
  C  1  1  0.32232800  0.34108100  0.00217500  1
  C  2  1  0.30840400  0.34118200  0.02416200  1
  C  3  1  0.29080500  0.35962100  0.02918500  1
  C  4  1  0.28614800  0.37778400  0.01111400  1
  C  5  1  0.29924300  0.37771400  0.98854400  1
  C  6  1  0.31784100  0.35986700  0.98458900  1
  C  9  1  0.34035300  0.32226700  0.99809000  1
  C  10  1  0.35893200  0.31700300  0.01569000  1
  C  11  1  0.37600100  0.29766600  0.01177400  1
  C  12  1  0.37547600  0.28450000  0.98925200  1
  C  13  1  0.35759200  0.29005300  0.97115600  1
  C  14  1  0.33993200  0.30840600  0.97606700  1
  C  23  1  0.35666000  0.27775700  0.94888500  1
  C  24  1  0.29428800  0.39522900  0.97070000  1
  C  25  1  0.27780200  0.35964600  0.05114300  1
  C  26  1  0.39363300  0.29241100  0.02942100  1
  C  31  1  0.67886300  0.66055600  0.00255100  1
  C  32  1  0.69231500  0.66033700  0.02483500  1
  C  33  1  0.70990900  0.64198700  0.02999800  1
  C  34  1  0.71525000  0.62409900  0.01185100  1
  C  35  1  0.70262400  0.62427900  0.98901800  1
  C  36  1  0.68390000  0.64196600  0.98488700  1
  C  39  1  0.66065500  0.67918400  0.99831400  1
  C  40  1  0.64186300  0.68426600  0.01574800  1
  C  41  1  0.62463400  0.70343100  0.01168400  1
  C  42  1  0.62513900  0.71651800  0.98911700  1
  C  43  1  0.64320300  0.71111500  0.97116000  1
  C  44  1  0.66107800  0.69302700  0.97627500  1
  C  53  1  0.64403200  0.72325900  0.94880100  1
  C  54  1  0.70788400  0.60679900  0.97122600  1
  C  55  1  0.72161200  0.64213500  0.05259600  1
  C  56  1  0.60691700  0.70865600  0.02925300  1
  C  61  1  0.67925400  0.34064100  0.99804000  1
  C  62  1  0.69296200  0.34042500  0.97592000  1
  C  63  1  0.71119400  0.35820600  0.97100000  1
  C  64  1  0.71679000  0.37599800  0.98917100  1
  C  65  1  0.70379800  0.37629500  0.01179700  1
  C  66  1  0.68456300  0.35911900  0.01573200  1
  C  69  1  0.66053600  0.32252200  0.00213200  1
  C  70  1  0.64163400  0.31808900  0.98465500  1
  C  71  1  0.62385800  0.29942600  0.98863400  1
  C  72  1  0.62398700  0.28620500  0.01113000  1
  C  73  1  0.64227300  0.29080000  0.02909200  1
  C  74  1  0.66063500  0.30846800  0.02403400  1
  C  83  1  0.64241800  0.27771100  0.05099600  1
  C  84  1  0.70912200  0.39380800  0.02953700  1
  C  85  1  0.72328300  0.35755300  0.94861200  1
  C  86  1  0.60621700  0.29454100  0.97089500  1
  C  91  1  0.32216600  0.66070500  0.99861000  1
  C  92  1  0.30868500  0.66056100  0.97634600  1
  C  93  1  0.29105000  0.64225700  0.97118000  1
  C  94  1  0.28571600  0.62432300  0.98928300  1
  C  95  1  0.29838400  0.62442800  0.01209200  1
  C  96  1  0.31713400  0.64208400  0.01624100  1
  C  99  1  0.34037700  0.67931300  0.00287500  1
  C  100  1  0.35919100  0.68439300  0.98546600  1
  C  101  1  0.37641800  0.70355200  0.98955700  1
  C  102  1  0.37587400  0.71664300  0.01212000  1
  C  103  1  0.35777900  0.71124500  0.03004700  1
  C  104  1  0.33991700  0.69315300  0.02491300  1
  C  113  1  0.35690100  0.72338900  0.05240200  1
  C  114  1  0.29313400  0.60691500  0.02984900  1
  C  115  1  0.27928900  0.64248500  0.94862100  1
  C  116  1  0.39416500  0.70876800  0.97201800  1
  C  121  1  0.00228100  0.32230000  0.34106800  1
  C  122  1  0.02426700  0.30837100  0.34118400  1
  C  123  1  0.02928400  0.29078300  0.35963900  1
  C  124  1  0.01120600  0.28613900  0.37779700  1
  C  125  1  0.98863600  0.29923300  0.37771200  1
  C  126  1  0.98469000  0.31782500  0.35985400  1
  C  129  1  0.99820200  0.34032000  0.32224500  1
  C  130  1  0.01581500  0.35888000  0.31696100  1
  C  131  1  0.01190100  0.37594800  0.29762200  1
  C  132  1  0.98936400  0.37544400  0.28447700  1
  C  133  1  0.97125600  0.35758100  0.29005200  1
  C  134  1  0.97616600  0.33991900  0.30840000  1
  C  143  1  0.94897200  0.35667500  0.27777500  1
  C  144  1  0.97078900  0.29428600  0.39522100  1
  C  145  1  0.05124100  0.27778000  0.35968500  1
  C  146  1  0.02956200  0.39356000  0.29234300  1
  C  151  1  0.00246600  0.67900800  0.66055000  1
  C  152  1  0.02475800  0.69244400  0.66033900  1
  C  153  1  0.02993900  0.71002800  0.64198700  1
  C  154  1  0.01180600  0.71536700  0.62408200  1
  C  155  1  0.98896700  0.70275200  0.62425300  1
  C  156  1  0.98481300  0.68404300  0.64195200  1
  C  159  1  0.99820900  0.66081100  0.67918000  1
  C  160  1  0.01561900  0.64199400  0.68425100  1
  C  161  1  0.01154000  0.62477300  0.70342000  1
  C  162  1  0.98898900  0.62532300  0.71652900  1
  C  163  1  0.97105700  0.64341600  0.71113800  1
  C  164  1  0.97618300  0.66127500  0.69304000  1
  C  173  1  0.94870900  0.64428700  0.72330100  1
  C  174  1  0.97118900  0.70800900  0.60675900  1
  C  175  1  0.05254100  0.72172100  0.64214600  1
  C  176  1  0.02908200  0.60702700  0.70862800  1
  C  181  1  0.99820700  0.67913800  0.34060700  1
  C  182  1  0.97608200  0.69284100  0.34040300  1
  C  183  1  0.97115400  0.71106300  0.35819300  1
  C  184  1  0.98933100  0.71666500  0.37597700  1
  C  185  1  0.01196500  0.70368600  0.37626000  1
  C  186  1  0.01590100  0.68445300  0.35908000  1
  C  189  1  0.00229000  0.66040200  0.32249800  1
  C  190  1  0.98479300  0.64151600  0.31807100  1
  C  191  1  0.98875700  0.62372200  0.29942500  1
  C  192  1  0.01126300  0.62380500  0.28621800  1
  C  193  1  0.02925200  0.64206600  0.29081100  1
  C  194  1  0.02420400  0.66045300  0.30845900  1
  C  203  1  0.05116400  0.64216800  0.27772900  1
  C  204  1  0.02970800  0.70901600  0.39376900  1
  C  205  1  0.94875700  0.72314100  0.35755700  1
  C  206  1  0.97099800  0.60610500  0.29453800  1
  C  211  1  0.99858800  0.32220800  0.66069700  1
  C  212  1  0.97633200  0.30871500  0.66056500  1
  C  213  1  0.97116000  0.29108300  0.64225900  1
  C  214  1  0.98925300  0.28576800  0.62430800  1
  C  215  1  0.01205500  0.29844700  0.62439900  1
  C  216  1  0.01620700  0.31719100  0.64206000  1
  C  219  1  0.00285900  0.34041400  0.67930900  1
  C  220  1  0.98544500  0.35922000  0.68440400  1
  C  221  1  0.98954600  0.37644600  0.70356300  1
  C  222  1  0.01211900  0.37590600  0.71663900  1
  C  223  1  0.03004600  0.35781600  0.71122700  1
  C  224  1  0.02490600  0.33995800  0.69313300  1
  C  233  1  0.05241000  0.35694500  0.72335500  1
  C  234  1  0.02980000  0.29321400  0.60686900  1
  C  235  1  0.94860800  0.27931100  0.64249900  1
  C  236  1  0.97200900  0.39419400  0.70878800  1
  C  241  1  0.34058300  0.00249800  0.32226900  1
  C  242  1  0.34091900  0.02482600  0.30888900  1
  C  243  1  0.35935600  0.02999300  0.29139000  1
  C  244  1  0.37723100  0.01182300  0.28608200  1
  C  245  1  0.37693700  0.98895200  0.29863800  1
  C  246  1  0.35914700  0.98480200  0.31726100  1
  C  249  1  0.32185000  0.99824000  0.34036000  1
  C  250  1  0.31674100  0.01560700  0.35920900  1
  C  251  1  0.29744700  0.01155800  0.37629400  1
  C  252  1  0.28421600  0.98908100  0.37556800  1
  C  253  1  0.28964700  0.97118000  0.35745800  1
  C  254  1  0.30790100  0.97627300  0.33974500  1
  C  263  1  0.27731200  0.94893500  0.35636200  1
  C  264  1  0.39439200  0.97113200  0.29340000  1
  C  265  1  0.35929700  0.05260500  0.27971400  1
  C  266  1  0.29221300  0.02906100  0.39406900  1
  C  271  1  0.66057600  0.00256600  0.67901100  1
  C  272  1  0.66041300  0.02484800  0.69246800  1
  C  273  1  0.64209700  0.03003500  0.71008900  1
  C  274  1  0.62419300  0.01191000  0.71545700  1
  C  275  1  0.62431200  0.98908400  0.70281700  1
  C  276  1  0.64196600  0.98493100  0.68406500  1
  C  279  1  0.67917300  0.99830100  0.66078000  1
  C  280  1  0.68424000  0.01572200  0.64197200  1
  C  281  1  0.70337400  0.01163300  0.62471800  1
  C  282  1  0.71645000  0.98906000  0.62521800  1
  C  283  1  0.71106100  0.97111600  0.64330100  1
  C  284  1  0.69299900  0.97625300  0.66119600  1
  C  293  1  0.72319500  0.94874900  0.64413100  1
  C  294  1  0.60680900  0.97132000  0.70808600  1
  C  295  1  0.64233400  0.05261200  0.72181600  1
  C  296  1  0.70858800  0.02918900  0.60698700  1
  C  301  1  0.34057900  0.99808600  0.67925000  1
  C  302  1  0.34022400  0.97601500  0.69303400  1
  C  303  1  0.35789000  0.97109900  0.71137900  1
  C  304  1  0.37570400  0.98924200  0.71701000  1
  C  305  1  0.37616500  0.01180700  0.70391400  1
  C  306  1  0.35909700  0.01572800  0.68457800  1
  C  309  1  0.32254400  0.00219100  0.66045100  1
  C  310  1  0.31811900  0.98467400  0.64158600  1
  C  311  1  0.29952400  0.98865800  0.62374200  1
  C  312  1  0.28636100  0.01119000  0.62376800  1
  C  313  1  0.29095200  0.02919600  0.64201600  1
  C  314  1  0.30855500  0.02413600  0.66044200  1
  C  323  1  0.27788100  0.05111600  0.64210000  1
  C  324  1  0.39372700  0.02949900  0.70923600  1
  C  325  1  0.35700900  0.94878600  0.72360800  1
  C  326  1  0.29463700  0.97088200  0.60614000  1
  C  331  1  0.66065000  0.99872200  0.32216000  1
  C  332  1  0.66049700  0.97646000  0.30867400  1
  C  333  1  0.64219200  0.97130500  0.29103700  1
  C  334  1  0.62426800  0.98941900  0.28570100  1
  C  335  1  0.62438200  0.01222700  0.29837300  1
  C  336  1  0.64203800  0.01636200  0.31712600  1
  C  339  1  0.67926100  0.00297500  0.34036900  1
  C  340  1  0.68434700  0.98555400  0.35917400  1
  C  341  1  0.70351300  0.98963400  0.37639500  1
  C  342  1  0.71660800  0.01219500  0.37585800  1
  C  343  1  0.71120600  0.03013100  0.35777200  1
  C  344  1  0.69310600  0.02500900  0.33991600  1
  C  353  1  0.72335100  0.05248500  0.35690400  1
  C  354  1  0.60687500  0.02999200  0.29312400  1
  C  355  1  0.64240600  0.94874400  0.27928200  1
  C  356  1  0.70873300  0.97208400  0.39413300  1
  C  361  1  0.82850000  0.84697400  0.50245500  1
  C  362  1  0.81420600  0.84643200  0.52419600  1
  C  363  1  0.79578000  0.86409700  0.52878700  1
  C  364  1  0.79088000  0.88231000  0.51085200  1
  C  365  1  0.80454200  0.88292800  0.48865100  1
  C  366  1  0.82373700  0.86569100  0.48486900  1
  C  369  1  0.84681600  0.82849900  0.49838400  1
  C  370  1  0.86555800  0.82365400  0.51592400  1
  C  371  1  0.88258600  0.80426700  0.51219400  1
  C  372  1  0.88173100  0.79046800  0.49008400  1
  C  373  1  0.86351100  0.79545600  0.47217500  1
  C  374  1  0.84606100  0.81410100  0.47671800  1
  C  383  1  0.86174700  0.78174800  0.45084000  1
  C  384  1  0.79944100  0.90047900  0.47096600  1
  C  385  1  0.78226800  0.86264900  0.55024600  1
  C  386  1  0.90014100  0.79907700  0.52985100  1
  C  391  1  0.17246600  0.15415200  0.50244900  1
  C  392  1  0.18660600  0.15435900  0.52430500  1
  C  393  1  0.20483300  0.13648200  0.52889000  1
  C  394  1  0.20975500  0.11842700  0.51080600  1
  C  395  1  0.19628700  0.11815900  0.48848200  1
  C  396  1  0.17723400  0.13555800  0.48472700  1
  C  399  1  0.15422800  0.17274500  0.49845400  1
  C  400  1  0.13552600  0.17763300  0.51602900  1
  C  401  1  0.11854800  0.19707800  0.51235300  1
  C  402  1  0.11935900  0.21085800  0.49023300  1
  C  403  1  0.13749200  0.20580200  0.47225600  1
  C  404  1  0.15494100  0.18714800  0.47678400  1
  C  413  1  0.13916400  0.21942600  0.45083000  1
  C  414  1  0.20140800  0.10074200  0.47067300  1
  C  415  1  0.21806800  0.13750200  0.55056900  1
  C  416  1  0.10103400  0.20229900  0.53004300  1
  C  421  1  0.17387900  0.84659900  0.49780000  1
  C  422  1  0.18834600  0.84568400  0.47618300  1
  C  423  1  0.20717100  0.86295400  0.47168400  1
  C  424  1  0.21225800  0.88115400  0.48958600  1
  C  425  1  0.19839000  0.88216300  0.51164200  1
  C  426  1  0.17882800  0.86532900  0.51532500  1
  C  429  1  0.15519500  0.82848200  0.50183200  1
  C  430  1  0.13652300  0.82384900  0.48416500  1
  C  431  1  0.11902500  0.80489700  0.48796200  1
  C  432  1  0.11930500  0.79139300  0.51026800  1
  C  433  1  0.13747100  0.79617100  0.52828000  1
  C  434  1  0.15542100  0.81431400  0.52366300  1
  C  443  1  0.13852800  0.78288000  0.54990200  1
  C  444  1  0.20366300  0.89971300  0.52926900  1
  C  445  1  0.22091600  0.86109200  0.45035400  1
  C  446  1  0.10153600  0.79988500  0.47019600  1
  C  451  1  0.82798000  0.15466800  0.49880100  1
  C  452  1  0.81370200  0.15514200  0.47704900  1
  C  453  1  0.79541400  0.13734800  0.47241400  1
  C  454  1  0.79064500  0.11905600  0.49030300  1
  C  455  1  0.80427800  0.11851400  0.51252300  1
  C  456  1  0.82334000  0.13588700  0.51635300  1
  C  459  1  0.84616600  0.17326500  0.50290500  1
  C  460  1  0.86485400  0.17828700  0.48535900  1
  C  461  1  0.88175700  0.19777100  0.48913800  1
  C  462  1  0.88086600  0.21147000  0.51130400  1
  C  463  1  0.86270100  0.20630400  0.52921700  1
  C  464  1  0.84535500  0.18757400  0.52462800  1
  C  473  1  0.86098900  0.21982600  0.55069200  1
  C  474  1  0.79925300  0.10092800  0.53019300  1
  C  475  1  0.78196300  0.13867100  0.45089600  1
  C  476  1  0.89929900  0.20309700  0.47152100  1
  C  481  1  0.50248600  0.82853900  0.84691400  1
  C  482  1  0.52421700  0.81422800  0.84634600  1
  C  483  1  0.52880200  0.79578000  0.86399100  1
  C  484  1  0.51087000  0.79087500  0.88220700  1
  C  485  1  0.48868200  0.80455500  0.88285000  1
  C  486  1  0.48490700  0.82377200  0.86563700  1
  C  489  1  0.49842600  0.84689200  0.82847100  1
  C  490  1  0.51598100  0.86562600  0.82365800  1
  C  491  1  0.51223400  0.88272400  0.80433500  1
  C  492  1  0.49009600  0.88194800  0.79058000  1
  C  493  1  0.47218800  0.86371500  0.79552100  1
  C  494  1  0.47673800  0.84620200  0.81410300  1
  C  503  1  0.45077700  0.86208500  0.78188000  1
  C  504  1  0.47100400  0.79945200  0.90040900  1
  C  505  1  0.55025700  0.78226200  0.86253100  1
  C  506  1  0.52990800  0.90026900  0.79916300  1
  C  511  1  0.50257300  0.17283600  0.15408400  1
  C  512  1  0.52440400  0.18700600  0.15430400  1
  C  513  1  0.52893100  0.20528500  0.13646700  1
  C  514  1  0.51081900  0.21021300  0.11843700  1
  C  515  1  0.48853500  0.19667700  0.11814300  1
  C  516  1  0.48482800  0.17759000  0.13551200  1
  C  519  1  0.49859500  0.15462200  0.17269300  1
  C  520  1  0.51613400  0.13587500  0.17753100  1
  C  521  1  0.51248000  0.11893000  0.19700800  1
  C  522  1  0.49042400  0.11984900  0.21088900  1
  C  523  1  0.47250200  0.13805800  0.20590300  1
  C  524  1  0.47699500  0.15545000  0.18719400  1
  C  533  1  0.45119600  0.13985700  0.21965700  1
  C  534  1  0.47070500  0.20178400  0.10074800  1
  C  535  1  0.55052900  0.21861200  0.13757200  1
  C  536  1  0.53013800  0.10136100  0.20217800  1
  C  541  1  0.49782700  0.17378900  0.84664500  1
  C  542  1  0.47620200  0.18824100  0.84575600  1
  C  543  1  0.47170800  0.20705900  0.86303300  1
  C  544  1  0.48962900  0.21215500  0.88121500  1
  C  545  1  0.51169200  0.19830000  0.88219800  1
  C  546  1  0.51537100  0.17874400  0.86535600  1
  C  549  1  0.50184800  0.15511000  0.82852200  1
  C  550  1  0.48418900  0.13642300  0.82391700  1
  C  551  1  0.48796700  0.11893300  0.80495400  1
  C  552  1  0.51024400  0.11924300  0.79140200  1
  C  553  1  0.52824700  0.13742700  0.79614900  1
  C  554  1  0.52365200  0.15536300  0.81431200  1
  C  563  1  0.54983600  0.13851500  0.78280600  1
  C  564  1  0.52932900  0.20357300  0.89973600  1
  C  565  1  0.45037100  0.22079100  0.86119000  1
  C  566  1  0.47020300  0.10143400  0.79996600  1
  C  571  1  0.49861900  0.82835500  0.15443100  1
  C  572  1  0.47686900  0.81407300  0.15492400  1
  C  573  1  0.47229100  0.79568800  0.13721600  1
  C  574  1  0.49022400  0.79083600  0.11899000  1
  C  575  1  0.51244000  0.80447800  0.11843000  1
  C  576  1  0.51622000  0.82362500  0.13571900  1
  C  579  1  0.50267400  0.84663100  0.17294800  1
  C  580  1  0.48513300  0.86536700  0.17781100  1
  C  581  1  0.48886600  0.88237300  0.19721900  1
  C  582  1  0.51097900  0.88150700  0.21100800  1
  C  583  1  0.52887700  0.86327800  0.20601100  1
  C  584  1  0.52433600  0.84585100  0.18734600  1
  C  593  1  0.55027300  0.86155700  0.21965700  1
  C  594  1  0.53013800  0.79939800  0.10088700  1
  C  595  1  0.45077700  0.78223300  0.13855300  1
  C  596  1  0.47121600  0.89993300  0.20241700  1
  C  601  1  0.84693600  0.50258500  0.82851500  1
  C  602  1  0.84638800  0.52431600  0.81420600  1
  C  603  1  0.86405100  0.52889000  0.79577600  1
  C  604  1  0.88227500  0.51095900  0.79089700  1
  C  605  1  0.88289800  0.48877000  0.80457900  1
  C  606  1  0.86565800  0.48499900  0.82377200  1
  C  609  1  0.82844000  0.49851300  0.84680700  1
  C  610  1  0.82358000  0.51604400  0.86555300  1
  C  611  1  0.80416800  0.51231100  0.88255300  1
  C  612  1  0.79035400  0.49021100  0.88165600  1
  C  613  1  0.79535300  0.47231800  0.86342300  1
  C  614  1  0.81402900  0.47685800  0.84600900  1
  C  623  1  0.78163200  0.45099800  0.86161400  1
  C  624  1  0.90045000  0.47108100  0.79949200  1
  C  625  1  0.86259000  0.55033000  0.78223700  1
  C  626  1  0.79897000  0.52995400  0.90012200  1
  C  631  1  0.15410400  0.50243500  0.17255400  1
  C  632  1  0.15438300  0.52423700  0.18677100  1
  C  633  1  0.13659000  0.52876200  0.20509800  1
  C  634  1  0.11856100  0.51065500  0.21004500  1
  C  635  1  0.11821300  0.48839200  0.19648000  1
  C  636  1  0.13551700  0.48470700  0.17733000  1
  C  639  1  0.17264300  0.49847600  0.15425200  1
  C  640  1  0.17751600  0.51610800  0.13559900  1
  C  641  1  0.19690900  0.51245300  0.11855600  1
  C  642  1  0.21064100  0.49030000  0.11924700  1
  C  643  1  0.20559400  0.47227000  0.13733000  1
  C  644  1  0.18701000  0.47677900  0.15485400  1
  C  653  1  0.21915200  0.45081700  0.13886600  1
  C  654  1  0.10082100  0.47056700  0.20161700  1
  C  655  1  0.13772200  0.55035200  0.21843700  1
  C  656  1  0.20211500  0.53019100  0.10108600  1
  C  661  1  0.84666900  0.49780000  0.17379100  1
  C  662  1  0.84578300  0.47617000  0.18824300  1
  C  663  1  0.86306800  0.47167100  0.20705300  1
  C  664  1  0.88125200  0.48959000  0.21214600  1
  C  665  1  0.88223300  0.51165500  0.19829200  1
  C  666  1  0.86538700  0.51533600  0.17874100  1
  C  669  1  0.82854300  0.50182500  0.15511600  1
  C  670  1  0.82391300  0.48415900  0.13643900  1
  C  671  1  0.80495400  0.48795100  0.11894800  1
  C  672  1  0.79143500  0.51024700  0.11923900  1
  C  673  1  0.79620800  0.52825800  0.13740900  1
  C  674  1  0.81435800  0.52364700  0.15535300  1
  C  683  1  0.78290200  0.54987300  0.13847600  1
  C  684  1  0.89977300  0.52929100  0.20356500  1
  C  685  1  0.86123200  0.45032900  0.22078000  1
  C  686  1  0.79994800  0.47018600  0.10145500  1
  C  691  1  0.15463000  0.49883600  0.82795100  1
  C  692  1  0.15510100  0.47708600  0.81366700  1
  C  693  1  0.13730400  0.47245600  0.79538100  1
  C  694  1  0.11901000  0.49034400  0.79061900  1
  C  695  1  0.11847000  0.51256100  0.80425800  1
  C  696  1  0.13584600  0.51638700  0.82331600  1
  C  699  1  0.17322700  0.50293500  0.84613600  1
  C  700  1  0.17824700  0.48538300  0.86482000  1
  C  701  1  0.19773000  0.48915800  0.88172600  1
  C  702  1  0.21142900  0.51132400  0.88084200  1
  C  703  1  0.20626300  0.52924300  0.86268000  1
  C  704  1  0.18753600  0.52466000  0.84533300  1
  C  713  1  0.21978600  0.55072000  0.86097700  1
  C  714  1  0.10088000  0.53023000  0.79924200  1
  C  715  1  0.13862500  0.45094100  0.78192400  1
  C  716  1  0.20305400  0.47153500  0.89926400  1
  C  721  1  0.41994000  0.23288600  0.89161900  1
  C  722  1  0.40499700  0.22245400  0.91015100  1
  C  723  1  0.38956600  0.23744200  0.92493300  1
  C  724  1  0.38864200  0.26322300  0.92125900  1
  C  725  1  0.40386100  0.27351100  0.90296200  1
  C  726  1  0.41916100  0.25866300  0.88832000  1
  C  728  1  0.37658200  0.20160600  0.94750700  1
  C  729  1  0.39164300  0.18657300  0.93240200  1
  C  733  1  0.36038200  0.19277200  0.96758200  1
  C  734  1  0.33433800  0.18640500  0.95825800  1
  C  740  1  0.39438100  0.15954100  0.93485400  1
  C  741  1  0.41520000  0.15251500  0.95283100  1
  C  749  1  0.58065600  0.76937200  0.89268100  1
  C  750  1  0.59619200  0.77946500  0.91091000  1
  C  751  1  0.61170500  0.76414900  0.92526200  1
  C  752  1  0.61205400  0.73836800  0.92150000  1
  C  753  1  0.59623700  0.72842500  0.90351900  1
  C  754  1  0.58086000  0.74359800  0.88929800  1
  C  756  1  0.62587800  0.79966500  0.94763000  1
  C  757  1  0.61068300  0.81501400  0.93298500  1
  C  761  1  0.64256500  0.80814100  0.96745900  1
  C  762  1  0.66817600  0.81536000  0.95755600  1
  C  768  1  0.60820900  0.84203800  0.93578700  1
  C  769  1  0.58702400  0.84899400  0.95335500  1
  C  777  1  0.58023200  0.23217100  0.10713600  1
  C  778  1  0.59688400  0.22238800  0.08974300  1
  C  779  1  0.61228400  0.23807200  0.07568800  1
  C  780  1  0.61121800  0.26394000  0.07872900  1
  C  781  1  0.59428200  0.27355500  0.09584400  1
  C  782  1  0.57909200  0.25800200  0.10985800  1
  C  784  1  0.62930000  0.20276000  0.05502700  1
  C  785  1  0.61389700  0.18706700  0.06910500  1
  C  789  1  0.64709900  0.19466600  0.03600400  1
  C  790  1  0.67186000  0.18640500  0.04718400  1
  C  796  1  0.61259200  0.15988200  0.06695800  1
  C  797  1  0.58900900  0.15139100  0.05362000  1
  C  805  1  0.42031900  0.76944000  0.10851200  1
  C  806  1  0.40476700  0.77955200  0.09030900  1
  C  807  1  0.38922300  0.76425200  0.07597700  1
  C  808  1  0.38886400  0.73846900  0.07973200  1
  C  809  1  0.40468800  0.72851000  0.09769700  1
  C  810  1  0.42009400  0.74366600  0.11190100  1
  C  812  1  0.37502700  0.79978800  0.05365300  1
  C  813  1  0.39027200  0.81511900  0.06826700  1
  C  817  1  0.35833800  0.80828600  0.03383500  1
  C  818  1  0.33281400  0.81575500  0.04377100  1
  C  824  1  0.39280600  0.84213700  0.06544800  1
  C  825  1  0.41419300  0.84903100  0.04810400  1
  C  833  1  0.89168500  0.41992500  0.23288800  1
  C  834  1  0.91021200  0.40497500  0.22245800  1
  C  835  1  0.92500800  0.38955900  0.23745100  1
  C  836  1  0.92135500  0.38866000  0.26323400  1
  C  837  1  0.90306500  0.40388900  0.27352000  1
  C  838  1  0.88840600  0.41917200  0.25866900  1
  C  840  1  0.94756000  0.37654700  0.20161000  1
  C  841  1  0.93243900  0.39158800  0.18657300  1
  C  845  1  0.96764100  0.36035400  0.19277700  1
  C  846  1  0.95832600  0.33431000  0.18639300  1
  C  852  1  0.93487400  0.39431000  0.15953800  1
  C  853  1  0.95279500  0.41516700  0.15248900  1
  C  861  1  0.89268100  0.58079200  0.76937000  1
  C  862  1  0.91090100  0.59633100  0.77946900  1
  C  863  1  0.92521100  0.61189800  0.76416700  1
  C  864  1  0.92141200  0.61229300  0.73839000  1
  C  865  1  0.90343400  0.59647800  0.72844000  1
  C  866  1  0.88925700  0.58105000  0.74360000  1
  C  868  1  0.94760100  0.62603200  0.79968300  1
  C  869  1  0.93300300  0.61077800  0.81501800  1
  C  873  1  0.96741100  0.64273800  0.80816800  1
  C  874  1  0.95747000  0.66830400  0.81548700  1
  C  880  1  0.93585300  0.60824400  0.84203200  1
  C  881  1  0.95345400  0.58706100  0.84890900  1
  C  889  1  0.10728100  0.58003300  0.23206100  1
  C  890  1  0.08987800  0.59669700  0.22231100  1
  C  891  1  0.07582000  0.61206500  0.23802400  1
  C  892  1  0.07886200  0.61095700  0.26389000  1
  C  893  1  0.09598500  0.59400600  0.27347100  1
  C  894  1  0.11000500  0.57885200  0.25789000  1
  C  896  1  0.05513700  0.62912500  0.20274900  1
  C  897  1  0.06922700  0.61376500  0.18702700  1
  C  901  1  0.03609000  0.64691400  0.19468900  1
  C  902  1  0.04723400  0.67173500  0.18656900  1
  C  908  1  0.06705500  0.61250200  0.15984300  1
  C  909  1  0.05345200  0.58907200  0.15135200  1
  C  917  1  0.10859100  0.42043100  0.76922700  1
  C  918  1  0.09038500  0.40491400  0.77938600  1
  C  919  1  0.07602900  0.38934600  0.76413200  1
  C  920  1  0.07976700  0.38892700  0.73834800  1
  C  921  1  0.09773600  0.40471600  0.72833900  1
  C  922  1  0.11196200  0.42014600  0.74345100  1
  C  924  1  0.05371500  0.37525300  0.79971400  1
  C  925  1  0.06835800  0.39051500  0.81500200  1
  C  929  1  0.03391300  0.35857100  0.80826400  1
  C  930  1  0.04385600  0.33302000  0.81563000  1
  C  936  1  0.06556700  0.39308600  0.84201800  1
  C  937  1  0.04803100  0.41432000  0.84890200  1
  C  945  1  0.23281800  0.89145500  0.41977300  1
  C  946  1  0.22229300  0.90998600  0.40489600  1
  C  947  1  0.23717900  0.92477300  0.38937000  1
  C  948  1  0.26295500  0.92110700  0.38828400  1
  C  949  1  0.27333700  0.90279600  0.40342400  1
  C  950  1  0.25858800  0.88814900  0.41881700  1
  C  952  1  0.20125100  0.94733300  0.37661100  1
  C  953  1  0.18631900  0.93222200  0.39176600  1
  C  957  1  0.19231000  0.96738300  0.36044000  1
  C  958  1  0.18596100  0.95805100  0.33439500  1
  C  964  1  0.15929900  0.93464400  0.39464400  1
  C  965  1  0.15235600  0.95271000  0.41541400  1
  C  973  1  0.76935400  0.89276700  0.58066200  1
  C  974  1  0.77943200  0.91096700  0.59624100  1
  C  975  1  0.76410500  0.92527100  0.61178700  1
  C  976  1  0.73832500  0.92149100  0.61212500  1
  C  977  1  0.72839600  0.90353900  0.59626900  1
  C  978  1  0.74358000  0.88936400  0.58085900  1
  C  980  1  0.79960600  0.94762300  0.62602100  1
  C  981  1  0.81496500  0.93303100  0.61078400  1
  C  985  1  0.80806900  0.96741600  0.64275700  1
  C  986  1  0.81536900  0.95745200  0.66831900  1
  C  992  1  0.84198500  0.93587000  0.60830100  1
  C  993  1  0.84890600  0.95344000  0.58710500  1
  C  1001  1  0.23183100  0.10711400  0.58015600  1
  C  1002  1  0.22219300  0.08969400  0.59686600  1
  C  1003  1  0.23800400  0.07566100  0.61215500  1
  C  1004  1  0.26386100  0.07874700  0.61092000  1
  C  1005  1  0.27333100  0.09588500  0.59392400  1
  C  1006  1  0.25765100  0.10988200  0.57884600  1
  C  1008  1  0.20284500  0.05492000  0.62938800  1
  C  1009  1  0.18702500  0.06897100  0.61409200  1
  C  1013  1  0.19490700  0.03588000  0.64723900  1
  C  1014  1  0.18672500  0.04704500  0.67203300  1
  C  1020  1  0.15983600  0.06677600  0.61295600  1
  C  1021  1  0.15120800  0.05357700  0.58934400  1
  C  1029  1  0.76925100  0.10864000  0.42039200  1
  C  1030  1  0.77940100  0.09042700  0.40487500  1
  C  1031  1  0.76414000  0.07607900  0.38930900  1
  C  1032  1  0.73835700  0.07983100  0.38888800  1
  C  1033  1  0.72835700  0.09780600  0.40467500  1
  C  1034  1  0.74347700  0.11202500  0.42010600  1
  C  1036  1  0.79970900  0.05374300  0.37522000  1
  C  1037  1  0.81500500  0.06837800  0.39048000  1
  C  1041  1  0.80824700  0.03393200  0.35854400  1
  C  1042  1  0.81563000  0.04386500  0.33299200  1
  C  1048  1  0.84201900  0.06557200  0.39305500  1
  C  1049  1  0.84889100  0.04804900  0.41430300  1
  C  1057  1  0.23252600  0.42122300  0.10818100  1
  C  1058  1  0.22264600  0.40479600  0.09062500  1
  C  1059  1  0.23825400  0.38965100  0.07621300  1
  C  1060  1  0.26414200  0.39071900  0.07907100  1
  C  1061  1  0.27385500  0.40742600  0.09635300  1
  C  1062  1  0.25838000  0.42236600  0.11071800  1
  C  1064  1  0.20283900  0.37290800  0.05552100  1
  C  1065  1  0.18721200  0.38800200  0.07000000  1
  C  1069  1  0.19464600  0.35546700  0.03621300  1
  C  1070  1  0.18686300  0.33035900  0.04694400  1
  C  1076  1  0.16001500  0.38925000  0.06805300  1
  C  1077  1  0.15141600  0.41262200  0.05442000  1
  C  1085  1  0.76921200  0.57965800  0.10817200  1
  C  1086  1  0.77886600  0.59559100  0.09004700  1
  C  1087  1  0.76311200  0.61074200  0.07579000  1
  C  1088  1  0.73733100  0.61029900  0.07952300  1
  C  1089  1  0.72782800  0.59405600  0.09735900  1
  C  1090  1  0.74343600  0.57904300  0.11150000  1
  C  1092  1  0.79818400  0.62608700  0.05351000  1
  C  1093  1  0.81397000  0.61123200  0.06804600  1
  C  1097  1  0.80616000  0.64301000  0.03367300  1
  C  1098  1  0.81311800  0.66867900  0.04361100  1
  C  1104  1  0.84104900  0.60949000  0.06520300  1
  C  1105  1  0.84856000  0.58795300  0.04830700  1
  C  1113  1  0.23281200  0.58059000  0.89151200  1
  C  1114  1  0.22285900  0.59584400  0.91005600  1
  C  1115  1  0.23833500  0.61079700  0.92482100  1
  C  1116  1  0.26412000  0.61091800  0.92111600  1
  C  1117  1  0.27393400  0.59537200  0.90283500  1
  C  1118  1  0.25860300  0.58054100  0.88821000  1
  C  1120  1  0.20298800  0.62483400  0.94751400  1
  C  1121  1  0.18746400  0.61026400  0.93242000  1
  C  1125  1  0.19471400  0.64113900  0.96774200  1
  C  1126  1  0.18874500  0.66733800  0.95858600  1
  C  1132  1  0.16037700  0.60828100  0.93498000  1
  C  1133  1  0.15285100  0.58725600  0.95250800  1
  C  1141  1  0.76899900  0.42065100  0.89194400  1
  C  1142  1  0.77919500  0.40540500  0.91036100  1
  C  1143  1  0.76396900  0.39004800  0.92497300  1
  C  1144  1  0.73818400  0.38953300  0.92126300  1
  C  1145  1  0.72813500  0.40505200  0.90308700  1
  C  1146  1  0.74321600  0.42028400  0.88861600  1
  C  1148  1  0.79957500  0.37636900  0.94750000  1
  C  1149  1  0.81484300  0.39135800  0.93256000  1
  C  1153  1  0.80813900  0.36002000  0.96756900  1
  C  1154  1  0.81484500  0.33410200  0.95812800  1
  C  1160  1  0.84188700  0.39382300  0.93516100  1
  C  1161  1  0.84900500  0.41496300  0.95271900  1
  C  1169  1  0.42039600  0.89232400  0.76932200  1
  C  1170  1  0.40511300  0.91070100  0.77953100  1
  C  1171  1  0.38966600  0.92524500  0.76432900  1
  C  1172  1  0.38908500  0.92149400  0.73855200  1
  C  1173  1  0.40465100  0.90336400  0.72848600  1
  C  1174  1  0.41996400  0.88895400  0.74354700  1
  C  1176  1  0.37598700  0.94774400  0.79995500  1
  C  1177  1  0.39108400  0.93288500  0.81519600  1
  C  1181  1  0.35951600  0.96769900  0.80855600  1
  C  1182  1  0.33370400  0.95806700  0.81539800  1
  C  1188  1  0.39363300  0.93554700  0.84222700  1
  C  1189  1  0.41464000  0.95330900  0.84923700  1
  C  1197  1  0.58027000  0.89194200  0.23273000  1
  C  1198  1  0.59566200  0.91038100  0.22279600  1
  C  1199  1  0.61069200  0.92504700  0.23829100  1
  C  1200  1  0.61072700  0.92136600  0.26408100  1
  C  1201  1  0.59506300  0.90317700  0.27387000  1
  C  1202  1  0.58015500  0.88864900  0.25852200  1
  C  1204  1  0.62497000  0.94760500  0.20295100  1
  C  1205  1  0.61031000  0.93261500  0.18741100  1
  C  1209  1  0.64136000  0.96776900  0.19469000  1
  C  1210  1  0.66739400  0.95845000  0.18826900  1
  C  1216  1  0.60830500  0.93522100  0.16032900  1
  C  1217  1  0.58699500  0.95242100  0.15285800  1
  C  1225  1  0.57970800  0.10823800  0.76921800  1
  C  1226  1  0.59555600  0.09007000  0.77892500  1
  C  1227  1  0.61074700  0.07579200  0.76322800  1
  C  1228  1  0.61045900  0.07957900  0.73745300  1
  C  1229  1  0.59429100  0.09745200  0.72788800  1
  C  1230  1  0.57923600  0.11161000  0.74344200  1
  C  1232  1  0.62583800  0.05340900  0.79834200  1
  C  1233  1  0.61096200  0.06798100  0.81407500  1
  C  1237  1  0.64274600  0.03358600  0.80638200  1
  C  1238  1  0.66848600  0.04351200  0.81308300  1
  C  1244  1  0.60913200  0.06512400  0.84114500  1
  C  1245  1  0.58800600  0.04767400  0.84856000  1
  C  1253  1  0.42132900  0.10932700  0.23292300  1
  C  1254  1  0.40581100  0.09096500  0.22303900  1
  C  1255  1  0.39084500  0.07629100  0.23859100  1
  C  1256  1  0.39101500  0.07987000  0.26439400  1
  C  1257  1  0.40682200  0.09796400  0.27413400  1
  C  1258  1  0.42165800  0.11250600  0.25872800  1
  C  1260  1  0.37622200  0.05391700  0.20327900  1
  C  1261  1  0.39082900  0.06890300  0.18768500  1
  C  1265  1  0.35976600  0.03378600  0.19506900  1
  C  1266  1  0.33378800  0.04317700  0.18851900  1
  C  1272  1  0.39268100  0.06636400  0.16058500  1
  C  1273  1  0.41425200  0.04956500  0.15295200  1
  C  1281  1  0.89151000  0.23284500  0.58058100  1
  C  1282  1  0.91004800  0.22289000  0.59584000  1
  C  1283  1  0.92480400  0.23836100  0.61080600  1
  C  1284  1  0.92109600  0.26414600  0.61093300  1
  C  1285  1  0.90282000  0.27396100  0.59538300  1
  C  1286  1  0.88820400  0.25863600  0.58053900  1
  C  1288  1  0.94749200  0.20301200  0.62484300  1
  C  1289  1  0.93240900  0.18749200  0.61025800  1
  C  1293  1  0.96770500  0.19473100  0.64116100  1
  C  1294  1  0.95852500  0.18872100  0.66734100  1
  C  1300  1  0.93497900  0.16040500  0.60826100  1
  C  1301  1  0.95251500  0.15289800  0.58723600  1
  C  1309  1  0.89212800  0.76902300  0.42058000  1
  C  1310  1  0.91052400  0.77918000  0.40528500  1
  C  1311  1  0.92512800  0.76391500  0.38995600  1
  C  1312  1  0.92143400  0.73812700  0.38952600  1
  C  1313  1  0.90328300  0.72811600  0.40510000  1
  C  1314  1  0.88881800  0.74323600  0.42029800  1
  C  1316  1  0.94761400  0.79949000  0.37613500  1
  C  1317  1  0.93269100  0.81479600  0.39110500  1
  C  1321  1  0.96767500  0.80801800  0.35975700  1
  C  1322  1  0.95819600  0.81487100  0.33389100  1
  C  1328  1  0.93531100  0.84184300  0.39353100  1
  C  1329  1  0.95270600  0.84897200  0.41479800  1
  C  1337  1  0.10848700  0.23266400  0.42120300  1
  C  1338  1  0.09086700  0.22273700  0.40487000  1
  C  1339  1  0.07638400  0.23830400  0.38974500  1
  C  1340  1  0.07923800  0.26419300  0.39073300  1
  C  1341  1  0.09659300  0.27395400  0.40733600  1
  C  1342  1  0.11102900  0.25852400  0.42225200  1
  C  1344  1  0.05562600  0.20284300  0.37318900  1
  C  1345  1  0.07019900  0.18725800  0.38823400  1
  C  1349  1  0.03623200  0.19459700  0.35587000  1
  C  1350  1  0.04682200  0.18697700  0.33065100  1
  C  1356  1  0.06824900  0.16006500  0.38954400  1
  C  1357  1  0.05421800  0.15155300  0.41271000  1
  C  1365  1  0.10820300  0.76923600  0.57968800  1
  C  1366  1  0.09007000  0.77891400  0.59559400  1
  C  1367  1  0.07578700  0.76318000  0.61074300  1
  C  1368  1  0.07950500  0.73739700  0.61032300  1
  C  1369  1  0.09735000  0.72786800  0.59410400  1
  C  1370  1  0.11151500  0.74345700  0.57909400  1
  C  1372  1  0.05351200  0.79827700  0.62603800  1
  C  1373  1  0.06807700  0.81404400  0.61119000  1
  C  1377  1  0.03366600  0.80627900  0.64294000  1
  C  1378  1  0.04358400  0.81320200  0.66862400  1
  C  1384  1  0.06525600  0.84112300  0.60943300  1
  C  1385  1  0.04832400  0.84863700  0.58792500  1
  C  1393  1  0.55564500  0.76742700  0.08440100  1
  C  1394  1  0.57618300  0.77955000  0.07395500  1
  C  1395  1  0.59239100  0.76669800  0.05808400  1
  C  1396  1  0.58851900  0.74159300  0.05258700  1
  C  1397  1  0.56819400  0.72956300  0.06343200  1
  C  1398  1  0.55217700  0.74226000  0.07924300  1
  C  1400  1  0.61681200  0.80333700  0.05324000  1
  C  1401  1  0.60055500  0.81624900  0.06910100  1
  C  1405  1  0.63909000  0.81381200  0.04146100  1
  C  1406  1  0.66106500  0.81576600  0.05935600  1
  C  1412  1  0.60238900  0.84259700  0.07609000  1
  C  1413  1  0.58070600  0.85800300  0.06611100  1
  C  1421  1  0.44504500  0.23374100  0.08451900  1
  C  1422  1  0.42449800  0.22158500  0.07412500  1
  C  1423  1  0.40822000  0.23440900  0.05830100  1
  C  1424  1  0.41203700  0.25952200  0.05279600  1
  C  1425  1  0.43238000  0.27157800  0.06357900  1
  C  1426  1  0.44846300  0.25890800  0.07934600  1
  C  1428  1  0.38386200  0.19771900  0.05351700  1
  C  1429  1  0.40020900  0.18482900  0.06930400  1
  C  1433  1  0.36154900  0.18720500  0.04183600  1
  C  1434  1  0.33969900  0.18507300  0.05986400  1
  C  1440  1  0.39848700  0.15846300  0.07625600  1
  C  1441  1  0.42026200  0.14316600  0.06630500  1
  C  1449  1  0.44545500  0.76750300  0.91684700  1
  C  1450  1  0.42494100  0.77964500  0.92731900  1
  C  1451  1  0.40873300  0.76680600  0.94319700  1
  C  1452  1  0.41257800  0.74169200  0.94867400  1
  C  1453  1  0.43287500  0.72964200  0.93780200  1
  C  1454  1  0.44889300  0.74232800  0.92198200  1
  C  1456  1  0.38436700  0.80347300  0.94809000  1
  C  1457  1  0.40062300  0.81637300  0.93221800  1
  C  1461  1  0.36211700  0.81397000  0.95990300  1
  C  1462  1  0.34012000  0.81595700  0.94204100  1
  C  1468  1  0.39881400  0.84272500  0.92524500  1
  C  1469  1  0.42052500  0.85810000  0.93521200  1
  C  1477  1  0.55516600  0.23555800  0.91562100  1
  C  1478  1  0.57529000  0.22334200  0.92674700  1
  C  1479  1  0.59136900  0.23630100  0.94265700  1
  C  1480  1  0.58783500  0.26159300  0.94745000  1
  C  1481  1  0.56797300  0.27372200  0.93590100  1
  C  1482  1  0.55203400  0.26090200  0.92010300  1
  C  1484  1  0.61498000  0.19937700  0.94903200  1
  C  1485  1  0.59896800  0.18639400  0.93298300  1
  C  1489  1  0.63661800  0.18878000  0.96184400  1
  C  1490  1  0.65931400  0.18653200  0.94491400  1
  C  1496  1  0.60064600  0.15990200  0.92653700  1
  C  1497  1  0.57878500  0.14488500  0.93671000  1
  C  1505  1  0.08428800  0.55572800  0.76731400  1
  C  1506  1  0.07384600  0.57625100  0.77946300  1
  C  1507  1  0.05795800  0.59246600  0.76663900  1
  C  1508  1  0.05243800  0.58860900  0.74153600  1
  C  1509  1  0.06327500  0.56829500  0.72948200  1
  C  1510  1  0.07910500  0.55227500  0.74215200  1
  C  1512  1  0.05314900  0.61686200  0.80329800  1
  C  1513  1  0.06902300  0.60059700  0.81618300  1
  C  1517  1  0.04138100  0.63913400  0.81379800  1
  C  1518  1  0.05927800  0.66110700  0.81575000  1
  C  1524  1  0.07603400  0.60241300  0.84252700  1
  C  1525  1  0.06606200  0.58072100  0.85792600  1
  C  1533  1  0.08463400  0.44491300  0.23359900  1
  C  1534  1  0.07422600  0.42436200  0.22146600  1
  C  1535  1  0.05840300  0.40810100  0.23431000  1
  C  1536  1  0.05291700  0.41193500  0.25942400  1
  C  1537  1  0.06371700  0.43228300  0.27146000  1
  C  1538  1  0.07948200  0.44834900  0.25876800  1
  C  1540  1  0.05358400  0.38372200  0.19763600  1
  C  1541  1  0.06937500  0.40005100  0.18472700  1
  C  1545  1  0.04188400  0.36140900  0.18714400  1
  C  1546  1  0.05989500  0.33954400  0.18502000  1
  C  1552  1  0.07631900  0.39830200  0.15836200  1
  C  1553  1  0.06639300  0.42007600  0.14304900  1
  C  1561  1  0.91689800  0.44553000  0.76754100  1
  C  1562  1  0.92736600  0.42501300  0.77968400  1
  C  1563  1  0.94323200  0.40879400  0.76683900  1
  C  1564  1  0.94870200  0.41263100  0.74172400  1
  C  1565  1  0.93783500  0.43293400  0.72967500  1
  C  1566  1  0.92202900  0.44896300  0.74236500  1
  C  1568  1  0.94812300  0.38442800  0.80350800  1
  C  1569  1  0.93226600  0.40069400  0.81641100  1
  C  1573  1  0.95992900  0.36217200  0.81400200  1
  C  1574  1  0.94205400  0.34018400  0.81599200  1
  C  1580  1  0.92530200  0.39889100  0.84276700  1
  C  1581  1  0.93529800  0.42059100  0.85813900  1
  C  1589  1  0.91567200  0.55511100  0.23555400  1
  C  1590  1  0.92679500  0.57524200  0.22334600  1
  C  1591  1  0.94271600  0.59130700  0.23630400  1
  C  1592  1  0.94752900  0.58775400  0.26159100  1
  C  1593  1  0.93598400  0.56788700  0.27371500  1
  C  1594  1  0.92017300  0.55196000  0.26089400  1
  C  1596  1  0.94906900  0.61494300  0.19939300  1
  C  1597  1  0.93300800  0.59894500  0.18640900  1
  C  1601  1  0.96187500  0.63658900  0.18880200  1
  C  1602  1  0.94494500  0.65928600  0.18657800  1
  C  1608  1  0.92654500  0.60064100  0.15992400  1
  C  1609  1  0.93669700  0.57878500  0.14488600  1
  C  1617  1  0.76731400  0.08435400  0.55568800  1
  C  1618  1  0.77945600  0.07389700  0.57620900  1
  C  1619  1  0.76662100  0.05801500  0.59241800  1
  C  1620  1  0.74151200  0.05251700  0.58856500  1
  C  1621  1  0.72946300  0.06336900  0.56825500  1
  C  1622  1  0.74214600  0.07919300  0.55223600  1
  C  1624  1  0.80327800  0.05316600  0.61680800  1
  C  1625  1  0.81617600  0.06903500  0.60054900  1
  C  1629  1  0.81377200  0.04137900  0.63907400  1
  C  1630  1  0.81573500  0.05926300  0.66105600  1
  C  1636  1  0.84252300  0.07602400  0.60236300  1
  C  1637  1  0.85791500  0.06603700  0.58067300  1
  C  1645  1  0.23345000  0.08433700  0.44521400  1
  C  1646  1  0.22137000  0.07397900  0.42460600  1
  C  1647  1  0.23423100  0.05812100  0.40839500  1
  C  1648  1  0.25931000  0.05254800  0.41233500  1
  C  1649  1  0.27129700  0.06329400  0.43273900  1
  C  1650  1  0.25858600  0.07909000  0.44876100  1
  C  1652  1  0.19765500  0.05344600  0.38384300  1
  C  1653  1  0.18472700  0.06927400  0.40012100  1
  C  1657  1  0.18722500  0.04179100  0.36147700  1
  C  1658  1  0.18526000  0.05981900  0.33961200  1
  C  1664  1  0.15839700  0.07631800  0.39825000  1
  C  1665  1  0.14294300  0.06643900  0.41994600  1
  C  1673  1  0.76748400  0.91692900  0.44542900  1
  C  1674  1  0.77962100  0.92739800  0.42491000  1
  C  1675  1  0.76677700  0.94327300  0.40870000  1
  C  1676  1  0.74166500  0.94874900  0.41254800  1
  C  1677  1  0.72961800  0.93788100  0.43285100  1
  C  1678  1  0.74231000  0.92206600  0.44887100  1
  C  1680  1  0.80344000  0.94816000  0.38432300  1
  C  1681  1  0.81634300  0.93229500  0.40058400  1
  C  1685  1  0.81393000  0.95996200  0.36206500  1
  C  1686  1  0.81592000  0.94208700  0.34007900  1
  C  1692  1  0.84269800  0.92532800  0.39877400  1
  C  1693  1  0.85807300  0.93530400  0.42048000  1
  C  1701  1  0.23564600  0.91561200  0.55509600  1
  C  1702  1  0.22343600  0.92672900  0.57522900  1
  C  1703  1  0.23639600  0.94264400  0.59130100  1
  C  1704  1  0.26168300  0.94745600  0.58775000  1
  C  1705  1  0.27380700  0.93592000  0.56787800  1
  C  1706  1  0.26098600  0.92011400  0.55194600  1
  C  1708  1  0.19948700  0.94898800  0.61494100  1
  C  1709  1  0.18650300  0.93293300  0.59893700  1
  C  1713  1  0.18889800  0.96179100  0.63658900  1
  C  1714  1  0.18668800  0.94486200  0.65928800  1
  C  1720  1  0.16001600  0.92647100  0.60063400  1
  C  1721  1  0.14497300  0.93666800  0.57880400  1
  C  1729  1  0.76694200  0.55551100  0.91641100  1
  C  1730  1  0.77903200  0.57599600  0.92699900  1
  C  1731  1  0.76611000  0.59216100  0.94285600  1
  C  1732  1  0.74096800  0.58830400  0.94818900  1
  C  1733  1  0.72897300  0.56803200  0.93720600  1
  C  1734  1  0.74174200  0.55205800  0.92140800  1
  C  1736  1  0.80275100  0.61651100  0.94801100  1
  C  1737  1  0.81573300  0.60029900  0.93215900  1
  C  1741  1  0.81318800  0.63872300  0.95994600  1
  C  1742  1  0.81522400  0.66078600  0.94217000  1
  C  1748  1  0.84212200  0.60212800  0.92533400  1
  C  1749  1  0.85745500  0.58043600  0.93540700  1
  C  1757  1  0.23514300  0.44589400  0.91525300  1
  C  1758  1  0.22300200  0.42574000  0.92641300  1
  C  1759  1  0.23600300  0.40977000  0.94239600  1
  C  1760  1  0.26126900  0.41343600  0.94722800  1
  C  1761  1  0.27332600  0.43332100  0.93564600  1
  C  1762  1  0.26046300  0.44915800  0.91978000  1
  C  1764  1  0.19917100  0.38601000  0.94876800  1
  C  1765  1  0.18614600  0.40191800  0.93264800  1
  C  1769  1  0.18864900  0.36434600  0.96160000  1
  C  1770  1  0.18646600  0.34162800  0.94469200  1
  C  1776  1  0.15967700  0.40010600  0.92614600  1
  C  1777  1  0.14455900  0.42201300  0.93607000  1
  C  1785  1  0.76795100  0.44477100  0.08485800  1
  C  1786  1  0.78005500  0.42425700  0.07434300  1
  C  1787  1  0.76719600  0.40811900  0.05840500  1
  C  1788  1  0.74210000  0.41204700  0.05290400  1
  C  1789  1  0.73008800  0.43234700  0.06381900  1
  C  1790  1  0.74279300  0.44828700  0.07969900  1
  C  1792  1  0.80381300  0.38368000  0.05348900  1
  C  1793  1  0.81673800  0.39988000  0.06939800  1
  C  1797  1  0.81426800  0.36141400  0.04166400  1
  C  1798  1  0.81626600  0.33942100  0.05953000  1
  C  1804  1  0.84308900  0.39801700  0.07637300  1
  C  1805  1  0.85848800  0.41976900  0.06653500  1
  C  1813  1  0.23417200  0.55571300  0.08482600  1
  C  1814  1  0.22210500  0.57627700  0.07436500  1
  C  1815  1  0.23500300  0.59244200  0.05848800  1
  C  1816  1  0.26010200  0.58850600  0.05301300  1
  C  1817  1  0.27207000  0.56814300  0.06385300  1
  C  1818  1  0.25932500  0.55216400  0.07966700  1
  C  1820  1  0.19842100  0.61694400  0.05361400  1
  C  1821  1  0.18546300  0.60071800  0.06946800  1
  C  1825  1  0.18800400  0.63925400  0.04184000  1
  C  1826  1  0.18604300  0.66121000  0.05975800  1
  C  1832  1  0.15911100  0.60260000  0.07643400  1
  C  1833  1  0.14368400  0.58090600  0.06651100  1
  C  1841  1  0.55567300  0.08499600  0.23418300  1
  C  1842  1  0.57619800  0.07448600  0.22209400  1
  C  1843  1  0.59235200  0.05858800  0.23498300  1
  C  1844  1  0.58843600  0.05313300  0.26008900  1
  C  1845  1  0.56812400  0.06403900  0.27208500  1
  C  1846  1  0.55216300  0.07987900  0.25935200  1
  C  1848  1  0.61679900  0.05364200  0.19837700  1
  C  1849  1  0.60059300  0.06952400  0.18542800  1
  C  1853  1  0.63907000  0.04181000  0.18794200  1
  C  1854  1  0.66108000  0.05966300  0.18599900  1
  C  1860  1  0.60247100  0.07647700  0.15907400  1
  C  1861  1  0.58078500  0.06652300  0.14365600  1
  C  1869  1  0.44474500  0.08484300  0.76799700  1
  C  1870  1  0.42423500  0.07434400  0.78012300  1
  C  1871  1  0.40806800  0.05842500  0.76727700  1
  C  1872  1  0.41196200  0.05292300  0.74217600  1
  C  1873  1  0.43227700  0.06379800  0.73015400  1
  C  1874  1  0.44824600  0.07966100  0.74284300  1
  C  1876  1  0.38365400  0.05354300  0.80391600  1
  C  1877  1  0.39988900  0.06942500  0.81683000  1
  C  1881  1  0.36138300  0.04174300  0.81438800  1
  C  1882  1  0.33941700  0.05963900  0.81642600  1
  C  1888  1  0.39806600  0.07638700  0.84318500  1
  C  1889  1  0.41982100  0.06650400  0.85855400  1
  C  1897  1  0.44566100  0.91622900  0.23442100  1
  C  1898  1  0.42518300  0.92681700  0.22231500  1
  C  1899  1  0.40904000  0.94272000  0.23520700  1
  C  1900  1  0.41290900  0.94809200  0.26033800  1
  C  1901  1  0.43316700  0.93710900  0.27235100  1
  C  1902  1  0.44912500  0.92127000  0.25961200  1
  C  1904  1  0.38469400  0.94783200  0.19855500  1
  C  1905  1  0.40088400  0.93193000  0.18560600  1
  C  1909  1  0.36249000  0.95976400  0.18809800  1
  C  1910  1  0.34042100  0.94199400  0.18607300  1
  C  1916  1  0.39903700  0.92503600  0.15923500  1
  C  1917  1  0.42079100  0.93494200  0.14388100  1
  C  1925  1  0.55546000  0.91656200  0.76713000  1
  C  1926  1  0.57598100  0.92708700  0.77921200  1
  C  1927  1  0.59217400  0.94291800  0.76629200  1
  C  1928  1  0.58830500  0.94828600  0.74115900  1
  C  1929  1  0.56797700  0.93739200  0.72918000  1
  C  1930  1  0.55197500  0.92161900  0.74194600  1
  C  1932  1  0.61657900  0.94795900  0.80291200  1
  C  1933  1  0.60033400  0.93214300  0.81589500  1
  C  1937  1  0.63883800  0.95981500  0.81334000  1
  C  1938  1  0.66084100  0.94196100  0.81536000  1
  C  1944  1  0.60216400  0.92529100  0.84227900  1
  C  1945  1  0.58050000  0.93539200  0.85763200  1
  C  1953  1  0.08495900  0.76788000  0.44477100  1
  C  1954  1  0.07442600  0.77998500  0.42426800  1
  C  1955  1  0.05850500  0.76711500  0.40812300  1
  C  1956  1  0.05303900  0.74200800  0.41203000  1
  C  1957  1  0.06397100  0.72999800  0.43232200  1
  C  1958  1  0.07983500  0.74271200  0.44827000  1
  C  1960  1  0.05353600  0.80374500  0.38371100  1
  C  1961  1  0.06942700  0.81667900  0.39992100  1
  C  1965  1  0.04169300  0.81419800  0.36145500  1
  C  1966  1  0.05955200  0.81623700  0.33946000  1
  C  1972  1  0.07636200  0.84304100  0.39807500  1
  C  1973  1  0.06649200  0.85840900  0.41983700  1
  C  1981  1  0.08479300  0.23431900  0.55560900  1
  C  1982  1  0.07433300  0.22222800  0.57615700  1
  C  1983  1  0.05844800  0.23510400  0.59233400  1
  C  1984  1  0.05296600  0.26020500  0.58842100  1
  C  1985  1  0.06380500  0.27219700  0.56807100  1
  C  1986  1  0.07962600  0.25947400  0.55208400  1
  C  1988  1  0.05359000  0.19849600  0.61680100  1
  C  1989  1  0.06945300  0.18556000  0.60056600  1
  C  1993  1  0.04181700  0.18805400  0.63909900  1
  C  1994  1  0.05973200  0.18608600  0.66105600  1
  C  2000  1  0.07643400  0.15921300  0.60242500  1
  C  2001  1  0.06652100  0.14379900  0.58071700  1
  C  2009  1  0.91640900  0.76705400  0.55542500  1
  C  2010  1  0.92698200  0.77914700  0.57591700  1
  C  2011  1  0.94283200  0.76622900  0.59209300  1
  C  2012  1  0.94816900  0.74108800  0.58823900  1
  C  2013  1  0.93720100  0.72908900  0.56796400  1
  C  2014  1  0.92141200  0.74185400  0.55197700  1
  C  2016  1  0.94796800  0.80287400  0.61644100  1
  C  2017  1  0.93212300  0.81585100  0.60022000  1
  C  2021  1  0.95989400  0.81331600  0.63865600  1
  C  2022  1  0.94211100  0.81534200  0.66071400  1
  C  2028  1  0.92529000  0.84223800  0.60204500  1
  C  2029  1  0.93537700  0.85757500  0.58036400  1
  C  2037  1  0.91530100  0.23517800  0.44588100  1
  C  2038  1  0.92643300  0.22303700  0.42571500  1
  C  2039  1  0.94242400  0.23602500  0.40974200  1
  C  2040  1  0.94729200  0.26128200  0.41342100  1
  C  2041  1  0.93573800  0.27334200  0.43332300  1
  C  2042  1  0.91986100  0.26049000  0.44916000  1
  C  2044  1  0.94872600  0.19920000  0.38595300  1
  C  2045  1  0.93260600  0.18618700  0.40186900  1
  C  2049  1  0.96151700  0.18867500  0.36426500  1
  C  2050  1  0.94457000  0.18650500  0.34157500  1
  C  2056  1  0.92607300  0.15972400  0.40004900  1
  C  2057  1  0.93596600  0.14459000  0.42196000  1
  N  727  1  0.37638200  0.22613000  0.94282100  1
  N  730  1  0.40519900  0.19788300  0.91470400  1
  N  747  1  0.43494600  0.21798500  0.87916200  1
  N  748  1  0.37603300  0.27911100  0.93503700  1
  N  755  1  0.62550100  0.77515400  0.94287800  1
  N  758  1  0.59648700  0.80401100  0.91559700  1
  N  775  1  0.56557500  0.78456000  0.88068200  1
  N  776  1  0.62464700  0.72220600  0.93496600  1
  N  783  1  0.62750300  0.22733400  0.05909600  1
  N  786  1  0.59847400  0.19779800  0.08560700  1
  N  803  1  0.56543400  0.21663400  0.11903500  1
  N  804  1  0.62372800  0.28031300  0.06545900  1
  N  811  1  0.37540400  0.77527500  0.05839100  1
  N  814  1  0.40449300  0.80409800  0.08562200  1
  N  831  1  0.43542200  0.78461300  0.12048900  1
  N  832  1  0.37625100  0.72231600  0.06627700  1
  N  839  1  0.94289200  0.37637100  0.22613900  1
  N  842  1  0.91474800  0.40515300  0.19788300  1
  N  859  1  0.87921500  0.43491500  0.21798100  1
  N  860  1  0.93514800  0.37606600  0.27912200  1
  N  867  1  0.94281700  0.62569800  0.77517800  1
  N  870  1  0.91562300  0.59657900  0.80400900  1
  N  887  1  0.88072200  0.56566900  0.78454300  1
  N  888  1  0.93483700  0.62493100  0.72223200  1
  N  895  1  0.05921200  0.62728900  0.22731900  1
  N  898  1  0.08573500  0.59832500  0.19772500  1
  N  915  1  0.11918400  0.56526500  0.21649600  1
  N  916  1  0.06557800  0.62343000  0.28028400  1
  N  923  1  0.05844000  0.37556600  0.77519800  1
  N  926  1  0.08572000  0.40469200  0.80393800  1
  N  943  1  0.12058900  0.43556200  0.78435800  1
  N  944  1  0.06629200  0.37628800  0.72223200  1
  N  951  1  0.22577500  0.94265200  0.37625500  1
  N  954  1  0.19771900  0.91452700  0.40524700  1
  N  971  1  0.21800700  0.87899700  0.43486900  1
  N  972  1  0.27877300  0.93488900  0.37558800  1
  N  979  1  0.77509900  0.94285600  0.62563000  1
  N  982  1  0.80397300  0.91567400  0.59654400  1
  N  999  1  0.78454700  0.88081000  0.56555500  1
  N  1000  1  0.72215300  0.93491800  0.62474400  1
  N  1007  1  0.22740000  0.05903800  0.62743300  1
  N  1010  1  0.19762400  0.08550600  0.59861000  1
  N  1027  1  0.21617800  0.11897500  0.56545200  1
  N  1028  1  0.28033100  0.06548000  0.62330900  1
  N  1035  1  0.77519600  0.05848200  0.37553100  1
  N  1038  1  0.80394900  0.08574700  0.40465700  1
  N  1055  1  0.78438700  0.12063000  0.43552100  1
  N  1056  1  0.72223500  0.06636600  0.37624900  1
  N  1063  1  0.22743700  0.37469300  0.05943700  1
  N  1066  1  0.19802600  0.40320700  0.08665400  1
  N  1083  1  0.21703100  0.43579300  0.12043200  1
  N  1084  1  0.28041800  0.37845300  0.06545700  1
  N  1091  1  0.77369300  0.62495500  0.05824500  1
  N  1094  1  0.80338800  0.59661100  0.08534400  1
  N  1111  1  0.78478400  0.56488200  0.12004300  1
  N  1112  1  0.72088400  0.62245000  0.06601400  1
  N  1119  1  0.22749900  0.62428600  0.94277700  1
  N  1122  1  0.19830500  0.59638100  0.91468200  1
  N  1139  1  0.21747000  0.56597600  0.87913800  1
  N  1140  1  0.28032800  0.62294800  0.93501000  1
  N  1147  1  0.77505400  0.37656900  0.94278400  1
  N  1150  1  0.80375600  0.40524100  0.91497600  1
  N  1167  1  0.78411300  0.43560200  0.87968200  1
  N  1168  1  0.72212100  0.37702700  0.93491800  1
  N  1175  1  0.37613700  0.94300100  0.77544000  1
  N  1178  1  0.40500200  0.91534300  0.80408800  1
  N  1195  1  0.43539400  0.88010700  0.78442000  1
  N  1196  1  0.37650500  0.93508900  0.72248300  1
  N  1203  1  0.62432300  0.94290300  0.22746600  1
  N  1206  1  0.59626500  0.91499600  0.19824300  1
  N  1223  1  0.56560500  0.87965800  0.21736500  1
  N  1224  1  0.62284900  0.93516200  0.28030400  1
  N  1231  1  0.62486300  0.05819600  0.77385400  1
  N  1234  1  0.59644900  0.08534000  0.80344700  1
  N  1251  1  0.56489000  0.12012500  0.78473800  1
  N  1252  1  0.62263600  0.06604400  0.72104400  1
  N  1259  1  0.37707800  0.05851600  0.22780600  1
  N  1262  1  0.40501900  0.08643200  0.19847600  1
  N  1279  1  0.43592400  0.12163600  0.21750000  1
  N  1280  1  0.37896400  0.06604100  0.28064700  1
  N  1287  1  0.94275300  0.22752100  0.62430100  1
  N  1290  1  0.91467800  0.19833700  0.59636800  1
  N  1307  1  0.87914500  0.21750500  0.56595600  1
  N  1308  1  0.93498200  0.28035300  0.62297200  1
  N  1315  1  0.94291400  0.77496800  0.37642200  1
  N  1318  1  0.91513200  0.80374100  0.40504800  1
  N  1335  1  0.87986800  0.78417600  0.43549500  1
  N  1336  1  0.93509100  0.72203300  0.37705400  1
  N  1343  1  0.05954100  0.22744800  0.37489300  1
  N  1346  1  0.08690600  0.19811100  0.40335000  1
  N  1363  1  0.12081400  0.21720200  0.43574400  1
  N  1364  1  0.06556000  0.28043100  0.37848600  1
  N  1371  1  0.05823300  0.77378300  0.62493100  1
  N  1374  1  0.08538300  0.80344000  0.59659400  1
  N  1391  1  0.12009600  0.78478900  0.56491000  1
  N  1392  1  0.06597400  0.72096700  0.62247200  1
  N  1399  1  0.61176300  0.77929300  0.04859900  1
  N  1402  1  0.58124300  0.80353200  0.07859600  1
  N  1419  1  0.53927400  0.77767900  0.09934900  1
  N  1420  1  0.60372700  0.73083100  0.03673100  1
  N  1427  1  0.38884600  0.22177600  0.04887200  1
  N  1430  1  0.41951200  0.19758900  0.07875700  1
  N  1447  1  0.46151400  0.22348900  0.09936000  1
  N  1448  1  0.39683100  0.27023600  0.03690300  1
  N  1455  1  0.38938800  0.77941900  0.95271000  1
  N  1458  1  0.41990900  0.80363600  0.92269600  1
  N  1475  1  0.46182200  0.77774900  0.90189000  1
  N  1476  1  0.39736200  0.73093900  0.96452900  1
  N  1483  1  0.61024700  0.22360500  0.95295800  1
  N  1486  1  0.58007700  0.19918400  0.92275500  1
  N  1503  1  0.53880700  0.22517600  0.90074500  1
  N  1504  1  0.60288900  0.27240300  0.96338600  1
  N  1511  1  0.04848500  0.61182800  0.77925600  1
  N  1514  1  0.07850900  0.58129400  0.80344300  1
  N  1531  1  0.09927100  0.53936800  0.77753000  1
  N  1532  1  0.03658500  0.60383300  0.73079600  1
  N  1539  1  0.04895600  0.38872300  0.22169500  1
  N  1542  1  0.07884400  0.41935800  0.19746900  1
  N  1559  1  0.09946800  0.46137400  0.22332400  1
  N  1560  1  0.03702200  0.39674700  0.27015900  1
  N  1567  1  0.95273800  0.38944500  0.77945200  1
  N  1570  1  0.92275000  0.41998600  0.80367700  1
  N  1587  1  0.90195100  0.46190700  0.77778700  1
  N  1588  1  0.96454600  0.39740800  0.73096700  1
  N  1595  1  0.95301300  0.61019200  0.22361400  1
  N  1598  1  0.92278600  0.58004600  0.19919300  1
  N  1615  1  0.90079100  0.53875900  0.22517300  1
  N  1616  1  0.96348300  0.60278900  0.27239900  1
  N  1623  1  0.77923200  0.04852400  0.61177600  1
  N  1626  1  0.80344200  0.07853800  0.58125000  1
  N  1643  1  0.77753900  0.09933100  0.53933100  1
  N  1644  1  0.73076300  0.03666300  0.60378000  1
  N  1651  1  0.22167300  0.04873100  0.38895200  1
  N  1654  1  0.19741400  0.07868700  0.41949200  1
  N  1671  1  0.22316400  0.09922100  0.46162400  1
  N  1672  1  0.27007100  0.03668900  0.39712900  1
  N  1679  1  0.77938600  0.95278000  0.38934900  1
  N  1682  1  0.80361200  0.92277700  0.41987400  1
  N  1699  1  0.77773200  0.90197700  0.46179800  1
  N  1700  1  0.73090800  0.96460400  0.39733500  1
  N  1707  1  0.22370800  0.95293200  0.61019000  1
  N  1710  1  0.19928500  0.92271800  0.58003300  1
  N  1727  1  0.22526600  0.90073100  0.53874500  1
  N  1728  1  0.27248900  0.96340800  0.60278700  1
  N  1735  1  0.77867300  0.61147700  0.95249100  1
  N  1738  1  0.80304800  0.58103700  0.92251800  1
  N  1755  1  0.77726900  0.53916000  0.90149300  1
  N  1756  1  0.73014700  0.60340500  0.96410100  1
  N  1763  1  0.22337000  0.39086400  0.95272700  1
  N  1766  1  0.19887500  0.42083100  0.92238800  1
  N  1783  1  0.22470900  0.46218300  0.90033700  1
  N  1784  1  0.27212200  0.39849300  0.96324100  1
  N  1791  1  0.77977400  0.38876700  0.04885800  1
  N  1794  1  0.80403300  0.41916600  0.07896300  1
  N  1811  1  0.77821000  0.46111700  0.09982400  1
  N  1812  1  0.73133300  0.39695600  0.03693600  1
  N  1819  1  0.22245800  0.61184100  0.04898800  1
  N  1822  1  0.19813300  0.58138600  0.07898500  1
  N  1839  1  0.22384400  0.53933300  0.09970900  1
  N  1840  1  0.27089200  0.60360200  0.03707300  1
  N  1847  1  0.61171400  0.04904100  0.22242100  1
  N  1850  1  0.58128900  0.07908400  0.19811200  1
  N  1867  1  0.53932500  0.09993400  0.22388400  1
  N  1868  1  0.60353500  0.03719700  0.27087900  1
  N  1875  1  0.38871400  0.04890500  0.77987300  1
  N  1878  1  0.41917400  0.07896800  0.80410700  1
  N  1895  1  0.46111100  0.09980100  0.77823800  1
  N  1896  1  0.39684200  0.03696900  0.73142600  1
  N  1903  1  0.38973500  0.95235500  0.22262300  1
  N  1906  1  0.42013300  0.92228800  0.19830900  1
  N  1923  1  0.46198800  0.90127500  0.22411000  1
  N  1924  1  0.39782200  0.96403300  0.27113500  1
  N  1931  1  0.61153200  0.95248400  0.77884600  1
  N  1934  1  0.58103500  0.92256800  0.80321900  1
  N  1951  1  0.53908500  0.90167000  0.77745300  1
  N  1952  1  0.60342500  0.96418500  0.73034600  1
  N  1959  1  0.04893900  0.77969500  0.38878000  1
  N  1962  1  0.07901100  0.80397500  0.41919400  1
  N  1979  1  0.09991600  0.77814600  0.46112400  1
  N  1980  1  0.03708300  0.73123100  0.39693600  1
  N  1987  1  0.04895200  0.22253500  0.61171900  1
  N  1990  1  0.07896500  0.19825400  0.58124600  1
  N  2007  1  0.09969800  0.22400900  0.53923700  1
  N  2008  1  0.03703000  0.27097900  0.60353400  1
  N  2015  1  0.95245600  0.77879600  0.61141200  1
  N  2018  1  0.92249400  0.80316400  0.58095400  1
  N  2035  1  0.90150300  0.77737700  0.53906300  1
  N  2036  1  0.96407100  0.73027000  0.60335400  1
  N  2043  1  0.95272100  0.22339200  0.39081800  1
  N  2046  1  0.92237300  0.19891700  0.42079500  1
  N  2063  1  0.90037800  0.22475200  0.46216800  1
  N  2064  1  0.96331400  0.27212500  0.39848200  1
  O  8  1  0.26831700  0.39500600  0.01532800  1
  O  15  1  0.39193200  0.26600900  0.98492500  1
  O  17  1  0.33120800  0.36065000  0.96334700  1
  O  18  1  0.36028600  0.33040100  0.03688500  1
  O  38  1  0.73313400  0.60702400  0.01634700  1
  O  45  1  0.60851800  0.73483000  0.98465700  1
  O  47  1  0.67088300  0.64115400  0.96343000  1
  O  48  1  0.64041200  0.67085700  0.03693000  1
  O  68  1  0.73517500  0.39257100  0.98483500  1
  O  75  1  0.60682700  0.26832100  0.01538100  1
  O  77  1  0.67130900  0.36027700  0.03703000  1
  O  78  1  0.64066300  0.33158100  0.96350200  1
  O  98  1  0.26781800  0.60727200  0.98476400  1
  O  105  1  0.39248700  0.73495900  0.01660600  1
  O  107  1  0.33017300  0.64122200  0.03768300  1
  O  108  1  0.36065200  0.67099100  0.96427900  1
  O  128  1  0.01541300  0.26831900  0.39503400  1
  O  135  1  0.98503900  0.39190000  0.26598700  1
  O  137  1  0.96345400  0.33119700  0.36063200  1
  O  138  1  0.03702000  0.36022400  0.33034400  1
  O  158  1  0.01632100  0.73324000  0.60700000  1
  O  165  1  0.98451500  0.60871100  0.73484800  1
  O  167  1  0.96334700  0.67104100  0.64114100  1
  O  168  1  0.03678900  0.64051300  0.67082900  1
  O  188  1  0.98499300  0.73504500  0.39255600  1
  O  195  1  0.01549500  0.60662900  0.26834700  1
  O  197  1  0.03720100  0.67120200  0.36023800  1
  O  198  1  0.96363400  0.64057500  0.33155500  1
  O  218  1  0.98472900  0.26787100  0.60725300  1
  O  225  1  0.01661600  0.39252000  0.73494900  1
  O  227  1  0.03764200  0.33024100  0.64118700  1
  O  228  1  0.96425200  0.36067700  0.67101900  1
  O  248  1  0.39440000  0.01633200  0.26829200  1
  O  255  1  0.26577000  0.98463100  0.39204400  1
  O  257  1  0.35982700  0.96329400  0.33020100  1
  O  258  1  0.33024700  0.03671400  0.36083900  1
  O  278  1  0.60715600  0.01642100  0.73337400  1
  O  285  1  0.73474000  0.98458200  0.60857700  1
  O  287  1  0.64110800  0.96347800  0.67104400  1
  O  288  1  0.67084800  0.03691500  0.64053300  1
  O  308  1  0.39214500  0.98493400  0.73551900  1
  O  315  1  0.26852500  0.01542700  0.60655700  1
  O  317  1  0.36039300  0.03697100  0.67124800  1
  O  318  1  0.33154600  0.96347400  0.64072200  1
  O  338  1  0.60721800  0.98490900  0.26779900  1
  O  345  1  0.73492500  0.01667500  0.39246800  1
  O  347  1  0.64118300  0.03780200  0.33017000  1
  O  348  1  0.67094200  0.96437100  0.36063200  1
  O  368  1  0.77243200  0.89889100  0.51488800  1
  O  375  1  0.89809700  0.77182000  0.48609600  1
  O  377  1  0.83732200  0.86688200  0.46378700  1
  O  378  1  0.86695900  0.83734200  0.53692700  1
  O  398  1  0.22806000  0.10167900  0.51480500  1
  O  405  1  0.10303400  0.22955400  0.48629300  1
  O  407  1  0.16377100  0.13460400  0.46355500  1
  O  408  1  0.13407800  0.16391400  0.53701000  1
  O  428  1  0.23103900  0.89737500  0.48563000  1
  O  435  1  0.10246700  0.77317800  0.51430500  1
  O  437  1  0.16505600  0.86692900  0.53626000  1
  O  438  1  0.13560900  0.83732700  0.46300000  1
  O  458  1  0.77234200  0.10233000  0.48620700  1
  O  465  1  0.89713800  0.23019200  0.51533800  1
  O  467  1  0.83691600  0.13475400  0.53744300  1
  O  468  1  0.86634500  0.16466800  0.46431600  1
  O  488  1  0.51490400  0.77241000  0.89877200  1
  O  495  1  0.48607600  0.89840200  0.77201700  1
  O  497  1  0.46384000  0.83737900  0.86686100  1
  O  498  1  0.53700600  0.86696200  0.83731600  1
  O  518  1  0.51475200  0.22857800  0.10174200  1
  O  525  1  0.48649200  0.10355200  0.22961100  1
  O  527  1  0.46367500  0.16409900  0.13457600  1
  O  528  1  0.53706100  0.13437200  0.16373800  1
  O  548  1  0.48568300  0.23093800  0.89743700  1
  O  555  1  0.51426500  0.10241300  0.77317800  1
  O  557  1  0.53631500  0.16498500  0.86692900  1
  O  558  1  0.46304800  0.13549000  0.83743200  1
  O  578  1  0.48617200  0.77245200  0.10234100  1
  O  585  1  0.51497800  0.89786200  0.22966400  1
  O  587  1  0.53731100  0.83720100  0.13457700  1
  O  588  1  0.46413600  0.86679500  0.16411800  1
  O  608  1  0.89885800  0.51498500  0.77244800  1
  O  615  1  0.77168600  0.48621400  0.89799600  1
  O  617  1  0.86683900  0.46392300  0.83736800  1
  O  618  1  0.83727600  0.53703900  0.86698100  1
  O  638  1  0.10191300  0.51458100  0.22845900  1
  O  645  1  0.22928400  0.48637800  0.10285600  1
  O  647  1  0.13448800  0.46358900  0.16378800  1
  O  648  1  0.16383300  0.53711800  0.13426100  1
  O  668  1  0.89748000  0.48563900  0.23092300  1
  O  675  1  0.77321500  0.51428000  0.10240700  1
  O  677  1  0.86696400  0.53628000  0.16498200  1
  O  678  1  0.83740600  0.46300600  0.13551300  1
  O  698  1  0.10228000  0.48625100  0.77232000  1
  O  705  1  0.23014900  0.51535500  0.89711600  1
  O  707  1  0.13471500  0.53747700  0.83689700  1
  O  708  1  0.16462800  0.46434200  0.86630400  1
