# generated using pymatgen
data_H11C16N2O
_symmetry_space_group_name_H-M   'P 1'
_cell_length_a   45.17370371
_cell_length_b   45.17370371
_cell_length_c   45.17370371
_cell_angle_alpha   109.47122063
_cell_angle_beta   109.47122063
_cell_angle_gamma   109.47122063
_symmetry_Int_Tables_number   1
_chemical_formula_structural   H11C16N2O
_chemical_formula_sum   'H528 C768 N96 O48'
_cell_volume   70963.52928968
_cell_formula_units_Z   48
loop_
 _symmetry_equiv_pos_site_id
 _symmetry_equiv_pos_as_xyz
  1  'x, y, z'
loop_
 _atom_site_type_symbol
 _atom_site_label
 _atom_site_symmetry_multiplicity
 _atom_site_fract_x
 _atom_site_fract_y
 _atom_site_fract_z
 _atom_site_occupancy
  C  1  1  0.13240150  0.07300550  0.16323700  1
  C  2  1  0.13287200  0.09311850  0.14464450  1
  C  3  1  0.11698800  0.07630450  0.10647450  1
  C  4  1  0.09892650  0.03817400  0.08632950  1
  C  5  1  0.09655750  0.01665900  0.10296550  1
  C  6  1  0.11301450  0.03428300  0.14146650  1
  C  9  1  0.15052600  0.09262550  0.20270150  1
  C  10  1  0.18686300  0.12265300  0.22391900  1
  C  11  1  0.20304150  0.14499100  0.26192750  1
  C  12  1  0.18143000  0.13694950  0.27776750  1
  C  13  1  0.15008000  0.10265050  0.26051050  1
  C  14  1  0.13400550  0.08198550  0.22219900  1
  C  21  1  0.38900500  0.04149750  0.45154150  1
  C  22  1  0.38865450  0.02254600  0.47129250  1
  C  23  1  0.40466700  0.00037700  0.47046500  1
  C  24  1  0.42256300  0.99814900  0.45024100  1
  C  25  1  0.42478450  0.01703350  0.43097000  1
  C  26  1  0.40828900  0.03904000  0.43210600  1
  C  29  1  0.37087350  0.06282150  0.45303900  1
  C  30  1  0.33454350  0.04770250  0.44674100  1
  C  31  1  0.31834500  0.06953250  0.45283650  1
  C  32  1  0.34004000  0.10702600  0.46661300  1
  C  33  1  0.37129400  0.12104400  0.46350100  1
  C  34  1  0.38738550  0.09882800  0.45890250  1
  C  41  1  0.60088200  0.42702550  0.04861250  1
  C  42  1  0.56217650  0.40696800  0.02908350  1
  C  43  1  0.54088450  0.42381300  0.03040850  1
  C  44  1  0.55893150  0.46193750  0.05066000  1
  C  45  1  0.59707600  0.48341900  0.06947400  1
  C  46  1  0.61788650  0.46575050  0.06799600  1
  C  49  1  0.62065250  0.40733450  0.04698600  1
  C  50  1  0.61184300  0.37730050  0.05328850  1
  C  51  1  0.62742700  0.35488000  0.04706900  1
  C  52  1  0.65130850  0.36294750  0.03349500  1
  C  53  1  0.66836800  0.39724300  0.03644200  1
  C  54  1  0.65076250  0.41794000  0.04106750  1
  C  61  1  0.92056700  0.45838200  0.33664400  1
  C  62  1  0.95927400  0.47739750  0.35524450  1
  C  63  1  0.98061900  0.49902150  0.39347250  1
  C  64  1  0.96262600  0.50074300  0.41362700  1
  C  65  1  0.92446850  0.48199550  0.39694000  1
  C  66  1  0.90358700  0.46057200  0.35839200  1
  C  69  1  0.90071500  0.43715750  0.29717650  1
  C  70  1  0.90954550  0.45230000  0.27598550  1
  C  71  1  0.89383300  0.43047950  0.23795950  1
  C  72  1  0.87010750  0.39298150  0.22213000  1
  C  73  1  0.85297300  0.37893500  0.23934700  1
  C  74  1  0.87059050  0.40113300  0.27765550  1
  C  81  1  0.96916200  0.83676650  0.90976750  1
  C  82  1  0.98822550  0.85535850  0.94847300  1
  C  83  1  0.01052250  0.89352750  0.96982800  1
  C  84  1  0.01261350  0.91367100  0.95184150  1
  C  85  1  0.99360450  0.89703800  0.91369150  1
  C  86  1  0.97154850  0.85853650  0.89281500  1
  C  89  1  0.94781750  0.79730250  0.88992300  1
  C  90  1  0.96293600  0.77608300  0.89873200  1
  C  91  1  0.94110550  0.73807400  0.88306050  1
  C  92  1  0.90365250  0.72223600  0.85918150  1
  C  93  1  0.88956200  0.73949350  0.84213850  1
  C  94  1  0.91180100  0.77780400  0.85978600  1
  C  101  1  0.93746350  0.54845650  0.58996000  1
  C  102  1  0.91735850  0.52870150  0.55125600  1
  C  103  1  0.93419950  0.52952750  0.52991500  1
  C  104  1  0.97232100  0.54975250  0.54791050  1
  C  105  1  0.99381450  0.56902850  0.58606700  1
  C  106  1  0.97618200  0.56789350  0.60693750  1
  C  109  1  0.91783350  0.54696000  0.60978650  1
  C  110  1  0.88780300  0.55326100  0.60096600  1
  C  111  1  0.86550950  0.54716650  0.61669800  1
  C  112  1  0.87342600  0.53339100  0.64041800  1
  C  113  1  0.90779050  0.53649900  0.65754650  1
  C  114  1  0.92848150  0.54109600  0.63992950  1
  C  121  1  0.55227400  0.95138900  0.37841600  1
  C  122  1  0.53309700  0.97091700  0.37788900  1
  C  123  1  0.51048550  0.96959650  0.39341400  1
  C  124  1  0.50828600  0.94934900  0.41129200  1
  C  125  1  0.52761200  0.93053250  0.41395450  1
  C  126  1  0.54989750  0.93200550  0.39775900  1
  C  129  1  0.57366850  0.95301250  0.36034900  1
  C  130  1  0.55855450  0.94671150  0.32401200  1
  C  131  1  0.58035650  0.95293000  0.30780950  1
  C  132  1  0.61781300  0.96650450  0.32945050  1
  C  133  1  0.63192650  0.96355650  0.36079900  1
  C  134  1  0.60969700  0.95893200  0.37687300  1
  C  141  1  0.58392100  0.66335400  0.12173400  1
  C  142  1  0.60402650  0.64475300  0.12214850  1
  C  143  1  0.58714250  0.60652500  0.10555750  1
  C  144  1  0.54899800  0.58637300  0.08713600  1
  C  145  1  0.52752600  0.60305850  0.08506750  1
  C  146  1  0.54519200  0.64160500  0.10217800  1
  C  149  1  0.60353600  0.70282100  0.13997400  1
  C  150  1  0.63355750  0.72401400  0.17630850  1
  C  151  1  0.65587000  0.76203950  0.19251350  1
  C  152  1  0.64797350  0.77786750  0.17084400  1
  C  153  1  0.61362350  0.76064950  0.13957900  1
  C  154  1  0.59293300  0.72234200  0.12347000  1
  C  161  1  0.05939550  0.09023550  0.92699800  1
  C  162  1  0.03975700  0.05153050  0.90688450  1
  C  163  1  0.04069900  0.03017450  0.92369950  1
  C  164  1  0.06077650  0.04816250  0.96183100  1
  C  165  1  0.07991200  0.08631250  0.98334550  1
  C  166  1  0.07873300  0.10718900  0.96572100  1
  C  169  1  0.05789500  0.11007900  0.90737700  1
  C  170  1  0.06420550  0.10127000  0.87734850  1
  C  171  1  0.05804500  0.11693950  0.85501050  1
  C  172  1  0.04446850  0.14081700  0.86304950  1
  C  173  1  0.04742000  0.15786050  0.89735050  1
  C  174  1  0.05201150  0.14021350  0.91801300  1
  C  181  1  0.34750200  0.41003600  0.95849500  1
  C  182  1  0.36610250  0.44874000  0.97744750  1
  C  183  1  0.40428200  0.47008000  0.99961700  1
  C  184  1  0.42440850  0.45208450  0.00184900  1
  C  185  1  0.40774550  0.41392900  0.98296250  1
  C  186  1  0.36924300  0.39305900  0.96095500  1
  C  189  1  0.30804600  0.39021100  0.93717000  1
  C  190  1  0.28683550  0.39902950  0.95229200  1
  C  191  1  0.24880750  0.38329700  0.93046350  1
  C  192  1  0.23300700  0.35958000  0.89296800  1
  C  193  1  0.25024300  0.34245100  0.87894900  1
  C  194  1  0.28855000  0.36006750  0.90116350  1
  C  201  1  0.17385550  0.62158500  0.57297350  1
  C  202  1  0.15520650  0.62211400  0.59302950  1
  C  203  1  0.11706950  0.60659950  0.57618300  1
  C  204  1  0.09699250  0.58872950  0.53805900  1
  C  205  1  0.11365650  0.58605900  0.51657850  1
  C  206  1  0.15213650  0.60224400  0.53424850  1
  C  209  1  0.21331700  0.63964800  0.59266400  1
  C  210  1  0.23454100  0.67598500  0.62269900  1
  C  211  1  0.27254600  0.69218700  0.64512000  1
  C  212  1  0.28835900  0.67054350  0.63705250  1
  C  213  1  0.27112350  0.63919600  0.60275650  1
  C  214  1  0.23282150  0.62312450  0.58206000  1
  C  221  1  0.46218800  0.87826000  0.54161900  1
  C  222  1  0.48188150  0.87784750  0.52260600  1
  C  223  1  0.48159200  0.89444150  0.50097150  1
  C  224  1  0.46186900  0.91286450  0.49924250  1
  C  225  1  0.44246300  0.91492950  0.51799450  1
  C  226  1  0.44301500  0.89781550  0.53942550  1
  C  229  1  0.46356200  0.86001800  0.56284500  1
  C  230  1  0.45724850  0.82368450  0.54770200  1
  C  231  1  0.46335500  0.80747800  0.56952200  1
  C  232  1  0.47712750  0.82914750  0.60702000  1
  C  233  1  0.47404350  0.86041300  0.62106750  1
  C  234  1  0.46946300  0.87652350  0.59886950  1
  C  241  1  0.63239800  0.16323400  0.07299900  1
  C  242  1  0.63287300  0.14464400  0.09311400  1
  C  243  1  0.61699550  0.10647400  0.07630050  1
  C  244  1  0.59893550  0.08632800  0.03816950  1
  C  245  1  0.59656200  0.10296400  0.01665300  1
  C  246  1  0.61301500  0.14146600  0.03428000  1
  C  249  1  0.65052100  0.20269900  0.09262100  1
  C  250  1  0.68685900  0.22391850  0.12264850  1
  C  251  1  0.70303600  0.26192650  0.14498550  1
  C  252  1  0.68142400  0.27776550  0.13694650  1
  C  253  1  0.65007500  0.26050900  0.10264700  1
  C  254  1  0.63400000  0.22219750  0.08198250  1
  C  261  1  0.88900350  0.45154100  0.04149950  1
  C  262  1  0.88865200  0.47129100  0.02254800  1
  C  263  1  0.90466600  0.47046650  0.00037950  1
  C  264  1  0.92256550  0.45024450  0.99815400  1
  C  265  1  0.92478600  0.43097200  0.01703700  1
  C  266  1  0.90828800  0.43210650  0.03904250  1
  C  269  1  0.87087200  0.45303850  0.06282350  1
  C  270  1  0.83454100  0.44673800  0.04770400  1
  C  271  1  0.81834200  0.45283450  0.06953150  1
  C  272  1  0.84003750  0.46661200  0.10702750  1
  C  273  1  0.87129250  0.46350100  0.12104550  1
  C  274  1  0.88738200  0.45890050  0.09882950  1
  C  281  1  0.10088400  0.04861400  0.42702300  1
  C  282  1  0.06217850  0.02908400  0.40696750  1
  C  283  1  0.04088700  0.03040700  0.42381300  1
  C  284  1  0.05893350  0.05065600  0.46193850  1
  C  285  1  0.09707700  0.06947300  0.48341900  1
  C  286  1  0.11788850  0.06799650  0.46575000  1
  C  289  1  0.12065700  0.04698950  0.40733550  1
  C  290  1  0.11184550  0.05329100  0.37730150  1
  C  291  1  0.12743100  0.04707300  0.35488100  1
  C  292  1  0.15131300  0.03349800  0.36295000  1
  C  293  1  0.16837100  0.03644400  0.39724400  1
  C  294  1  0.15076500  0.04107000  0.41794000  1
  C  301  1  0.42057050  0.33664400  0.45838850  1
  C  302  1  0.45927600  0.35524300  0.47740200  1
  C  303  1  0.48062300  0.39347400  0.49902700  1
  C  304  1  0.46262900  0.41362650  0.50074650  1
  C  305  1  0.42447050  0.39693850  0.48199800  1
  C  306  1  0.40359000  0.35839200  0.46057700  1
  C  309  1  0.40071950  0.29717700  0.43716450  1
  C  310  1  0.40954800  0.27598200  0.45230100  1
  C  311  1  0.39383600  0.23795900  0.43048200  1
  C  312  1  0.37011000  0.22213100  0.39298400  1
  C  313  1  0.35297550  0.23934900  0.37893850  1
  C  314  1  0.37059400  0.27765600  0.40113900  1
  C  321  1  0.46916300  0.90976400  0.83676400  1
  C  322  1  0.48822650  0.94846900  0.85535450  1
  C  323  1  0.51052050  0.96982650  0.89352500  1
  C  324  1  0.51260900  0.95184200  0.91367000  1
  C  325  1  0.49360000  0.91369000  0.89703500  1
  C  326  1  0.47154800  0.89281300  0.85853200  1
  C  329  1  0.44781850  0.88991950  0.79729900  1
  C  330  1  0.46293850  0.89872900  0.77608050  1
  C  331  1  0.44110800  0.88305750  0.73807250  1
  C  332  1  0.40365550  0.85917950  0.72223400  1
  C  333  1  0.38956300  0.84213600  0.73949000  1
  C  334  1  0.41180050  0.85978300  0.77780050  1
  C  341  1  0.43746300  0.58995650  0.54845850  1
  C  342  1  0.41736000  0.55125550  0.52870250  1
  C  343  1  0.43420000  0.52991150  0.52952250  1
  C  344  1  0.47232150  0.54790850  0.54974300  1
  C  345  1  0.49381300  0.58606300  0.56902100  1
  C  346  1  0.47618150  0.60693450  0.56789400  1
  C  349  1  0.41783350  0.60978400  0.54696250  1
  C  350  1  0.38780100  0.60096250  0.55326050  1
  C  351  1  0.36550600  0.61669450  0.54716550  1
  C  352  1  0.37342450  0.64041350  0.53338900  1
  C  353  1  0.40779050  0.65754300  0.53650050  1
  C  354  1  0.42848150  0.63992700  0.54109950  1
  C  361  1  0.05227000  0.37841500  0.95138800  1
  C  362  1  0.03309650  0.37789050  0.97091900  1
  C  363  1  0.01048200  0.39341300  0.96959600  1
  C  364  1  0.00828150  0.41129000  0.94934750  1
  C  365  1  0.02760600  0.41395250  0.93052950  1
  C  366  1  0.04989250  0.39775800  0.93200550  1
  C  369  1  0.07366550  0.36034900  0.95301150  1
  C  370  1  0.05855250  0.32401400  0.94671050  1
  C  371  1  0.08035500  0.30781000  0.95292800  1
  C  372  1  0.11781100  0.32945100  0.96650100  1
  C  373  1  0.13192400  0.36079900  0.96355600  1
  C  374  1  0.10969500  0.37687300  0.95893100  1
  C  381  1  0.08392000  0.12173300  0.66335200  1
  C  382  1  0.10402700  0.12214900  0.64475300  1
  C  383  1  0.08714500  0.10555850  0.60652450  1
  C  384  1  0.04900000  0.08713700  0.58637200  1
  C  385  1  0.02752800  0.08506800  0.60305900  1
  C  386  1  0.04519200  0.10217900  0.64160400  1
  C  389  1  0.10353650  0.13997400  0.70281950  1
  C  390  1  0.13355750  0.17630900  0.72401250  1
  C  391  1  0.15586950  0.19251400  0.76203850  1
  C  392  1  0.14797350  0.17084500  0.77786750  1
  C  393  1  0.11362450  0.13958150  0.76064900  1
  C  394  1  0.09293400  0.12347000  0.72234100  1
  C  401  1  0.55939600  0.92699900  0.09023400  1
  C  402  1  0.53975600  0.90688500  0.05152800  1
  C  403  1  0.54070000  0.92369800  0.03017300  1
  C  404  1  0.56077500  0.96182800  0.04815800  1
  C  405  1  0.57991400  0.98334500  0.08631000  1
  C  406  1  0.57873500  0.96572000  0.10718600  1
  C  409  1  0.55789450  0.90737700  0.11007650  1
  C  410  1  0.56420500  0.87735000  0.10126800  1
  C  411  1  0.55804450  0.85501150  0.11693800  1
  C  412  1  0.54447000  0.86305100  0.14081600  1
  C  413  1  0.54742100  0.89735100  0.15785900  1
  C  414  1  0.55201300  0.91801600  0.14021400  1
  C  421  1  0.84750400  0.95849700  0.41003600  1
  C  422  1  0.86610350  0.97744800  0.44873650  1
  C  423  1  0.90428550  0.99962000  0.47008050  1
  C  424  1  0.92441000  0.00185000  0.45208300  1
  C  425  1  0.90774800  0.98296500  0.41392800  1
  C  426  1  0.86924550  0.96095500  0.39305750  1
  C  429  1  0.80804750  0.93717100  0.39020750  1
  C  430  1  0.78683800  0.95229450  0.39902850  1
  C  431  1  0.74881050  0.93046650  0.38329700  1
  C  432  1  0.73300850  0.89297050  0.35957900  1
  C  433  1  0.75024500  0.87895050  0.34245150  1
  C  434  1  0.78855150  0.90116450  0.36006600  1
  C  441  1  0.67385700  0.57297400  0.62158600  1
  C  442  1  0.65520700  0.59303050  0.62211250  1
  C  443  1  0.61707100  0.57618500  0.60659900  1
  C  444  1  0.59699400  0.53805800  0.58872700  1
  C  445  1  0.61365750  0.51657950  0.58605900  1
  C  446  1  0.65213750  0.53424900  0.60224650  1
  C  449  1  0.71331800  0.59266500  0.63965000  1
  C  450  1  0.73454250  0.62270050  0.67598600  1
  C  451  1  0.77254750  0.64512250  0.69218800  1
  C  452  1  0.78836200  0.63705500  0.67054600  1
  C  453  1  0.77112550  0.60275850  0.63919800  1
  C  454  1  0.73282400  0.58206200  0.62312700  1
  C  461  1  0.96218550  0.54162100  0.87826350  1
  C  462  1  0.98187700  0.52260700  0.87784900  1
  C  463  1  0.98158300  0.50096800  0.89443800  1
  C  464  1  0.96185900  0.49923500  0.91285900  1
  C  465  1  0.94245600  0.51799050  0.91492750  1
  C  466  1  0.94301200  0.53942700  0.89781800  1
  C  469  1  0.96356200  0.56284800  0.86002300  1
  C  470  1  0.95724650  0.54770700  0.82368950  1
  C  471  1  0.96335450  0.56952650  0.80748300  1
  C  472  1  0.97712850  0.60702550  0.82915400  1
  C  473  1  0.97404300  0.62107000  0.86041800  1
  C  474  1  0.96946300  0.59887350  0.87652850  1
  C  961  1  0.11615850  0.09511950  0.08680400  1
  C  962  1  0.08425650  0.09637300  0.06988450  1
  C  963  1  0.07476350  0.09918200  0.03792450  1
  C  964  1  0.09669450  0.10071100  0.02149250  1
  C  965  1  0.12830700  0.09909300  0.03838700  1
  C  966  1  0.13772400  0.09634850  0.07005450  1
  C  968  1  0.01840900  0.09306800  0.03417900  1
  C  969  1  0.02782250  0.09019450  0.06592500  1
  C  973  1  0.98404950  0.09131100  0.01366050  1
  C  977  1  0.00430500  0.08500750  0.08210950  1
  C  981  1  0.40561500  0.98162500  0.49020300  1
  C  982  1  0.43783450  0.99684150  0.52316400  1
  C  983  1  0.44752450  0.97451300  0.53555350  1
  C  984  1  0.42550700  0.93612300  0.51550900  1
  C  985  1  0.39357000  0.92128800  0.48254500  1
  C  986  1  0.38393500  0.94335300  0.47022100  1
  C  988  1  0.50406050  0.02725750  0.58537300  1
  C  989  1  0.49445200  0.04943800  0.57296900  1
  C  993  1  0.53857950  0.04125500  0.61786850  1
  C  997  1  0.51793550  0.08911600  0.59102050  1
  C  1001  1  0.50239700  0.40505800  0.01084800  1
  C  1002  1  0.48414900  0.40342450  0.97749050  1
  C  1003  1  0.44939650  0.40066700  0.96513250  1
  C  1004  1  0.43146550  0.39950150  0.98560800  1
  C  1005  1  0.45008750  0.40145950  0.01900800  1
  C  1006  1  0.48449600  0.40421050  0.03127550  1
  C  1008  1  0.45163100  0.40609700  0.91456100  1
  C  1009  1  0.48623300  0.40893150  0.92691350  1
  C  1013  1  0.43280600  0.40753300  0.88175300  1
  C  1017  1  0.50752200  0.41375050  0.90844950  1
  C  1021  1  0.01911700  0.51817700  0.41313500  1
  C  1022  1  0.03736350  0.50348950  0.43048700  1
  C  1023  1  0.07214200  0.52625550  0.46243050  1
  C  1024  1  0.08991600  0.56460650  0.47842950  1
  C  1025  1  0.07128350  0.57894250  0.46106900  1
  C  1026  1  0.03692400  0.55641250  0.42934550  1
  C  1028  1  0.07013550  0.47400950  0.46685200  1
  C  1029  1  0.03552600  0.45139650  0.43510550  1
  C  1033  1  0.08910250  0.46052300  0.48769250  1
  C  1037  1  0.01438850  0.41171900  0.41922050  1
  C  1041  1  0.02936100  0.91320000  0.00831400  1
  C  1042  1  0.01437000  0.93011250  0.02648150  1
  C  1043  1  0.03683350  0.96207450  0.06125100  1
  C  1044  1  0.07519600  0.97851000  0.07921700  1
  C  1045  1  0.08992000  0.96162150  0.06070950  1
  C  1046  1  0.06767450  0.92995550  0.02629700  1
  C  1048  1  0.98421850  0.96581000  0.05887350  1
  C  1049  1  0.96189000  0.93406200  0.02425300  1
  C  1053  1  0.97037050  0.98632300  0.07763050  1
  C  1057  1  0.92218750  0.91787250  0.00287800  1
  C  1061  1  0.91541050  0.50978500  0.49142550  1
  C  1062  1  0.91467700  0.47682900  0.47368500  1
  C  1063  1  0.91197750  0.46443650  0.43896600  1
  C  1064  1  0.90999750  0.48447600  0.42061750  1
  C  1065  1  0.91101550  0.51743800  0.43874350  1
  C  1066  1  0.91370400  0.52976400  0.47313200  1
  C  1068  1  0.91870800  0.41462700  0.44190100  1
  C  1069  1  0.92150550  0.42703300  0.47648750  1
  C  1073  1  0.92073750  0.38213400  0.42340650  1
  C  1077  1  0.92694100  0.40898550  0.49811550  1
  C  1081  1  0.49155850  0.98915650  0.39421900  1
  C  1082  1  0.50666600  0.02251300  0.42594400  1
  C  1083  1  0.48426950  0.03486800  0.43554350  1
  C  1084  1  0.44586350  0.01439200  0.41390050  1
  C  1085  1  0.43108650  0.98099200  0.38245650  1
  C  1086  1  0.45322900  0.96872850  0.37294050  1
  C  1088  1  0.53707300  0.08544200  0.49154800  1
  C  1089  1  0.55932350  0.07309100  0.48202950  1
  C  1093  1  0.55105300  0.11824550  0.52578850  1
  C  1097  1  0.59907550  0.09155650  0.50531300  1
  C  1101  1  0.60597850  0.58686300  0.10504850  1
  C  1102  1  0.60687500  0.56951600  0.07301000  1
  C  1103  1  0.60970950  0.53757100  0.06382650  1
  C  1104  1  0.61148300  0.52156800  0.08617400  1
  C  1105  1  0.61021050  0.53892300  0.11787150  1
  C  1106  1  0.60757300  0.57064600  0.12706800  1
  C  1108  1  0.60328350  0.53315850  0.00716200  1
  C  1109  1  0.60042050  0.56490600  0.01629950  1
  C  1113  1  0.60141000  0.51232200  0.97283400  1
  C  1117  1  0.59516700  0.58079600  0.99251200  1
  C  1121  1  0.02105650  0.99168950  0.90488600  1
  C  1122  1  0.98789500  0.97351550  0.90362350  1
  C  1123  1  0.97559150  0.93874850  0.90081600  1
  C  1124  1  0.99599150  0.92078500  0.89929150  1
  C  1125  1  0.02922750  0.93929800  0.90091950  1
  C  1126  1  0.04139200  0.97371200  0.90366500  1
  C  1128  1  0.92534500  0.94111550  0.90691750  1
  C  1129  1  0.93763600  0.97573600  0.90979100  1
  C  1133  1  0.89273850  0.92235500  0.90866950  1
  C  1137  1  0.91930500  0.99710800  0.91497200  1
  C  1141  1  0.42398500  0.50857100  0.01837100  1
  C  1142  1  0.44098650  0.52631650  0.00315500  1
  C  1143  1  0.47300650  0.56103450  0.02548400  1
  C  1144  1  0.48937700  0.57938000  0.06387200  1
  C  1145  1  0.47227300  0.56124900  0.07870700  1
  C  1146  1  0.44057400  0.52686050  0.05664150  1
  C  1148  1  0.47679900  0.55810700  0.97273900  1
  C  1149  1  0.44500950  0.52352250  0.95055800  1
  C  1153  1  0.49732150  0.57660600  0.95874150  1
  C  1157  1  0.42881650  0.50189700  0.91088150  1
  C  1161  1  0.09733650  0.60579250  0.59493700  1
  C  1162  1  0.08072750  0.57407050  0.59657600  1
  C  1163  1  0.04873150  0.56446650  0.59933200  1
  C  1164  1  0.03196150  0.58610200  0.60049450  1
  C  1165  1  0.04862100  0.61754550  0.59853250  1
  C  1166  1  0.08027800  0.62706400  0.59578100  1
  C  1168  1  0.04554400  0.50847100  0.59391000  1
  C  1169  1  0.07731450  0.51799400  0.59107750  1
  C  1173  1  0.02528900  0.47422700  0.59247700  1
  C  1177  1  0.09378750  0.49471400  0.58626250  1
  C  1181  1  0.50093950  0.89495500  0.48182150  1
  C  1182  1  0.53387250  0.92699450  0.49651400  1
  C  1183  1  0.54589200  0.93618100  0.47375500  1
  C  1184  1  0.52532000  0.91383250  0.43540350  1
  C  1185  1  0.49235300  0.88213200  0.42106000  1
  C  1186  1  0.48051800  0.87293450  0.44358550  1
  C  1188  1  0.59612400  0.99284450  0.52600550  1
  C  1189  1  0.58412300  0.98370650  0.54861450  1
  C  1193  1  0.62857900  0.02717550  0.53950050  1
  C  1197  1  0.60265650  0.00749350  0.58829200  1
  C  1201  1  0.61616350  0.08680150  0.09511400  1
  C  1202  1  0.58426350  0.06988600  0.09637150  1
  C  1203  1  0.57477050  0.03792600  0.09918250  1
  C  1204  1  0.59669900  0.02149300  0.10070900  1
  C  1205  1  0.62830700  0.03838250  0.09908450  1
  C  1206  1  0.63772550  0.07004950  0.09634000  1
  C  1208  1  0.51841750  0.03418550  0.09307300  1
  C  1209  1  0.52783350  0.06593300  0.09019850  1
  C  1213  1  0.48405950  0.01367000  0.09131850  1
  C  1217  1  0.50431850  0.08212000  0.08501450  1
  C  1221  1  0.90561500  0.49020300  0.98162900  1
  C  1222  1  0.93783300  0.52316500  0.99684300  1
  C  1223  1  0.94752050  0.53555250  0.97451100  1
  C  1224  1  0.92550250  0.51550600  0.93612150  1
  C  1225  1  0.89356500  0.48254100  0.92128900  1
  C  1226  1  0.88393050  0.47021800  0.94335550  1
  C  1228  1  0.00405800  0.58537150  0.02725550  1
  C  1229  1  0.99445250  0.57296950  0.04943700  1
  C  1233  1  0.03857650  0.61786700  0.04125050  1
  C  1237  1  0.01793600  0.59102100  0.08911300  1
  C  1241  1  0.00239950  0.01084550  0.40505700  1
  C  1242  1  0.98415150  0.97749000  0.40342450  1
  C  1243  1  0.94939850  0.96513300  0.40066850  1
  C  1244  1  0.93146850  0.98560700  0.39950050  1
  C  1245  1  0.95008900  0.01900700  0.40145700  1
  C  1246  1  0.98449850  0.03127400  0.40420750  1
  C  1248  1  0.95163200  0.91456050  0.40609850  1
  C  1249  1  0.98623550  0.92691450  0.40893400  1
  C  1253  1  0.93280800  0.88175500  0.40753600  1
  C  1257  1  0.00752450  0.90845000  0.41375350  1
  C  1261  1  0.51911850  0.41313500  0.51817950  1
  C  1262  1  0.53736550  0.43048650  0.50349300  1
  C  1263  1  0.57214400  0.46243100  0.52625800  1
  C  1264  1  0.58991700  0.47843100  0.56460700  1
  C  1265  1  0.57128800  0.46107150  0.57894650  1
  C  1266  1  0.53692850  0.42934800  0.55641650  1
  C  1268  1  0.57013600  0.46684950  0.47401050  1
  C  1269  1  0.53552600  0.43510150  0.45139650  1
  C  1273  1  0.58910300  0.48768750  0.46052150  1
  C  1277  1  0.51438900  0.41921550  0.41172050  1
  C  1281  1  0.52936000  0.00831150  0.91319550  1
  C  1282  1  0.51437200  0.02648100  0.93011100  1
  C  1283  1  0.53683650  0.06124950  0.96207100  1
  C  1284  1  0.57519850  0.07921550  0.97850600  1
  C  1285  1  0.58992100  0.06070600  0.96161800  1
  C  1286  1  0.56767300  0.02629200  0.92994900  1
  C  1288  1  0.48422250  0.05887700  0.96581150  1
  C  1289  1  0.46189400  0.02425700  0.93406500  1
  C  1293  1  0.47037800  0.07763500  0.98632600  1
  C  1297  1  0.42219150  0.00288200  0.91787650  1
  C  1301  1  0.41541150  0.49142400  0.50978150  1
  C  1302  1  0.41467850  0.47368200  0.47682550  1
  C  1303  1  0.41198150  0.43896350  0.46443700  1
  C  1304  1  0.40999950  0.42061600  0.48447750  1
  C  1305  1  0.41101400  0.43874150  0.51743650  1
  C  1306  1  0.41370150  0.47313050  0.52976000  1
  C  1308  1  0.41871350  0.44189550  0.41462700  1
  C  1309  1  0.42150850  0.47648000  0.42702850  1
  C  1313  1  0.42074350  0.42339950  0.38213500  1
  C  1317  1  0.42694550  0.49810750  0.40898000  1
  C  1321  1  0.99155550  0.39421850  0.98915700  1
  C  1322  1  0.00666650  0.42594550  0.02251400  1
  C  1323  1  0.98426850  0.43554450  0.03486900  1
  C  1324  1  0.94586400  0.41390300  0.01439600  1
  C  1325  1  0.93108550  0.38245800  0.98099750  1
  C  1326  1  0.95322900  0.37294100  0.96873100  1
  C  1328  1  0.03707350  0.49154900  0.08544050  1
  C  1329  1  0.05932400  0.48203000  0.07308800  1
  C  1333  1  0.05105450  0.52579150  0.11824600  1
  C  1337  1  0.09907550  0.50531500  0.09155250  1
  C  1341  1  0.10598050  0.10504750  0.58686300  1
  C  1342  1  0.10687550  0.07300850  0.56951700  1
  C  1343  1  0.10971000  0.06382500  0.53757200  1
  C  1344  1  0.11148450  0.08617150  0.52156600  1
  C  1345  1  0.11021300  0.11787100  0.53892300  1
  C  1346  1  0.10757600  0.12706750  0.57064650  1
  C  1348  1  0.10328250  0.00716050  0.53315800  1
  C  1349  1  0.10041900  0.01629850  0.56490550  1
  C  1353  1  0.10140850  0.97283200  0.51232350  1
  C  1357  1  0.09516700  0.99251200  0.58079600  1
  C  1361  1  0.52105300  0.90488400  0.99168800  1
  C  1362  1  0.48789450  0.90362550  0.97351600  1
  C  1363  1  0.47558950  0.90081750  0.93874700  1
  C  1364  1  0.49598900  0.89929100  0.92078500  1
  C  1365  1  0.52922300  0.90091700  0.93929500  1
  C  1366  1  0.54138800  0.90366050  0.97370750  1
  C  1368  1  0.42534500  0.90692200  0.94111800  1
  C  1369  1  0.43763700  0.90979600  0.97573800  1
  C  1373  1  0.39274100  0.90867750  0.92235950  1
  C  1377  1  0.41930850  0.91498100  0.99711250  1
  C  1381  1  0.92398600  0.01837100  0.50856800  1
  C  1382  1  0.94098800  0.00315500  0.52631400  1
  C  1383  1  0.97300700  0.02548600  0.56103400  1
  C  1384  1  0.98937950  0.06387500  0.57937850  1
  C  1385  1  0.97227700  0.07870950  0.56124750  1
  C  1386  1  0.94057650  0.05664450  0.52685800  1
  C  1388  1  0.97679850  0.97274050  0.55810800  1
  C  1389  1  0.94500950  0.95055950  0.52352300  1
  C  1393  1  0.99731900  0.95874300  0.57660500  1
  C  1397  1  0.92881600  0.91088300  0.50189800  1
  C  1401  1  0.59733800  0.59493850  0.60579050  1
  C  1402  1  0.58072750  0.59657200  0.57406550  1
  C  1403  1  0.54873200  0.59932800  0.56446100  1
  C  1404  1  0.53196250  0.60049250  0.58609700  1
  C  1405  1  0.54862200  0.59853500  0.61754100  1
  C  1406  1  0.58028150  0.59578350  0.62706100  1
  C  1408  1  0.54554300  0.59390100  0.50846100  1
  C  1409  1  0.57731200  0.59106900  0.51798600  1
  C  1413  1  0.52528750  0.59246750  0.47421800  1
  C  1417  1  0.59378650  0.58625400  0.49470650  1
  C  1421  1  0.00093050  0.48181650  0.89495100  1
  C  1422  1  0.03386400  0.49651000  0.92698800  1
  C  1423  1  0.04588400  0.47375100  0.93617400  1
  C  1424  1  0.02531300  0.43539950  0.91382950  1
  C  1425  1  0.99234200  0.42105400  0.88212900  1
  C  1426  1  0.98050700  0.44357900  0.87293100  1
  C  1428  1  0.09612100  0.52600450  0.99283750  1
  C  1429  1  0.08411800  0.54861200  0.98369600  1
  C  1433  1  0.12857650  0.53949900  0.02716650  1
  C  1437  1  0.10265350  0.58829100  0.00748350  1
  C  1921  1  0.12880000  0.06233400  0.33147300  1
  C  1922  1  0.09943150  0.05205950  0.29839400  1
  C  1923  1  0.10511850  0.06531000  0.27483050  1
  C  1924  1  0.14048400  0.08915400  0.28318700  1
  C  1925  1  0.16912900  0.09911400  0.31672600  1
  C  1926  1  0.16350500  0.08755400  0.34049000  1
  C  1928  1  0.04059850  0.03142400  0.23395350  1
  C  1929  1  0.03519800  0.01812600  0.25718900  1
  C  1933  1  0.01108050  0.02197950  0.19941300  1
  C  1937  1  0.99977950  0.99353800  0.25109250  1
  C  1941  1  0.39255000  0.21322100  0.44440400  1
  C  1942  1  0.42193650  0.20953450  0.46349700  1
  C  1943  1  0.41626100  0.18030050  0.47108250  1
  C  1944  1  0.38089800  0.15332600  0.45962400  1
  C  1945  1  0.35225400  0.15826100  0.44102000  1
  C  1946  1  0.35786300  0.18760050  0.43500850  1
  C  1948  1  0.48077300  0.20386200  0.50155400  1
  C  1949  1  0.48615650  0.23248100  0.49363050  1
  C  1953  1  0.51029350  0.19879800  0.52154550  1
  C  1957  1  0.52156050  0.26173850  0.50434700  1
  C  1961  1  0.77967350  0.43761800  0.05560250  1
  C  1962  1  0.75686450  0.44783900  0.03642850  1
  C  1963  1  0.72003800  0.43456800  0.02882700  1
  C  1964  1  0.70454300  0.41073550  0.04035650  1
  C  1965  1  0.72812300  0.40080250  0.05908650  1
  C  1966  1  0.76346800  0.41240050  0.06508250  1
  C  1968  1  0.71305000  0.46840500  0.99813400  1
  C  1969  1  0.74959650  0.48172300  0.00607050  1
  C  1973  1  0.68794750  0.47781050  0.97800800  1
  C  1977  1  0.76809750  0.50630100  0.99523650  1
  C  1981  1  0.74170000  0.28672500  0.16842400  1
  C  1982  1  0.76449700  0.29042200  0.20149800  1
  C  1983  1  0.80131550  0.31966100  0.22505150  1
  C  1984  1  0.81682350  0.34663750  0.21666100  1
  C  1985  1  0.79328300  0.34168500  0.18307300  1
  C  1986  1  0.75793500  0.31233100  0.15934300  1
  C  1988  1  0.80825250  0.29609050  0.26599600  1
  C  1989  1  0.77171000  0.26746950  0.24276650  1
  C  1993  1  0.83332050  0.30115000  0.30056950  1
  C  1997  1  0.75318250  0.23820450  0.24891000  1
  C  2001  1  0.79732500  0.66853250  0.73085850  1
  C  2002  1  0.80103150  0.70160800  0.75366350  1
  C  2003  1  0.83027900  0.72517100  0.79047700  1
  C  2004  1  0.85729000  0.71681650  0.80596550  1
  C  2005  1  0.85239900  0.68327950  0.78238750  1
  C  2006  1  0.82301200  0.65951650  0.74706150  1
  C  2008  1  0.80663050  0.76604450  0.79746900  1
  C  2009  1  0.77799400  0.74280750  0.76093450  1
  C  2013  1  0.81164800  0.80058000  0.82256500  1
  C  2017  1  0.74867150  0.74890150  0.74244300  1
  C  2021  1  0.94814450  0.55560050  0.76882100  1
  C  2022  1  0.95843100  0.53649950  0.74604050  1
  C  2023  1  0.94516950  0.52891250  0.70922100  1
  C  2024  1  0.92126550  0.54036950  0.69370200  1
  C  2025  1  0.91123800  0.55899000  0.71724700  1
  C  2026  1  0.92285850  0.56500200  0.75259750  1
  C  2028  1  0.97919500  0.49842300  0.70230700  1
  C  2029  1  0.99250300  0.50634800  0.73885000  1
  C  2033  1  0.98871350  0.47842000  0.67724850  1
  C  2037  1  0.01718100  0.49562450  0.75738950  1
  C  2041  1  0.72407200  0.94439800  0.38201100  1
  C  2042  1  0.72043950  0.96357250  0.41140600  1
  C  2043  1  0.69121550  0.97117400  0.40573750  1
  C  2044  1  0.66418750  0.95964250  0.37037600  1
  C  2045  1  0.66903750  0.94091450  0.34171300  1
  C  2046  1  0.69838500  0.93491600  0.34731300  1
  C  2048  1  0.71492250  0.00186900  0.47026850  1
  C  2049  1  0.74353150  0.99393100  0.47564850  1
  C  2053  1  0.70994700  0.02199550  0.49980050  1
  C  2057  1  0.77286900  0.00476600  0.51105900  1
  C  2061  1  0.57326800  0.83157100  0.11829800  1
  C  2062  1  0.56300050  0.79850450  0.08892000  1
  C  2063  1  0.57626750  0.77495100  0.09460350  1
  C  2064  1  0.60016450  0.78333850  0.12996700  1
  C  2065  1  0.61019700  0.81691750  0.15860850  1
  C  2066  1  0.59857650  0.84064550  0.15298600  1
  C  2068  1  0.54227900  0.73402100  0.03008500  1
  C  2069  1  0.52896600  0.75725000  0.02469500  1
  C  2073  1  0.53278750  0.69945600  0.00056850  1
  C  2077  1  0.50430500  0.75111500  0.98928700  1
  C  2081  1  0.06646000  0.26913900  0.93766600  1
  C  2082  1  0.04736450  0.24633650  0.94794100  1
  C  2083  1  0.03979950  0.20952050  0.93469000  1
  C  2084  1  0.05132000  0.19403350  0.91084550  1
  C  2085  1  0.07000450  0.21761000  0.90088350  1
  C  2086  1  0.07594300  0.25293600  0.91244600  1
  C  2088  1  0.00916300  0.20253100  0.96857500  1
  C  2089  1  0.01706250  0.23906750  0.98187400  1
  C  2093  1  0.98908750  0.17743650  0.97801800  1
  C  2097  1  0.00623300  0.25755850  0.00646150  1
  C  2101  1  0.17932150  0.23117700  0.78677350  1
  C  2102  1  0.21239050  0.25395750  0.79045500  1
  C  2103  1  0.23594800  0.29077700  0.81968800  1
  C  2104  1  0.22756200  0.30629550  0.84666250  1
  C  2105  1  0.19398900  0.28275250  0.84173650  1
  C  2106  1  0.17025700  0.24739950  0.81239750  1
  C  2108  1  0.27689100  0.29768950  0.79611550  1
  C  2109  1  0.25365400  0.26114700  0.76749600  1
  C  2113  1  0.31146800  0.32274850  0.80117150  1
  C  2117  1  0.25979300  0.24260750  0.73823350  1
  C  2121  1  0.34205450  0.61798100  0.56238150  1
  C  2122  1  0.30902350  0.58858650  0.55216000  1
  C  2123  1  0.28546950  0.59425600  0.56543150  1
  C  2124  1  0.29380600  0.62961700  0.58926500  1
  C  2125  1  0.32732100  0.65828050  0.59920050  1
  C  2126  1  0.35106800  0.65268000  0.58760100  1
  C  2128  1  0.24464250  0.52972700  0.53158950  1
  C  2129  1  0.26787100  0.52434600  0.51827200  1
  C  2133  1  0.21013300  0.50019500  0.52218100  1
  C  2137  1  0.26179250  0.48893400  0.49369050  1
  C  2141  1  0.45497250  0.88169600  0.71327150  1
  C  2142  1  0.47407800  0.91107250  0.70957950  1
  C  2143  1  0.48166100  0.90538850  0.68034250  1
  C  2144  1  0.47019700  0.87002650  0.65336850  1
  C  2145  1  0.45159200  0.84138500  0.65831000  1
  C  2146  1  0.44559400  0.84700800  0.68766100  1
  C  2148  1  0.51218300  0.96990650  0.70392350  1
  C  2149  1  0.50425950  0.97529700  0.73254350  1
  C  2153  1  0.53220400  0.99942300  0.69887400  1
  C  2157  1  0.51500300  0.01070500  0.76181300  1
  C  2161  1  0.62879600  0.33147150  0.06233050  1
  C  2162  1  0.59942550  0.29839300  0.05205750  1
  C  2163  1  0.60511200  0.27482800  0.06530700  1
  C  2164  1  0.64047800  0.28318400  0.08915100  1
  C  2165  1  0.66912400  0.31672450  0.09911150  1
  C  2166  1  0.66349900  0.34048850  0.08755050  1
  C  2168  1  0.54059050  0.23395250  0.03142200  1
  C  2169  1  0.53519050  0.25718900  0.01812450  1
  C  2173  1  0.51107450  0.19941500  0.02198050  1
  C  2177  1  0.49977400  0.25109500  0.99353800  1
  C  2181  1  0.89254800  0.44440500  0.21322400  1
  C  2182  1  0.92193350  0.46349550  0.20953700  1
  C  2183  1  0.91625800  0.47108050  0.18030150  1
  C  2184  1  0.88089700  0.45962450  0.15332850  1
  C  2185  1  0.85225100  0.44102150  0.15826350  1
  C  2186  1  0.85786000  0.43501000  0.18760400  1
  C  2188  1  0.98077150  0.50155050  0.20386200  1
  C  2189  1  0.98615450  0.49362750  0.23248200  1
  C  2193  1  0.01029000  0.52154100  0.19879800  1
  C  2197  1  0.02155700  0.50434300  0.26173900  1
  C  2201  1  0.27967500  0.05560200  0.43762000  1
  C  2202  1  0.25686600  0.03642900  0.44784000  1
  C  2203  1  0.22004000  0.02882700  0.43456800  1
  C  2204  1  0.20454600  0.04035800  0.41073700  1
  C  2205  1  0.22812400  0.05908300  0.40080200  1
  C  2206  1  0.26347000  0.06508100  0.41240000  1
  C  2208  1  0.21305250  0.99813850  0.46840900  1
  C  2209  1  0.24959950  0.00607500  0.48172750  1
  C  2213  1  0.18795000  0.97801500  0.47781600  1
  C  2217  1  0.26809900  0.99524000  0.50630600  1
  C  2221  1  0.24170550  0.16842650  0.28672600  1
  C  2222  1  0.26450000  0.20150550  0.29043150  1
  C  2223  1  0.30131800  0.22505900  0.31967200  1
  C  2224  1  0.31682350  0.21666600  0.34664350  1
  C  2225  1  0.29328750  0.18306600  0.34167950  1
  C  2226  1  0.25794200  0.15933850  0.31232450  1
  C  2228  1  0.30824900  0.26601650  0.29611650  1
  C  2229  1  0.27170750  0.24278900  0.26749350  1
  C  2233  1  0.33331550  0.30059800  0.30118450  1
  C  2237  1  0.25317750  0.24894000  0.23823750  1
  C  2241  1  0.29732400  0.73085700  0.66853000  1
  C  2242  1  0.30103100  0.75366200  0.70160600  1
  C  2243  1  0.33028100  0.79047700  0.72517100  1
  C  2244  1  0.35729200  0.80596400  0.71681500  1
  C  2245  1  0.35239900  0.78238400  0.68327600  1
  C  2246  1  0.32301100  0.74705900  0.65951300  1
  C  2248  1  0.30663250  0.79746850  0.76604300  1
  C  2249  1  0.27799700  0.76093450  0.74280750  1
  C  2253  1  0.31165050  0.82256550  0.80058000  1
  C  2257  1  0.24867250  0.74244350  0.74890200  1
  C  2261  1  0.44814300  0.76881650  0.55559450  1
  C  2262  1  0.45843650  0.74603850  0.53650400  1
  C  2263  1  0.44517700  0.70921950  0.52891950  1
  C  2264  1  0.42127150  0.69370250  0.54037500  1
  C  2265  1  0.41122900  0.71724200  0.55898000  1
  C  2266  1  0.42285050  0.75259250  0.56499000  1
  C  2268  1  0.47921850  0.70230900  0.49844850  1
  C  2269  1  0.49252650  0.73885300  0.50637250  1
  C  2273  1  0.48874800  0.67725400  0.47845700  1
  C  2277  1  0.51721200  0.75739350  0.49565550  1
  C  2281  1  0.22406800  0.38201200  0.94439300  1
  C  2282  1  0.22043650  0.41140600  0.96357050  1
  C  2283  1  0.19121200  0.40573900  0.97117400  1
  C  2284  1  0.16418500  0.37037700  0.95964100  1
  C  2285  1  0.16903300  0.34171400  0.94091000  1
  C  2286  1  0.19838200  0.34731350  0.93491350  1
  C  2288  1  0.21492000  0.47026850  0.00186750  1
  C  2289  1  0.24353000  0.47565000  0.99393100  1
  C  2293  1  0.20994600  0.49980000  0.02199500  1
  C  2297  1  0.27286600  0.51106100  0.00476600  1
  C  2301  1  0.07326750  0.11829950  0.83157000  1
  C  2302  1  0.06300050  0.08892150  0.79850400  1
  C  2303  1  0.07626850  0.09460500  0.77495050  1
  C  2304  1  0.10016400  0.12996850  0.78333750  1
  C  2305  1  0.11019700  0.15861000  0.81691600  1
  C  2306  1  0.09857700  0.15298750  0.84064550  1
  C  2308  1  0.04227850  0.03008600  0.73401850  1
  C  2309  1  0.02896550  0.02469600  0.75724850  1
  C  2313  1  0.03278850  0.00056950  0.69945600  1
  C  2317  1  0.00430500  0.98928750  0.75111350  1
  C  2321  1  0.56646200  0.93766800  0.26913900  1
  C  2322  1  0.54736600  0.94794250  0.24633550  1
  C  2323  1  0.53980000  0.93469200  0.20952100  1
  C  2324  1  0.55132050  0.91084650  0.19403100  1
  C  2325  1  0.57000600  0.90088600  0.21760900  1
  C  2326  1  0.57594500  0.91244850  0.25293650  1
  C  2328  1  0.50916400  0.96857800  0.20253100  1
  C  2329  1  0.51706300  0.98187350  0.23906550  1
  C  2333  1  0.48908800  0.97801850  0.17743550  1
  C  2337  1  0.50623300  0.00646250  0.25755850  1
  C  2341  1  0.67932250  0.78677450  0.23117500  1
  C  2342  1  0.71239000  0.79045550  0.25395550  1
  C  2343  1  0.73594950  0.81968950  0.29077600  1
  C  2344  1  0.72756400  0.84666450  0.30629450  1
  C  2345  1  0.69399100  0.84173900  0.28275100  1
  C  2346  1  0.67025950  0.81240150  0.24740000  1
  C  2348  1  0.77689050  0.79611600  0.29768950  1
  C  2349  1  0.75365450  0.76749650  0.26114500  1
  C  2353  1  0.81146750  0.80117050  0.32274600  1
  C  2357  1  0.75979300  0.73823400  0.24260700  1
  C  2361  1  0.84205600  0.56238300  0.61798400  1
  C  2362  1  0.80902800  0.55216250  0.58858950  1
  C  2363  1  0.78547200  0.56543500  0.59426000  1
  C  2364  1  0.79381000  0.58926800  0.62962100  1
  C  2365  1  0.82732250  0.59920300  0.65828250  1
  C  2366  1  0.85106900  0.58760250  0.65268050  1
  C  2368  1  0.74464450  0.53159300  0.52972850  1
  C  2369  1  0.76787450  0.51827400  0.52434850  1
  C  2373  1  0.71013700  0.52218600  0.50019800  1
  C  2377  1  0.76179650  0.49369450  0.48893700  1
  C  2381  1  0.95497100  0.71327550  0.88170150  1
  C  2382  1  0.97407900  0.70958500  0.91107900  1
  C  2383  1  0.98166300  0.68034850  0.90539550  1
  C  2384  1  0.97019750  0.65337300  0.87003150  1
  C  2385  1  0.95159100  0.65831300  0.84139100  1
  C  2386  1  0.94559300  0.68766300  0.84701300  1
  C  2388  1  0.01218800  0.70393150  0.96991150  1
  C  2389  1  0.00426600  0.73255150  0.97530350  1
  C  2393  1  0.03221150  0.69888350  0.99943000  1
  C  2397  1  0.01501000  0.76182300  0.01071200  1
  H  7  1  0.14521050  0.12078900  0.15915450  1
  H  8  1  0.08640600  0.02564500  0.05853400  1
  H  15  1  0.19253750  0.15391900  0.30492350  1
  H  16  1  0.11000300  0.05831750  0.20826150  1
  H  19  1  0.08804950  0.00056550  0.15273100  1
  H  20  1  0.21614700  0.11239250  0.20511550  1
  H  27  1  0.37637500  0.02476750  0.48667750  1
  H  28  1  0.43507300  0.98286300  0.45021500  1
  H  35  1  0.32882800  0.12298100  0.47238400  1
  H  36  1  0.41136750  0.10887700  0.45919250  1
  H  39  1  0.43307600  0.07513750  0.42311850  1
  H  40  1  0.30522600  0.99962850  0.40717250  1
  H  47  1  0.54897000  0.37930500  0.01365600  1
  H  48  1  0.54370500  0.47450050  0.05086650  1
  H  55  1  0.66148450  0.34597150  0.02761700  1
  H  56  1  0.66051450  0.44161550  0.04074700  1
  H  59  1  0.66273400  0.49938700  0.07645100  1
  H  60  1  0.60340750  0.38758750  0.09290300  1
  H  67  1  0.97244400  0.47550100  0.34072200  1
  H  68  1  0.97787950  0.51580100  0.44143350  1
  H  75  1  0.85993200  0.37704150  0.19496250  1
  H  76  1  0.86084950  0.39104250  0.29157300  1
  H  79  1  0.85837200  0.42451500  0.34693000  1
  H  80  1  0.91807250  0.50038100  0.29482750  1
  H  87  1  0.98604800  0.84084950  0.96163250  1
  H  88  1  0.02789450  0.94146700  0.96710950  1
  H  95  1  0.88760250  0.69508000  0.84899550  1
  H  96  1  0.90173400  0.79174350  0.85005450  1
  H  99  1  0.93531700  0.84727500  0.84783700  1
  H  100  1  0.01102300  0.79488100  0.90727100  1
  H  107  1  0.88969500  0.51331750  0.53809350  1
  H  108  1  0.98485850  0.54978050  0.53265300  1
  H  115  1  0.85644200  0.52762050  0.65060150  1
  H  116  1  0.95217200  0.54080350  0.64968750  1
  H  119  1  0.00995550  0.57688350  0.65202300  1
  H  120  1  0.89805650  0.59282750  0.59245700  1
  H  127  1  0.53531600  0.98634400  0.36565100  1
  H  128  1  0.49285500  0.94914400  0.42365000  1
  H  135  1  0.63386650  0.97238150  0.31835200  1
  H  136  1  0.61977150  0.95925250  0.40086800  1
  H  139  1  0.58628950  0.92354900  0.42293750  1
  H  140  1  0.51050500  0.90709700  0.29468800  1
  H  147  1  0.63171800  0.65927500  0.13477000  1
  H  148  1  0.53644400  0.55856550  0.07439150  1
  H  155  1  0.66496500  0.80503500  0.18207100  1
  H  156  1  0.56927400  0.70842400  0.09945900  1
  H  159  1  0.51143900  0.65306400  0.07757600  1
  H  160  1  0.62324050  0.70517300  0.20554850  1
  H  167  1  0.02442250  0.03837000  0.87921650  1
  H  168  1  0.06079000  0.03289500  0.97435900  1
  H  175  1  0.03860250  0.15100150  0.84607800  1
  H  176  1  0.05167900  0.14994700  0.94168500  1
  H  179  1  0.08747350  0.15216550  0.99943500  1
  H  180  1  0.10375650  0.09273600  0.88761050  1
  H  187  1  0.35160300  0.46190350  0.97522550  1
  H  188  1  0.45220400  0.46734300  0.01713600  1
  H  195  1  0.20584000  0.34939700  0.87701400  1
  H  196  1  0.30248250  0.35030900  0.89111250  1
  H  199  1  0.35793300  0.34797500  0.92485500  1
  H  200  1  0.30559350  0.40753450  0.00036600  1
  H  207  1  0.16966150  0.63434850  0.62069400  1
  H  208  1  0.06920550  0.57637550  0.52549600  1
  H  215  1  0.31551200  0.68164050  0.65402850  1
  H  216  1  0.21889800  0.59912800  0.55838400  1
  H  219  1  0.16334600  0.57705800  0.50061300  1
  H  220  1  0.21581950  0.70531350  0.61241200  1
  H  227  1  0.49695150  0.86522550  0.52450600  1
  H  228  1  0.46205950  0.92560900  0.48417950  1
  H  235  1  0.48289100  0.81791800  0.62296000  1
  H  236  1  0.46981450  0.90053300  0.60896250  1
  H  239  1  0.43385850  0.92241200  0.57548350  1
  H  240  1  0.41769400  0.79444600  0.49962100  1
  H  247  1  0.64520900  0.15915300  0.12078300  1
  H  248  1  0.58641850  0.05853250  0.02564000  1
  H  255  1  0.69252900  0.30492050  0.15391650  1
  H  256  1  0.60999700  0.20825950  0.05831350  1
  H  259  1  0.58804400  0.15272700  0.00056200  1
  H  260  1  0.71614550  0.20511850  0.11238800  1
  H  267  1  0.87637100  0.48667550  0.02476750  1
  H  268  1  0.93507650  0.45021900  0.98286950  1
  H  275  1  0.82882650  0.47238450  0.12298200  1
  H  276  1  0.91136550  0.45919200  0.10887850  1
  H  279  1  0.93307550  0.42311850  0.07514000  1
  H  280  1  0.80522400  0.40716900  0.99962800  1
  H  287  1  0.04897300  0.01365800  0.37930400  1
  H  288  1  0.04370750  0.05086200  0.47450050  1
  H  295  1  0.16148850  0.02761900  0.34597250  1
  H  296  1  0.16051750  0.04074800  0.44161450  1
  H  299  1  0.16273700  0.07645300  0.49938700  1
  H  300  1  0.10341200  0.09290800  0.38758900  1
  H  307  1  0.47244700  0.34072300  0.47550700  1
  H  308  1  0.47788200  0.44143300  0.51580300  1
  H  315  1  0.35993750  0.19496450  0.37704200  1
  H  316  1  0.36085200  0.29157600  0.39105100  1
  H  319  1  0.35837350  0.34693050  0.42452200  1
  H  320  1  0.41807500  0.29482350  0.50038450  1
  H  327  1  0.48605150  0.96162950  0.84084600  1
  H  328  1  0.52788700  0.96710700  0.94146500  1
  H  335  1  0.38760550  0.84899400  0.69507850  1
  H  336  1  0.40173500  0.85005200  0.79173900  1
  H  339  1  0.43531700  0.84783500  0.84727300  1
  H  340  1  0.51102300  0.90726550  0.79487750  1
  H  347  1  0.38969450  0.53809150  0.51331900  1
  H  348  1  0.48485800  0.53264900  0.54976600  1
  H  355  1  0.35644350  0.65059700  0.52761750  1
  H  356  1  0.45217450  0.64968600  0.54080950  1
  H  359  1  0.50995800  0.65202450  0.57688950  1
  H  360  1  0.39805200  0.59245250  0.59282750  1
  H  367  1  0.03531600  0.36565300  0.98634600  1
  H  368  1  0.99284950  0.42364700  0.94914250  1
  H  375  1  0.13386400  0.31835400  0.97237900  1
  H  376  1  0.11976950  0.40086850  0.95925200  1
  H  379  1  0.08628300  0.42293600  0.92354600  1
  H  380  1  0.01050300  0.29468800  0.90709600  1
  H  387  1  0.13171900  0.13477000  0.65927400  1
  H  388  1  0.03644550  0.07439300  0.55856450  1
  H  395  1  0.16496500  0.18207200  0.80503500  1
  H  396  1  0.06927500  0.09945950  0.70842350  1
  H  399  1  0.01143900  0.07757850  0.65306250  1
  H  400  1  0.12324000  0.20554850  0.70517150  1
  H  407  1  0.52442050  0.87921550  0.03836800  1
  H  408  1  0.56079100  0.97435800  0.03289200  1
  H  415  1  0.53860250  0.84608000  0.15099950  1
  H  416  1  0.55167900  0.94168500  0.14994400  1
  H  419  1  0.58747550  0.99943650  0.15216200  1
  H  420  1  0.60375450  0.88760950  0.09273300  1
  H  427  1  0.85160300  0.97522600  0.46190000  1
  H  428  1  0.95220550  0.01713750  0.46734300  1
  H  435  1  0.70584300  0.87701650  0.34939650  1
  H  436  1  0.80248450  0.89111450  0.35030800  1
  H  439  1  0.85793500  0.92485400  0.34797400  1
  H  440  1  0.80559750  0.00036800  0.40753250  1
  H  447  1  0.66966250  0.62069250  0.63434700  1
  H  448  1  0.56920700  0.52549650  0.57637350  1
  H  455  1  0.81551300  0.65403150  0.68164350  1
  H  456  1  0.71890100  0.55838650  0.59913050  1
  H  459  1  0.66334900  0.50061450  0.57706250  1
  H  460  1  0.71582100  0.61241400  0.70531600  1
  H  467  1  0.99694900  0.52450700  0.86522900  1
  H  468  1  0.96204750  0.48417150  0.92560200  1
  H  475  1  0.98289400  0.62296450  0.81792550  1
  H  476  1  0.96981550  0.60896600  0.90053850  1
  H  479  1  0.93386100  0.57548800  0.92242000  1
  H  480  1  0.91769000  0.49962600  0.79444900  1
  H  971  1  0.15875250  0.09153450  0.07874700  1
  H  972  1  0.14283500  0.09597950  0.02552250  1
  H  974  1  0.98232850  0.09373850  0.98996100  1
  H  975  1  0.98218300  0.11337150  0.03093150  1
  H  976  1  0.96110450  0.06547400  0.00438250  1
  H  978  1  0.97836600  0.06004500  0.06252600  1
  H  979  1  0.99955700  0.10784450  0.08996450  1
  H  980  1  0.01674800  0.08313900  0.10620200  1
  H  991  1  0.36261200  0.93090950  0.44452450  1
  H  992  1  0.37889350  0.89384550  0.46512800  1
  H  994  1  0.54044100  0.01937150  0.62212650  1
  H  995  1  0.54057300  0.06049350  0.64182650  1
  H  996  1  0.56137650  0.05485250  0.61475700  1
  H  998  1  0.54375750  0.09538300  0.59174550  1
  H  999  1  0.52293900  0.10191200  0.61869000  1
  H  1000  1  0.50532600  0.10064100  0.57666300  1
  H  1011  1  0.49804350  0.40926950  0.05721400  1
  H  1012  1  0.44040000  0.40484000  0.03669500  1
  H  1014  1  0.40671200  0.40521150  0.87759250  1
  H  1015  1  0.42794650  0.38527150  0.85794600  1
  H  1016  1  0.44935900  0.43321800  0.88438200  1
  H  1018  1  0.51288100  0.43856900  0.90717600  1
  H  1019  1  0.49248450  0.39072000  0.88097150  1
  H  1020  1  0.53349000  0.41566700  0.92284200  1
  H  1031  1  0.02330400  0.56848100  0.42023000  1
  H  1032  1  0.08095650  0.60632600  0.47360550  1
  H  1034  1  0.11518250  0.48267800  0.51133150  1
  H  1035  1  0.09401700  0.44137400  0.47060400  1
  H  1036  1  0.07262300  0.44696200  0.49709300  1
  H  1038  1  0.00912000  0.40553600  0.43892900  1
  H  1039  1  0.02949600  0.39921100  0.41151800  1
  H  1040  1  0.98837900  0.39982200  0.39507800  1
  H  1051  1  0.08001450  0.92126500  0.01279250  1
  H  1052  1  0.11731550  0.97449050  0.07046400  1
  H  1054  1  0.99234500  0.01002300  0.10375700  1
  H  1055  1  0.95123200  0.96904950  0.08241850  1
  H  1056  1  0.95670100  0.99559750  0.06106750  1
  H  1058  1  0.91582800  0.93745200  0.99749500  1
  H  1059  1  0.90958450  0.91001700  0.01785850  1
  H  1060  1  0.91054100  0.89377850  0.97691650  1
  H  1071  1  0.91807250  0.55545700  0.48637950  1
  H  1072  1  0.91375000  0.53485150  0.42871250  1
  H  1074  1  0.91834150  0.37787650  0.39726500  1
  H  1075  1  0.89877750  0.35817550  0.41869000  1
  H  1076  1  0.94664850  0.38525050  0.44011600  1
  H  1078  1  0.95204200  0.40826650  0.50366050  1
  H  1079  1  0.90427800  0.38131450  0.48324350  1
  H  1080  1  0.92868750  0.42334250  0.52399700  1
  H  1091  1  0.44084100  0.94279000  0.35206200  1
  H  1092  1  0.40371100  0.96330500  0.36814800  1
  H  1094  1  0.52911650  0.12240550  0.52762600  1
  H  1095  1  0.56999900  0.14205500  0.52733500  1
  H  1096  1  0.56497700  0.11562000  0.54884600  1
  H  1098  1  0.60570750  0.09282850  0.53140400  1
  H  1099  1  0.61151650  0.11903550  0.50976200  1
  H  1100  1  0.61065350  0.07716600  0.49283850  1
  H  1111  1  0.60306700  0.57975850  0.14825150  1
  H  1112  1  0.60734400  0.52638300  0.13271400  1
  H  1114  1  0.60385000  0.48868250  0.97134750  1
  H  1115  1  0.62341200  0.52941250  0.97077450  1
  H  1116  1  0.57553050  0.50292500  0.94987450  1
  H  1118  1  0.57019100  0.56108750  0.96661950  1
  H  1119  1  0.61797750  0.58849900  0.98770550  1
  H  1120  1  0.59330150  0.60493650  0.00476000  1
  H  1131  1  0.06723800  0.98721900  0.90848400  1
  H  1132  1  0.04686900  0.92954750  0.90403650  1
  H  1134  1  0.88858900  0.89622800  0.90624300  1
  H  1135  1  0.86881400  0.91756600  0.88660700  1
  H  1136  1  0.89562850  0.93891650  0.93450500  1
  H  1138  1  0.91832200  0.00248700  0.93993200  1
  H  1139  1  0.89172050  0.98212450  0.89213100  1
  H  1140  1  0.93361700  0.02307000  0.91684000  1
  H  1151  1  0.43169600  0.51360800  0.06908500  1
  H  1152  1  0.48503950  0.57127600  0.10615050  1
  H  1154  1  0.52106650  0.60274700  0.98062550  1
  H  1155  1  0.48007750  0.58132450  0.93950200  1
  H  1156  1  0.50652350  0.55989850  0.94514800  1
  H  1158  1  0.44837300  0.49635350  0.90461550  1
  H  1159  1  0.42102400  0.51676900  0.89808400  1
  H  1160  1  0.40468350  0.47601450  0.89935700  1
  H  1171  1  0.08876350  0.64794150  0.59071900  1
  H  1172  1  0.03554900  0.63184850  0.59515050  1
  H  1174  1  0.00151400  0.47238500  0.59479800  1
  H  1175  1  0.04269200  0.47268700  0.61474100  1
  H  1176  1  0.01615950  0.45117100  0.56679550  1
  H  1178  1  0.07433050  0.46862050  0.56144600  1
  H  1179  1  0.10178150  0.49026750  0.60929400  1
  H  1180  1  0.11783900  0.50719150  0.58434550  1
  H  1191  1  0.45482750  0.85174700  0.43151250  1
  H  1192  1  0.47464700  0.86728700  0.39367700  1
  H  1194  1  0.63250800  0.02866550  0.51734950  1
  H  1195  1  0.65264100  0.02923750  0.55865250  1
  H  1196  1  0.62565600  0.05013450  0.55306050  1
  H  1198  1  0.60357000  0.03338600  0.59447700  1
  H  1199  1  0.63027400  0.01230300  0.60080500  1
  H  1200  1  0.58854100  0.99524400  0.60018400  1
  H  1211  1  0.65875300  0.07873950  0.09152350  1
  H  1212  1  0.64283600  0.02551700  0.09597000  1
  H  1214  1  0.48233900  0.98997150  0.09374750  1
  H  1215  1  0.48219500  0.03094250  0.11338050  1
  H  1216  1  0.46111450  0.00439350  0.06548200  1
  H  1218  1  0.47837850  0.06253700  0.06005350  1
  H  1219  1  0.49957300  0.08997650  0.10785350  1
  H  1220  1  0.51676150  0.10621350  0.08314700  1
  H  1231  1  0.86261000  0.44452350  0.93091350  1
  H  1232  1  0.87888700  0.46512500  0.89384700  1
  H  1234  1  0.04043750  0.62212350  0.01936600  1
  H  1235  1  0.04057100  0.64182550  0.06048950  1
  H  1236  1  0.06137350  0.61475600  0.05484550  1
  H  1238  1  0.04375750  0.59174500  0.09537850  1
  H  1239  1  0.02293950  0.61869150  0.10191000  1
  H  1240  1  0.00532800  0.57666400  0.10063900  1
  H  1251  1  0.99804700  0.05721200  0.40926800  1
  H  1252  1  0.94040100  0.03669400  0.40483600  1
  H  1254  1  0.90671200  0.87759350  0.40521350  1
  H  1255  1  0.92794750  0.85794700  0.38527350  1
  H  1256  1  0.94936000  0.88438350  0.43322150  1
  H  1258  1  0.01288150  0.90717700  0.43857150  1
  H  1259  1  0.99248650  0.88097100  0.39072450  1
  H  1260  1  0.03349100  0.92284150  0.41567050  1
  H  1271  1  0.52330850  0.42023250  0.56848600  1
  H  1272  1  0.58096050  0.47360700  0.60632750  1
  H  1274  1  0.61518200  0.51132850  0.48267750  1
  H  1275  1  0.59401700  0.47059950  0.44137350  1
  H  1276  1  0.57262150  0.49708800  0.44695950  1
  H  1278  1  0.50912000  0.43892300  0.40553500  1
  H  1279  1  0.52949600  0.41151250  0.39921150  1
  H  1280  1  0.48838100  0.39507500  0.39982400  1
  H  1291  1  0.58001200  0.01278950  0.92125850  1
  H  1292  1  0.61731350  0.07045800  0.97448250  1
  H  1294  1  0.49235400  0.10376200  0.01002600  1
  H  1295  1  0.45123900  0.08242350  0.96905450  1
  H  1296  1  0.45671100  0.06107400  0.99560200  1
  H  1298  1  0.41583500  0.99750250  0.93745950  1
  H  1299  1  0.40958650  0.01786350  0.91002000  1
  H  1300  1  0.41054300  0.97692250  0.89378350  1
  H  1311  1  0.41806900  0.48638050  0.55545250  1
  H  1312  1  0.41374700  0.42871250  0.53485050  1
  H  1314  1  0.41834650  0.39725950  0.37787800  1
  H  1315  1  0.39878200  0.41868100  0.35817500  1
  H  1316  1  0.44665200  0.44010800  0.38524900  1
  H  1318  1  0.45204650  0.50365200  0.40826150  1
  H  1319  1  0.40428350  0.48323600  0.38130950  1
  H  1320  1  0.42869150  0.52398750  0.42333600  1
  H  1331  1  0.94083900  0.35206250  0.94279250  1
  H  1332  1  0.90371000  0.36814850  0.96330950  1
  H  1334  1  0.02912150  0.52763150  0.12240700  1
  H  1335  1  0.07000250  0.52733900  0.14205550  1
  H  1336  1  0.06498000  0.54884900  0.11561900  1
  H  1338  1  0.10570800  0.53140600  0.09282400  1
  H  1339  1  0.11151750  0.50976400  0.11903150  1
  H  1340  1  0.11065150  0.49283900  0.07716050  1
  H  1351  1  0.10307000  0.14825200  0.57975900  1
  H  1352  1  0.10735100  0.13271450  0.52638450  1
  H  1354  1  0.10384850  0.97134300  0.48868250  1
  H  1355  1  0.12341050  0.97077250  0.52941400  1
  H  1356  1  0.07552750  0.94987200  0.50292450  1
  H  1358  1  0.07018950  0.96662000  0.56108850  1
  H  1359  1  0.11797550  0.98770350  0.58850000  1
  H  1360  1  0.09329850  0.00475900  0.60493650  1
  H  1371  1  0.56723250  0.90847850  0.98721300  1
  H  1372  1  0.54686400  0.90403100  0.92954200  1
  H  1374  1  0.38858950  0.90624900  0.89623150  1
  H  1375  1  0.36881550  0.88661400  0.91757150  1
  H  1376  1  0.39563150  0.93451250  0.93892000  1
  H  1378  1  0.41832800  0.93994000  0.00249100  1
  H  1379  1  0.39172500  0.89214150  0.98213150  1
  H  1380  1  0.43362150  0.91684750  0.02307300  1
  H  1391  1  0.93169850  0.06908800  0.51360550  1
  H  1392  1  0.98504200  0.10615150  0.57127450  1
  H  1394  1  0.02106450  0.98062650  0.60274700  1
  H  1395  1  0.98007500  0.93950450  0.58132450  1
  H  1396  1  0.00652200  0.94514800  0.55989900  1
  H  1398  1  0.94837100  0.90461550  0.49635450  1
  H  1399  1  0.92102100  0.89808450  0.51676850  1
  H  1400  1  0.90468250  0.89935850  0.47601500  1
  H  1411  1  0.58876550  0.59072350  0.64793900  1
  H  1412  1  0.53555050  0.59515450  0.63184500  1
  H  1414  1  0.50151300  0.59478800  0.47237600  1
  H  1415  1  0.54268950  0.61473000  0.47267550  1
  H  1416  1  0.51615950  0.56678500  0.45116250  1
  H  1418  1  0.57433000  0.56143600  0.46861400  1
  H  1419  1  0.60178300  0.60928600  0.49026100  1
  H  1420  1  0.61783800  0.58433850  0.50718550  1
  H  1431  1  0.95481600  0.43150600  0.85174700  1
  H  1432  1  0.97463700  0.39367250  0.86728750  1
  H  1434  1  0.13250700  0.51734900  0.02865600  1
  H  1435  1  0.15263800  0.55864900  0.02922500  1
  H  1436  1  0.12565600  0.55306150  0.05012550  1
  H  1438  1  0.10356800  0.59447550  0.03337550  1
  H  1439  1  0.13026800  0.60080150  0.01228950  1
  H  1440  1  0.08853800  0.60018250  0.99523450  1
  H  1931  1  0.18591700  0.09660100  0.36416700  1
  H  1932  1  0.19559400  0.11459450  0.32452750  1
  H  1934  1  0.02165400  0.03520550  0.18603650  1
  H  1935  1  0.99257350  0.03064150  0.20449400  1
  H  1936  1  0.99615700  0.99273200  0.18107000  1
  H  1938  1  0.97699250  0.98581400  0.22597950  1
  H  1939  1  0.99605000  0.00685650  0.27351750  1
  H  1940  1  0.99927150  0.96886750  0.25002200  1
  H  1951  1  0.33545550  0.18890450  0.42169000  1
  H  1952  1  0.32579250  0.13963900  0.43010950  1
  H  1954  1  0.49973250  0.17487050  0.52423600  1
  H  1955  1  0.52887600  0.22239500  0.54869900  1
  H  1956  1  0.52513050  0.19531100  0.50713650  1
  H  1958  1  0.54434850  0.25938750  0.51935600  1
  H  1959  1  0.52535850  0.28792600  0.52141050  1
  H  1960  1  0.52198300  0.26112050  0.48013750  1
  H  1971  1  0.77810550  0.40338550  0.07849300  1
  H  1972  1  0.72042600  0.38531950  0.07006050  1
  H  1974  1  0.66133450  0.46457300  0.97533150  1
  H  1975  1  0.68439500  0.46913300  0.95084800  1
  H  1976  1  0.69882900  0.50705300  0.99230700  1
  H  1978  1  0.75070400  0.51399250  0.98013150  1
  H  1979  1  0.77723650  0.49298400  0.97822450  1
  H  1980  1  0.79167700  0.53098650  0.01939950  1
  H  1991  1  0.74331900  0.31100600  0.13561800  1
  H  1992  1  0.80099000  0.36030250  0.17522450  1
  H  1994  1  0.85993450  0.32508250  0.31393600  1
  H  1995  1  0.83688300  0.27755450  0.29553850  1
  H  1996  1  0.82240550  0.30462250  0.31889900  1
  H  1998  1  0.77055300  0.24055300  0.27404300  1
  H  1999  1  0.74405600  0.21201950  0.22651350  1
  H  2000  1  0.72959150  0.23881650  0.24996100  1
  H  2011  1  0.82174900  0.63583950  0.73243150  1
  H  2012  1  0.87106400  0.67548000  0.79006800  1
  H  2014  1  0.83559850  0.81395900  0.84917050  1
  H  2015  1  0.78805850  0.79549500  0.82614550  1
  H  2016  1  0.81506550  0.81892350  0.81166300  1
  H  2018  1  0.75099300  0.77401100  0.75983400  1
  H  2019  1  0.72251700  0.72647300  0.73333700  1
  H  2020  1  0.74923300  0.74997450  0.71884450  1
  H  2031  1  0.91377350  0.57832600  0.76721950  1
  H  2032  1  0.89569250  0.56990550  0.70953600  1
  H  2034  1  0.97546400  0.47572900  0.65063000  1
  H  2035  1  0.98013450  0.45126650  0.67369600  1
  H  2036  1  0.01795900  0.49281950  0.68816850  1
  H  2038  1  0.02495300  0.48060550  0.74002650  1
  H  2039  1  0.00391100  0.47856500  0.76651600  1
  H  2040  1  0.04181700  0.51982950  0.78098050  1
  H  2051  1  0.69961000  0.92150400  0.32488500  1
  H  2052  1  0.65036450  0.92993800  0.31525550  1
  H  2054  1  0.68601050  0.02467200  0.48924150  1
  H  2055  1  0.73355400  0.04915500  0.51828200  1
  H  2056  1  0.70653150  0.00769750  0.51474700  1
  H  2058  1  0.77058050  0.01987100  0.53385650  1
  H  2059  1  0.79901850  0.02177700  0.51475350  1
  H  2060  1  0.77228550  0.98060350  0.51158400  1
  H  2071  1  0.60768000  0.86436600  0.17538700  1
  H  2072  1  0.62574700  0.82476050  0.18507250  1
  H  2074  1  0.54603500  0.68608900  0.01113500  1
  H  2075  1  0.54139000  0.70449900  0.98201400  1
  H  2076  1  0.50354300  0.68112350  0.98570150  1
  H  2078  1  0.49655000  0.72598550  0.96649850  1
  H  2079  1  0.51758050  0.77351900  0.98550950  1
  H  2080  1  0.47965800  0.75005500  0.98883600  1
  H  2091  1  0.08930750  0.26756550  0.90339700  1
  H  2092  1  0.08098650  0.20992950  0.88540200  1
  H  2094  1  0.98643350  0.15083300  0.96479250  1
  H  2095  1  0.96191800  0.17385700  0.96935400  1
  H  2096  1  0.00340950  0.18833900  0.00726350  1
  H  2098  1  0.99116650  0.24017000  0.01418250  1
  H  2099  1  0.98918450  0.26666550  0.99314000  1
  H  2100  1  0.03039350  0.28115750  0.03113100  1
  H  2111  1  0.14655050  0.23277850  0.81109900  1
  H  2112  1  0.18615350  0.29046300  0.86036150  1
  H  2114  1  0.32483600  0.34936650  0.82509750  1
  H  2115  1  0.30644250  0.32630100  0.77757150  1
  H  2116  1  0.32979300  0.31182800  0.80465200  1
  H  2118  1  0.28492950  0.25997000  0.74057850  1
  H  2119  1  0.23739950  0.23348200  0.71204750  1
  H  2120  1  0.26083800  0.21901700  0.73884800  1
  H  2131  1  0.37472150  0.67510550  0.59661800  1
  H  2132  1  0.33510800  0.68473850  0.61468350  1
  H  2134  1  0.19675700  0.51075550  0.53541950  1
  H  2135  1  0.21525500  0.48171000  0.53085700  1
  H  2136  1  0.19177200  0.48525250  0.49293850  1
  H  2138  1  0.23670550  0.46613700  0.48599650  1
  H  2139  1  0.28424700  0.48523600  0.50700600  1
  H  2140  1  0.26068750  0.48841350  0.46900700  1
  H  2151  1  0.43229850  0.82460800  0.68898150  1
  H  2152  1  0.44067950  0.81492150  0.63969000  1
  H  2154  1  0.53488500  0.98885650  0.67494050  1
  H  2155  1  0.55936150  0.01798250  0.72247100  1
  H  2156  1  0.51782300  0.01428650  0.69540450  1
  H  2158  1  0.53003300  0.03349200  0.75947000  1
  H  2159  1  0.53205950  0.01448800  0.78799650  1
  H  2160  1  0.49080550  0.01115350  0.76120400  1
  H  2171  1  0.68591200  0.36416650  0.09659750  1
  H  2172  1  0.69558800  0.32452500  0.11459200  1
  H  2174  1  0.52164700  0.18603700  0.03520700  1
  H  2175  1  0.49256750  0.20449800  0.03064350  1
  H  2176  1  0.49614950  0.18107150  0.99273400  1
  H  2178  1  0.47698700  0.22598300  0.98581700  1
  H  2179  1  0.49604650  0.27352000  0.00685950  1
  H  2180  1  0.49926400  0.25002250  0.96886750  1
  H  2191  1  0.83545450  0.42169250  0.18890900  1
  H  2192  1  0.82579150  0.43011100  0.13964250  1
  H  2194  1  0.99973100  0.52423250  0.17487150  1
  H  2195  1  0.02887300  0.54869450  0.22239650  1
  H  2196  1  0.02512700  0.50713250  0.19531250  1
  H  2198  1  0.04434550  0.51935200  0.25938750  1
  H  2199  1  0.02535500  0.52140750  0.28792750  1
  H  2200  1  0.02197900  0.48013350  0.26112150  1
  H  2211  1  0.27811000  0.07849100  0.40338400  1
  H  2212  1  0.22043000  0.07006000  0.38531900  1
  H  2214  1  0.16133600  0.97533900  0.46457800  1
  H  2215  1  0.18439550  0.95085400  0.46914050  1
  H  2216  1  0.19883200  0.99231500  0.50706000  1
  H  2218  1  0.25070500  0.98013800  0.51400000  1
  H  2219  1  0.27723800  0.97822900  0.49299200  1
  H  2220  1  0.29167900  0.01940500  0.53099300  1
  H  2231  1  0.24332550  0.13560950  0.31099100  1
  H  2232  1  0.30099550  0.17521200  0.36029150  1
  H  2234  1  0.35992800  0.31396250  0.32511650  1
  H  2235  1  0.33687700  0.29557850  0.27758950  1
  H  2236  1  0.32239500  0.31892400  0.30466400  1
  H  2238  1  0.27054550  0.27407850  0.24059100  1
  H  2239  1  0.24405100  0.22654950  0.21204750  1
  H  2240  1  0.22958650  0.24998500  0.23885150  1
  H  2251  1  0.32174650  0.73242800  0.63583550  1
  H  2252  1  0.37106300  0.79006400  0.67547600  1
  H  2254  1  0.33560200  0.84916950  0.81395850  1
  H  2255  1  0.28806300  0.82614700  0.79549600  1
  H  2256  1  0.31506900  0.81166300  0.81892300  1
  H  2258  1  0.25099500  0.75983300  0.77401100  1
  H  2259  1  0.22252050  0.73333750  0.72647400  1
  H  2260  1  0.24923500  0.71884450  0.74997350  1
  H  2271  1  0.41376000  0.76721350  0.57830650  1
  H  2272  1  0.39567900  0.70953000  0.56989000  1
  H  2274  1  0.47549650  0.65063600  0.47576650  1
  H  2275  1  0.48017550  0.67369850  0.45130300  1
  H  2276  1  0.51799250  0.68817600  0.49286550  1
  H  2278  1  0.52499150  0.74003150  0.48064600  1
  H  2279  1  0.50394750  0.76651800  0.47859150  1
  H  2280  1  0.54184400  0.78098400  0.51986500  1
  H  2291  1  0.19960800  0.32488700  0.92150200  1
  H  2292  1  0.15036100  0.31525550  0.92993350  1
  H  2294  1  0.18600900  0.48924100  0.02467100  1
  H  2295  1  0.23355300  0.51828250  0.04915550  1
  H  2296  1  0.20653100  0.51474850  0.00769850  1
  H  2298  1  0.27057900  0.53385800  0.01987200  1
  H  2299  1  0.29901650  0.51475500  0.02177750  1
  H  2300  1  0.27228450  0.51158600  0.98060350  1
  H  2311  1  0.10767950  0.17538750  0.86436500  1
  H  2312  1  0.12574700  0.18507350  0.82475950  1
  H  2314  1  0.04603550  0.01113500  0.68608850  1
  H  2315  1  0.04139050  0.98201500  0.70449850  1
  H  2316  1  0.00354200  0.98570050  0.68112150  1
  H  2318  1  0.99655200  0.96650050  0.72598750  1
  H  2319  1  0.01758100  0.98551100  0.77351800  1
  H  2320  1  0.97965800  0.98883750  0.75005450  1
  H  2331  1  0.58930950  0.90339950  0.26756500  1
  H  2332  1  0.58098800  0.88540400  0.20992900  1
  H  2334  1  0.48643300  0.96479150  0.15083150  1
  H  2335  1  0.46191850  0.96935400  0.17385550  1
  H  2336  1  0.50340900  0.00726450  0.18833850  1
  H  2338  1  0.49116800  0.01418350  0.24017050  1
  H  2339  1  0.48918650  0.99314100  0.26666550  1
  H  2340  1  0.53039500  0.03113200  0.28115800  1
  H  2351  1  0.64655100  0.81110050  0.23277750  1
  H  2352  1  0.68615550  0.86036300  0.29046150  1
  H  2354  1  0.82483600  0.82509950  0.34936450  1
  H  2355  1  0.80644150  0.77757050  0.32630000  1
  H  2356  1  0.82979350  0.80465150  0.31182700  1
  H  2358  1  0.78492850  0.74057850  0.25996900  1
  H  2359  1  0.73739650  0.71204700  0.23348050  1
  H  2360  1  0.76083600  0.73884800  0.21901500  1
  H  2371  1  0.87472500  0.59662100  0.67510900  1
  H  2372  1  0.83511000  0.61468600  0.68474100  1
  H  2374  1  0.69676250  0.53542350  0.51075800  1
  H  2375  1  0.71525900  0.53086050  0.48171250  1
  H  2376  1  0.69177550  0.49294250  0.48525400  1
  H  2378  1  0.73671050  0.48600150  0.46614000  1
  H  2379  1  0.78425150  0.50701000  0.48523950  1
  H  2380  1  0.76069050  0.46900850  0.48841500  1
  H  2391  1  0.93229650  0.68898350  0.82461300  1
  H  2392  1  0.94067950  0.63969350  0.81492700  1
  H  2394  1  0.03489300  0.67495050  0.98886450  1
  H  2395  1  0.05936900  0.72248150  0.01798650  1
  H  2396  1  0.01783200  0.69541500  0.01429600  1
  H  2398  1  0.03004100  0.75948100  0.03349900  1
  H  2399  1  0.03206400  0.78800500  0.01449000  1
  H  2400  1  0.99081350  0.76121450  0.01116100  1
  N  967  1  0.04219600  0.09705700  0.02171600  1
  N  970  1  0.06005600  0.09169150  0.08187850  1
  N  987  1  0.48026500  0.99101700  0.56584100  1
  N  990  1  0.46203300  0.03303100  0.54240900  1
  N  1007  1  0.43526100  0.40246850  0.93449150  1
  N  1010  1  0.50075200  0.40775750  0.95784050  1
  N  1027  1  0.08639600  0.51019150  0.47896550  1
  N  1030  1  0.02088600  0.46735950  0.41881550  1
  N  1047  1  0.02046700  0.97827700  0.07532900  1
  N  1050  1  0.97817700  0.91811400  0.00980300  1
  N  1067  1  0.91443800  0.43415350  0.42518850  1
  N  1070  1  0.91963650  0.45758650  0.49063200  1
  N  1087  1  0.50077050  0.06550750  0.46798400  1
  N  1090  1  0.54291650  0.04216300  0.44992650  1
  N  1107  1  0.60742950  0.52104150  0.03122700  1
  N  1110  1  0.60207050  0.58119250  0.04855400  1
  N  1127  1  0.94514350  0.92466450  0.90293400  1
  N  1130  1  0.96837500  0.99019100  0.90829900  1
  N  1147  1  0.48924250  0.57481700  0.00897950  1
  N  1150  1  0.42899750  0.50937150  0.96696500  1
  N  1167  1  0.03279800  0.53202600  0.59753500  1
  N  1170  1  0.09300200  0.55009150  0.59224750  1
  N  1187  1  0.57620900  0.96878000  0.48982400  1
  N  1190  1  0.55352050  0.95145000  0.53264650  1
  N  1207  1  0.54220300  0.02172200  0.09706000  1
  N  1210  1  0.56006500  0.08188200  0.09169200  1
  N  1227  1  0.98026150  0.56584000  0.99101450  1
  N  1230  1  0.96203450  0.54241200  0.03303150  1
  N  1247  1  0.93526250  0.93449200  0.40246950  1
  N  1250  1  0.00075450  0.95784100  0.40775950  1
  N  1267  1  0.58639750  0.47896400  0.51019250  1
  N  1270  1  0.52088800  0.41881350  0.46736150  1
  N  1287  1  0.52047300  0.07533150  0.97827650  1
  N  1290  1  0.47817700  0.00980400  0.91811400  1
  N  1307  1  0.41444200  0.42518450  0.43415450  1
  N  1310  1  0.41964050  0.49063000  0.45758350  1
  N  1327  1  0.00077300  0.46798700  0.06551000  1
  N  1330  1  0.04291800  0.44993050  0.04216350  1
  N  1347  1  0.10743000  0.03122600  0.52104100  1
  N  1350  1  0.10207050  0.04855350  0.58119200  1
  N  1367  1  0.44514250  0.90293750  0.92466600  1
  N  1370  1  0.46837700  0.90830300  0.99019300  1
  N  1387  1  0.98924400  0.00898200  0.57481700  1
  N  1390  1  0.92899800  0.96696700  0.50937200  1
  N  1407  1  0.53279700  0.59752750  0.53201750  1
  N  1410  1  0.59300250  0.59224250  0.55008700  1
  N  1427  1  0.07620400  0.48982200  0.96877300  1
  N  1430  1  0.05351450  0.53264250  0.95144400  1
  N  1927  1  0.07519100  0.05420800  0.24405400  1
  N  1930  1  0.06492850  0.02907750  0.28811900  1
  N  1947  1  0.44619150  0.17941900  0.48983750  1
  N  1950  1  0.45642400  0.23371150  0.47491850  1
  N  1967  1  0.70035850  0.44563450  0.00995500  1
  N  1970  1  0.76958200  0.47080950  0.02490050  1
  N  1987  1  0.82096550  0.32053950  0.25585600  1
  N  1990  1  0.75175750  0.26624300  0.21180950  1
  N  2007  1  0.83112550  0.75594550  0.81015300  1
  N  2010  1  0.77680000  0.71188100  0.74095600  1
  N  2027  1  0.95633650  0.51014650  0.68958200  1
  N  2030  1  0.98149150  0.52507200  0.75879650  1
  N  2047  1  0.69040850  0.99004700  0.43567750  1
  N  2050  1  0.74468650  0.97510050  0.44590400  1
  N  2067  1  0.56512250  0.74415350  0.06467400  1
  N  2070  1  0.53995850  0.78819950  0.05442800  1
  N  2087  1  0.02097300  0.18984750  0.94579050  1
  N  2090  1  0.03584450  0.25904550  0.97092400  1
  N  2107  1  0.26675600  0.31041550  0.82056250  1
  N  2110  1  0.22269500  0.24120150  0.76627350  1
  N  2127  1  0.25472200  0.56431800  0.55436200  1
  N  2130  1  0.29877100  0.55408900  0.52918800  1
  N  2147  1  0.50044250  0.93531900  0.67947350  1
  N  2150  1  0.48552400  0.94556550  0.73376450  1
  N  2167  1  0.57518500  0.24405300  0.05420700  1
  N  2170  1  0.56492250  0.28811850  0.02907600  1
  N  2187  1  0.94619000  0.48983550  0.17942050  1
  N  2190  1  0.95642000  0.47491500  0.23371300  1
  N  2207  1  0.20036000  0.00995800  0.44563700  1
  N  2210  1  0.26958350  0.02490200  0.47081250  1
  N  2227  1  0.32096300  0.25587000  0.32055600  1
  N  2230  1  0.25175550  0.21182350  0.26625700  1
  N  2247  1  0.33112650  0.81015250  0.75594400  1
  N  2250  1  0.27680050  0.74095600  0.71187950  1
  N  2267  1  0.45635200  0.68958250  0.51016350  1
  N  2270  1  0.48150550  0.75879700  0.52508450  1
  N  2287  1  0.19040450  0.43567800  0.99004550  1
  N  2290  1  0.24468400  0.44590650  0.97509950  1
  N  2307  1  0.06512200  0.06467350  0.74415250  1
  N  2310  1  0.03995850  0.05442800  0.78819950  1
  N  2327  1  0.52097300  0.94579250  0.18984550  1
  N  2330  1  0.53584500  0.97092350  0.25904350  1
  N  2347  1  0.76675600  0.82056350  0.31041350  1
  N  2350  1  0.72269350  0.76627250  0.24119900  1
  N  2367  1  0.75472450  0.55436600  0.56432050  1
  N  2370  1  0.79877400  0.52919000  0.55409200  1
  N  2387  1  0.00044550  0.67948000  0.93532450  1
  N  2390  1  0.98552800  0.73377200  0.94557200  1
  O  17  1  0.11296300  0.01361900  0.15762300  1
  O  18  1  0.20738300  0.12981750  0.20822250  1
  O  37  1  0.40818300  0.05512850  0.41137950  1
  O  38  1  0.31403900  0.01148150  0.43337150  1
  O  57  1  0.65471800  0.48638600  0.08840900  1
  O  58  1  0.58903250  0.37018750  0.06670700  1
  O  77  1  0.86677600  0.44462700  0.34221000  1
  O  78  1  0.93239800  0.48852200  0.29171300  1
  O  97  1  0.95533550  0.84238000  0.85599450  1
  O  98  1  0.99915200  0.79177850  0.92159150  1
  O  117  1  0.99680150  0.58862250  0.64375300  1
  O  118  1  0.88066850  0.56662850  0.57811100  1
  O  137  1  0.56631500  0.91159150  0.39797950  1
  O  138  1  0.52232750  0.93329400  0.30348350  1
  O  157  1  0.52456350  0.65778700  0.10240950  1
  O  158  1  0.64067900  0.70828550  0.19680250  1
  O  177  1  0.09933800  0.14400750  0.98638350  1
  O  178  1  0.07756450  0.07841350  0.87018800  1
  O  197  1  0.35304800  0.35624350  0.94486350  1
  O  198  1  0.30255400  0.42188200  0.98851300  1
  O  217  1  0.16833200  0.60201750  0.51361250  1
  O  218  1  0.21884550  0.69651750  0.62981300  1
  O  237  1  0.42215250  0.89758100  0.55537450  1
  O  238  1  0.44387950  0.80319150  0.51148000  1
  O  257  1  0.61295800  0.15762100  0.01361400  1
  O  258  1  0.70737900  0.20822300  0.12981100  1
  O  277  1  0.90818200  0.41137900  0.05513000  1
  O  278  1  0.81403600  0.43336900  0.01148100  1
  O  297  1  0.15472000  0.08841100  0.48638600  1
  O  298  1  0.08903750  0.06671200  0.37018850  1
  O  317  1  0.36678100  0.34221150  0.44463450  1
  O  318  1  0.43240250  0.29170950  0.48852400  1
  O  337  1  0.45533800  0.85599400  0.84237900  1
  O  338  1  0.49915250  0.92158550  0.79177500  1
  O  357  1  0.49680250  0.64375000  0.58862550  1
  O  358  1  0.38066600  0.57810850  0.56662750  1
  O  377  1  0.06630800  0.39797700  0.91158800  1
  O  378  1  0.02232450  0.30348350  0.93329200  1
  O  397  1  0.02456300  0.10241150  0.65778550  1
  O  398  1  0.14068100  0.19680250  0.70828450  1
  O  417  1  0.59934000  0.98638500  0.14400600  1
  O  418  1  0.57756450  0.87018750  0.07841200  1
  O  437  1  0.85305050  0.94486350  0.35624100  1
  O  438  1  0.80255750  0.98851600  0.42188050  1
  O  457  1  0.66833550  0.51361450  0.60202200  1
  O  458  1  0.71884500  0.62981250  0.69651850  1
  O  477  1  0.92215200  0.55537800  0.89758700  1
  O  478  1  0.94387600  0.51148500  0.80319600  1
