# generated using pymatgen
data_H3(C2N)2
_symmetry_space_group_name_H-M   'P 1'
_cell_length_a   34.84730000
_cell_length_b   34.84730000
_cell_length_c   42.92490000
_cell_angle_alpha   90.00000000
_cell_angle_beta   90.00000000
_cell_angle_gamma   90.00000000
_symmetry_Int_Tables_number   1
_chemical_formula_structural   H3(C2N)2
_chemical_formula_sum   'H288 C384 N192'
_cell_volume   52125.17913624
_cell_formula_units_Z   96
loop_
 _symmetry_equiv_pos_site_id
 _symmetry_equiv_pos_as_xyz
  1  'x, y, z'
loop_
 _atom_site_type_symbol
 _atom_site_label
 _atom_site_symmetry_multiplicity
 _atom_site_fract_x
 _atom_site_fract_y
 _atom_site_fract_z
 _atom_site_occupancy
  H  7  1  0.11006500  0.29594000  0.16275600  1
  H  8  1  0.08878600  0.41299600  0.17479700  1
  H  15  1  0.05658500  0.19502600  0.05811100  1
  H  16  1  0.01453300  0.28959500  0.10695100  1
  H  19  1  0.04883400  0.33935500  0.07000700  1
  H  20  1  0.03559600  0.38340200  0.07791800  1
  H  21  1  0.16565500  0.25912800  0.09351100  1
  H  22  1  0.15060400  0.29781700  0.11176500  1
  H  33  1  0.94491700  0.75547900  0.16414200  1
  H  34  1  0.95365300  0.63609000  0.17073100  1
  H  41  1  0.99550400  0.85528300  0.05800100  1
  H  42  1  0.03655800  0.75932500  0.10578400  1
  H  45  1  0.99798600  0.71078700  0.06831300  1
  H  46  1  0.00514900  0.66473800  0.07425600  1
  H  47  1  0.88589700  0.79337900  0.09494900  1
  H  48  1  0.90057200  0.75455800  0.11322400  1
  H  59  1  0.29645100  0.94153100  0.88789000  1
  H  60  1  0.41382600  0.96175900  0.87668200  1
  H  67  1  0.19535300  0.99456300  0.99261200  1
  H  68  1  0.29007700  0.03654300  0.94388700  1
  H  71  1  0.33951300  0.00198600  0.98107800  1
  H  72  1  0.38371400  0.01493100  0.97346500  1
  H  73  1  0.25936100  0.88546900  0.95715700  1
  H  74  1  0.29809200  0.90050900  0.93895300  1
  H  85  1  0.75584100  0.10625800  0.88680900  1
  H  86  1  0.63644900  0.09745500  0.88022500  1
  H  93  1  0.85558800  0.05561200  0.99304500  1
  H  94  1  0.75965200  0.01461300  0.94520100  1
  H  97  1  0.71116000  0.05345800  0.98270400  1
  H  98  1  0.66510200  0.04628700  0.97678900  1
  H  99  1  0.79385800  0.16525600  0.95597800  1
  H  100  1  0.75505200  0.15061400  0.93766300  1
  H  111  1  0.60687700  0.25577200  0.66416600  1
  H  112  1  0.58481800  0.13888300  0.67676300  1
  H  119  1  0.55646800  0.35544200  0.55785800  1
  H  120  1  0.51416900  0.26076600  0.60645600  1
  H  123  1  0.55084100  0.21111600  0.56967800  1
  H  124  1  0.53754300  0.16701600  0.57734700  1
  H  125  1  0.66531400  0.29222100  0.59490600  1
  H  126  1  0.65010200  0.25373400  0.61338700  1
  H  137  1  0.44502200  0.79415100  0.66496100  1
  H  138  1  0.46049500  0.91245900  0.67548600  1
  H  145  1  0.49485900  0.69575000  0.55764300  1
  H  146  1  0.53618200  0.79130100  0.60576200  1
  H  149  1  0.49567100  0.84064500  0.56892100  1
  H  150  1  0.50456700  0.88625000  0.57563300  1
  H  151  1  0.38549400  0.75709800  0.59575600  1
  H  152  1  0.40033500  0.79569800  0.61427700  1
  H  163  1  0.79518400  0.60691100  0.38697800  1
  H  164  1  0.91201400  0.58460800  0.37427000  1
  H  171  1  0.69542000  0.55632500  0.49316300  1
  H  172  1  0.79007900  0.51404000  0.44452500  1
  H  175  1  0.83981300  0.55046500  0.48132900  1
  H  176  1  0.88388800  0.53712100  0.47360100  1
  H  177  1  0.75873900  0.66516800  0.45624100  1
  H  178  1  0.79727600  0.64993900  0.43782900  1
  H  189  1  0.25663900  0.44487300  0.38577600  1
  H  190  1  0.13835900  0.46054400  0.37527800  1
  H  197  1  0.35506100  0.49468100  0.49313800  1
  H  198  1  0.25945700  0.53598200  0.44507000  1
  H  201  1  0.21019800  0.49508300  0.48194400  1
  H  202  1  0.16457500  0.50399900  0.47528800  1
  H  203  1  0.29386200  0.38530700  0.45489000  1
  H  204  1  0.25524600  0.40012300  0.43637800  1
  H  215  1  0.04572100  0.51292100  0.06684600  1
  H  217  1  0.99837600  0.56133800  0.18942700  1
  H  218  1  0.00754500  0.51509900  0.19505800  1
  H  220  1  0.02308400  0.60996700  0.15634600  1
  H  222  1  0.06257900  0.44500500  0.08435600  1
  H  229  1  0.51360700  0.00566800  0.98446800  1
  H  231  1  0.56161100  0.05203000  0.86152000  1
  H  232  1  0.51537500  0.04272800  0.85602900  1
  H  234  1  0.61038600  0.02803700  0.89463900  1
  H  236  1  0.44550100  0.98902400  0.96730700  1
  H  243  1  0.54581600  0.03700700  0.56802200  1
  H  245  1  0.50082500  0.98924800  0.69134600  1
  H  246  1  0.50936500  0.03567900  0.69658800  1
  H  248  1  0.52578900  0.94056700  0.65831200  1
  H  250  1  0.56177400  0.10531600  0.58475100  1
  H  257  1  0.01385500  0.54565800  0.48291800  1
  H  259  1  0.06162000  0.50064500  0.35959800  1
  H  260  1  0.01516700  0.50907800  0.35437400  1
  H  262  1  0.11030600  0.52572300  0.39264800  1
  H  264  1  0.94563200  0.56189200  0.46608300  1
  H  271  1  0.21852200  0.35557400  0.28266300  1
  H  273  1  0.07670000  0.43369000  0.25372400  1
  H  274  1  0.09169400  0.45594100  0.28551900  1
  H  276  1  0.08454400  0.37944400  0.22731500  1
  H  278  1  0.22976600  0.39483100  0.33277900  1
  H  285  1  0.82487600  0.67851200  0.27480100  1
  H  287  1  0.98623500  0.64182600  0.26760900  1
  H  288  1  0.97285900  0.62102400  0.30052900  1
  H  290  1  0.95940100  0.65683500  0.22211100  1
  H  292  1  0.81879300  0.65068500  0.33127800  1
  H  299  1  0.36069400  0.83010800  0.77156600  1
  H  301  1  0.42840900  0.97969200  0.79147500  1
  H  302  1  0.44959600  0.96433600  0.75936800  1
  H  304  1  0.38234000  0.96644800  0.82454400  1
  H  306  1  0.39661600  0.82004400  0.71925100  1
  H  313  1  0.67910900  0.22603000  0.77592400  1
  H  315  1  0.64137600  0.06491900  0.78357000  1
  H  316  1  0.62047000  0.07838100  0.75072500  1
  H  318  1  0.65730000  0.09159500  0.82884700  1
  H  320  1  0.65234600  0.23110000  0.71888100  1
  H  327  1  0.18908100  0.08212800  0.06294300  1
  H  329  1  0.16307400  0.21277500  0.98388000  1
  H  330  1  0.18905500  0.18476700  0.96073800  1
  H  332  1  0.11634600  0.20174900  0.02366900  1
  H  334  1  0.23136000  0.04843900  0.02584700  1
  H  341  1  0.86280800  0.96920600  0.06342400  1
  H  343  1  0.88801200  0.83817200  0.98459600  1
  H  344  1  0.86146200  0.86590400  0.96166300  1
  H  346  1  0.93507700  0.84924300  0.02395500  1
  H  348  1  0.81970500  0.00250000  0.02672400  1
  H  355  1  0.08198800  0.86268400  0.98772000  1
  H  357  1  0.21339600  0.88703600  0.06630900  1
  H  358  1  0.18562900  0.86055200  0.08927100  1
  H  360  1  0.20200800  0.93450300  0.02700100  1
  H  362  1  0.04869200  0.81947000  0.02432500  1
  H  369  1  0.97009600  0.18711900  0.98829700  1
  H  371  1  0.83779900  0.16379500  0.06612800  1
  H  372  1  0.86545100  0.19032200  0.08914400  1
  H  374  1  0.84916500  0.11615800  0.02713100  1
  H  376  1  0.00291300  0.23080300  0.02489900  1
  H  383  1  0.68886300  0.46856500  0.56357200  1
  H  385  1  0.66331400  0.33809200  0.48420300  1
  H  386  1  0.68929100  0.36623200  0.46116800  1
  H  388  1  0.61659000  0.34876800  0.52392400  1
  H  390  1  0.73096700  0.50257300  0.52653100  1
  H  397  1  0.36247900  0.58139700  0.56357000  1
  H  399  1  0.38742500  0.71234800  0.48460200  1
  H  400  1  0.36104100  0.68446700  0.46166400  1
  H  402  1  0.43441800  0.70149800  0.52402200  1
  H  404  1  0.31971500  0.54777300  0.52682700  1
  H  411  1  0.58167500  0.68795300  0.48749500  1
  H  413  1  0.71302300  0.66420100  0.56627200  1
  H  414  1  0.68511200  0.69062200  0.58916600  1
  H  416  1  0.70188600  0.61664800  0.52705500  1
  H  418  1  0.54808900  0.73102400  0.52403600  1
  H  425  1  0.46985900  0.36348300  0.48777900  1
  H  427  1  0.33766500  0.38643800  0.56580900  1
  H  428  1  0.36546300  0.36001700  0.58878800  1
  H  430  1  0.34877300  0.43403100  0.52679200  1
  H  432  1  0.50305500  0.32016300  0.52442300  1
  H  439  1  0.54051400  0.66899600  0.16275600  1
  H  440  1  0.51923500  0.78605200  0.17479700  1
  H  447  1  0.48703400  0.56808200  0.05811100  1
  H  448  1  0.44498200  0.66265100  0.10695100  1
  H  451  1  0.47928300  0.71241100  0.07000700  1
  H  452  1  0.46604500  0.75645800  0.07791800  1
  H  453  1  0.59610400  0.63218400  0.09351100  1
  H  454  1  0.58105300  0.67087300  0.11176500  1
  H  465  1  0.37536600  0.12853500  0.16414200  1
  H  466  1  0.38410200  0.00914616  0.17073100  1
  H  473  1  0.42595300  0.22833900  0.05800100  1
  H  474  1  0.46700700  0.13238100  0.10578400  1
  H  477  1  0.42843500  0.08384320  0.06831300  1
  H  478  1  0.43559800  0.03779420  0.07425600  1
  H  479  1  0.31634600  0.16643500  0.09494900  1
  H  480  1  0.33102100  0.12761400  0.11322400  1
  H  491  1  0.72690000  0.31458700  0.88789000  1
  H  492  1  0.84427500  0.33481500  0.87668200  1
  H  499  1  0.62580200  0.36761900  0.99261200  1
  H  500  1  0.72052600  0.40959900  0.94388700  1
  H  503  1  0.76996200  0.37504200  0.98107800  1
  H  504  1  0.81416300  0.38798700  0.97346500  1
  H  505  1  0.68981000  0.25852500  0.95715700  1
  H  506  1  0.72854100  0.27356500  0.93895300  1
  H  517  1  0.18629000  0.47931400  0.88680900  1
  H  518  1  0.06689840  0.47051100  0.88022500  1
  H  525  1  0.28603700  0.42866800  0.99304500  1
  H  526  1  0.19010100  0.38766900  0.94520100  1
  H  529  1  0.14160900  0.42651400  0.98270400  1
  H  530  1  0.09555140  0.41934300  0.97678900  1
  H  531  1  0.22430700  0.53831200  0.95597800  1
  H  532  1  0.18550100  0.52367000  0.93766300  1
  H  543  1  0.03732640  0.62882800  0.66416600  1
  H  544  1  0.01526740  0.51193900  0.67676300  1
  H  551  1  0.98691700  0.72849800  0.55785800  1
  H  552  1  0.94461800  0.63382200  0.60645600  1
  H  555  1  0.98129000  0.58417200  0.56967800  1
  H  556  1  0.96799200  0.54007200  0.57734700  1
  H  557  1  0.09576340  0.66527700  0.59490600  1
  H  558  1  0.08055140  0.62679000  0.61338700  1
  H  569  1  0.87547100  0.16720700  0.66496100  1
  H  570  1  0.89094400  0.28551500  0.67548600  1
  H  577  1  0.92530800  0.06880620  0.55764300  1
  H  578  1  0.96663100  0.16435700  0.60576200  1
  H  581  1  0.92612000  0.21370100  0.56892100  1
  H  582  1  0.93501600  0.25930600  0.57563300  1
  H  583  1  0.81594300  0.13015400  0.59575600  1
  H  584  1  0.83078400  0.16875400  0.61427700  1
  H  595  1  0.22563300  0.97996700  0.38697800  1
  H  596  1  0.34246300  0.95766400  0.37427000  1
  H  603  1  0.12586900  0.92938100  0.49316300  1
  H  604  1  0.22052800  0.88709600  0.44452500  1
  H  607  1  0.27026200  0.92352100  0.48132900  1
  H  608  1  0.31433700  0.91017700  0.47360100  1
  H  609  1  0.18918800  0.03822420  0.45624100  1
  H  610  1  0.22772500  0.02299520  0.43782900  1
  H  621  1  0.68708800  0.81792900  0.38577600  1
  H  622  1  0.56880800  0.83360000  0.37527800  1
  H  629  1  0.78551000  0.86773700  0.49313800  1
  H  630  1  0.68990600  0.90903800  0.44507000  1
  H  633  1  0.64064700  0.86813900  0.48194400  1
  H  634  1  0.59502400  0.87705500  0.47528800  1
  H  635  1  0.72431100  0.75836300  0.45489000  1
  H  636  1  0.68569500  0.77317900  0.43637800  1
  H  647  1  0.47617000  0.88597700  0.06684600  1
  H  649  1  0.42882500  0.93439400  0.18942700  1
  H  650  1  0.43799400  0.88815500  0.19505800  1
  H  652  1  0.45353300  0.98302300  0.15634600  1
  H  654  1  0.49302800  0.81806100  0.08435600  1
  H  661  1  0.94405600  0.37872400  0.98446800  1
  H  663  1  0.99206000  0.42508600  0.86152000  1
  H  664  1  0.94582400  0.41578400  0.85602900  1
  H  666  1  0.04083540  0.40109300  0.89463900  1
  H  668  1  0.87595000  0.36208000  0.96730700  1
  H  675  1  0.97626500  0.41006300  0.56802200  1
  H  677  1  0.93127400  0.36230400  0.69134600  1
  H  678  1  0.93981400  0.40873500  0.69658800  1
  H  680  1  0.95623800  0.31362300  0.65831200  1
  H  682  1  0.99222300  0.47837200  0.58475100  1
  H  689  1  0.44430400  0.91871400  0.48291800  1
  H  691  1  0.49206900  0.87370100  0.35959800  1
  H  692  1  0.44561600  0.88213400  0.35437400  1
  H  694  1  0.54075500  0.89877900  0.39264800  1
  H  696  1  0.37608100  0.93494800  0.46608300  1
  H  703  1  0.64897100  0.72863000  0.28266300  1
  H  705  1  0.50714900  0.80674600  0.25372400  1
  H  706  1  0.52214300  0.82899700  0.28551900  1
  H  708  1  0.51499300  0.75250000  0.22731500  1
  H  710  1  0.66021500  0.76788700  0.33277900  1
  H  717  1  0.25532500  0.05156820  0.27480100  1
  H  719  1  0.41668400  0.01488220  0.26760900  1
  H  720  1  0.40330800  0.99408000  0.30052900  1
  H  722  1  0.38985000  0.02989120  0.22211100  1
  H  724  1  0.24924200  0.02374120  0.33127800  1
  H  731  1  0.79114300  0.20316400  0.77156600  1
  H  733  1  0.85885800  0.35274800  0.79147500  1
  H  734  1  0.88004500  0.33739200  0.75936800  1
  H  736  1  0.81278900  0.33950400  0.82454400  1
  H  738  1  0.82706500  0.19310000  0.71925100  1
  H  745  1  0.10955800  0.59908600  0.77592400  1
  H  747  1  0.07182540  0.43797500  0.78357000  1
  H  748  1  0.05091940  0.45143700  0.75072500  1
  H  750  1  0.08774940  0.46465100  0.82884700  1
  H  752  1  0.08279540  0.60415600  0.71888100  1
  H  759  1  0.61953000  0.45518400  0.06294300  1
  H  761  1  0.59352300  0.58583100  0.98388000  1
  H  762  1  0.61950400  0.55782300  0.96073800  1
  H  764  1  0.54679500  0.57480500  0.02366900  1
  H  766  1  0.66180900  0.42149500  0.02584700  1
  H  773  1  0.29325700  0.34226200  0.06342400  1
  H  775  1  0.31846100  0.21122800  0.98459600  1
  H  776  1  0.29191100  0.23896000  0.96166300  1
  H  778  1  0.36552600  0.22229900  0.02395500  1
  H  780  1  0.25015400  0.37555600  0.02672400  1
  H  787  1  0.51243700  0.23574000  0.98772000  1
  H  789  1  0.64384500  0.26009200  0.06630900  1
  H  790  1  0.61607800  0.23360800  0.08927100  1
  H  792  1  0.63245700  0.30755900  0.02700100  1
  H  794  1  0.47914100  0.19252600  0.02432500  1
  H  801  1  0.40054500  0.56017500  0.98829700  1
  H  803  1  0.26824800  0.53685100  0.06612800  1
  H  804  1  0.29590000  0.56337800  0.08914400  1
  H  806  1  0.27961400  0.48921400  0.02713100  1
  H  808  1  0.43336200  0.60385900  0.02489900  1
  H  815  1  0.11931200  0.84162100  0.56357200  1
  H  817  1  0.09376340  0.71114800  0.48420300  1
  H  818  1  0.11974000  0.73928800  0.46116800  1
  H  820  1  0.04703940  0.72182400  0.52392400  1
  H  822  1  0.16141600  0.87562900  0.52653100  1
  H  829  1  0.79292800  0.95445300  0.56357000  1
  H  831  1  0.81787400  0.08540420  0.48460200  1
  H  832  1  0.79149000  0.05752320  0.46166400  1
  H  834  1  0.86486700  0.07455420  0.52402200  1
  H  836  1  0.75016400  0.92082900  0.52682700  1
  H  843  1  0.01212440  0.06100920  0.48749500  1
  H  845  1  0.14347200  0.03725720  0.56627200  1
  H  846  1  0.11556100  0.06367820  0.58916600  1
  H  848  1  0.13233500  0.98970400  0.52705500  1
  H  850  1  0.97853800  0.10408000  0.52403600  1
  H  857  1  0.90030800  0.73653900  0.48777900  1
  H  859  1  0.76811400  0.75949400  0.56580900  1
  H  860  1  0.79591200  0.73307300  0.58878800  1
  H  862  1  0.77922200  0.80708700  0.52679200  1
  H  864  1  0.93350400  0.69321900  0.52442300  1
  C  1  1  0.07979000  0.32137900  0.12493400  1
  C  2  1  0.09856300  0.32098900  0.15456400  1
  C  3  1  0.10191700  0.35423400  0.17339000  1
  C  4  1  0.08564800  0.38840000  0.16187300  1
  C  5  1  0.06705100  0.39064200  0.13283800  1
  C  6  1  0.06443100  0.35718100  0.11374000  1
  C  9  1  0.07542700  0.28569700  0.10758300  1
  C  10  1  0.10708200  0.26300600  0.09648100  1
  C  11  1  0.09993900  0.22926800  0.07834900  1
  C  12  1  0.06172200  0.21923400  0.07097900  1
  C  13  1  0.03024900  0.24180100  0.08020900  1
  C  14  1  0.03752400  0.27359900  0.09973900  1
  C  27  1  0.97085900  0.72921600  0.12466700  1
  C  28  1  0.95370400  0.72986500  0.15493500  1
  C  29  1  0.94758600  0.69611700  0.17273900  1
  C  30  1  0.95940100  0.66118500  0.15923600  1
  C  31  1  0.97879400  0.65902400  0.13047400  1
  C  32  1  0.98302700  0.69290100  0.11218400  1
  C  35  1  0.97585500  0.76487200  0.10750100  1
  C  36  1  0.94444100  0.78822200  0.09688900  1
  C  37  1  0.95188800  0.82174300  0.07859000  1
  C  38  1  0.99016600  0.83110900  0.07085900  1
  C  39  1  0.02139100  0.80791700  0.07968000  1
  C  40  1  0.01383000  0.77598000  0.09902100  1
  C  53  1  0.32185000  0.97124700  0.92600700  1
  C  54  1  0.32154600  0.95271100  0.89628100  1
  C  55  1  0.35492600  0.94915600  0.87763200  1
  C  56  1  0.38913800  0.96501100  0.88946400  1
  C  57  1  0.39125300  0.98354600  0.91852900  1
  C  58  1  0.35764900  0.98633500  0.93744100  1
  C  61  1  0.28608100  0.97566600  0.94322300  1
  C  62  1  0.26329500  0.94403100  0.95422900  1
  C  63  1  0.22953500  0.95119600  0.97232800  1
  C  64  1  0.21956600  0.98941400  0.97975500  1
  C  65  1  0.24218000  0.02087200  0.97054600  1
  C  66  1  0.27402700  0.01357400  0.95107700  1
  C  79  1  0.72959200  0.08033000  0.92629900  1
  C  80  1  0.73022600  0.09748700  0.89602700  1
  C  81  1  0.69647300  0.10358400  0.87822200  1
  C  82  1  0.66154700  0.09175000  0.89172900  1
  C  83  1  0.65939700  0.07242100  0.92051600  1
  C  84  1  0.69327900  0.06818200  0.93879900  1
  C  87  1  0.76525300  0.07531200  0.94345900  1
  C  88  1  0.78860700  0.10671100  0.95409100  1
  C  89  1  0.82209600  0.09923800  0.97241900  1
  C  90  1  0.83142500  0.06096000  0.98017600  1
  C  91  1  0.80822100  0.02975100  0.97134900  1
  C  92  1  0.77630500  0.03733300  0.95199000  1
  C  105  1  0.57929300  0.22956800  0.62528200  1
  C  106  1  0.59652900  0.23046700  0.65550000  1
  C  107  1  0.59942400  0.19719400  0.67431400  1
  C  108  1  0.58328500  0.16302500  0.66303700  1
  C  109  1  0.56652100  0.16027100  0.63328900  1
  C  110  1  0.56479600  0.19351800  0.61383200  1
  C  113  1  0.57500600  0.26512500  0.60778700  1
  C  114  1  0.60671300  0.28793600  0.59697900  1
  C  115  1  0.59969100  0.32145700  0.57855700  1
  C  116  1  0.56153000  0.33129400  0.57081700  1
  C  117  1  0.53001800  0.30864700  0.57984500  1
  C  118  1  0.53717000  0.27689400  0.59945400  1
  C  131  1  0.47078600  0.82097900  0.62553400  1
  C  132  1  0.45416500  0.81975100  0.65598000  1
  C  133  1  0.44965300  0.85324000  0.67435200  1
  C  134  1  0.46370900  0.88798000  0.66243800  1
  C  135  1  0.48117700  0.89077000  0.63287900  1
  C  136  1  0.48329700  0.85748200  0.61358500  1
  C  139  1  0.47549800  0.78565400  0.60783800  1
  C  140  1  0.44403800  0.76234600  0.59726400  1
  C  141  1  0.45134700  0.72906700  0.57862200  1
  C  142  1  0.48958500  0.71983500  0.57062400  1
  C  143  1  0.52086400  0.74296800  0.57942300  1
  C  144  1  0.51340000  0.77473500  0.59897100  1
  C  157  1  0.82135000  0.57912700  0.42578800  1
  C  158  1  0.82046300  0.59644500  0.39560500  1
  C  159  1  0.85372800  0.59930900  0.37678300  1
  C  160  1  0.88788000  0.58307900  0.38800500  1
  C  161  1  0.89061200  0.56619600  0.41770600  1
  C  162  1  0.85737800  0.56450000  0.43718200  1
  C  165  1  0.78579400  0.57487700  0.44329300  1
  C  166  1  0.76294600  0.60658100  0.45406900  1
  C  167  1  0.72938500  0.59956200  0.47245700  1
  C  168  1  0.71957400  0.56139500  0.48021500  1
  C  169  1  0.74221300  0.52988600  0.47115300  1
  C  170  1  0.77399200  0.53704000  0.45158100  1
  C  183  1  0.22984100  0.47056200  0.42524900  1
  C  184  1  0.23103900  0.45396100  0.39479400  1
  C  185  1  0.19754500  0.44954700  0.37640600  1
  C  186  1  0.16283500  0.46364600  0.38834300  1
  C  187  1  0.16005300  0.48095000  0.41796500  1
  C  188  1  0.19335100  0.48303100  0.43724700  1
  C  191  1  0.26518000  0.47530800  0.44292000  1
  C  192  1  0.28850200  0.44385100  0.45347300  1
  C  193  1  0.32177000  0.45118900  0.47210800  1
  C  194  1  0.33097600  0.48941300  0.48015200  1
  C  195  1  0.30781500  0.52068300  0.47139300  1
  C  196  1  0.27604000  0.51321100  0.45185400  1
  C  209  1  0.01805100  0.56301700  0.12826200  1
  C  211  1  0.03773800  0.51757800  0.08942300  1
  C  212  1  0.03826600  0.48766200  0.11162200  1
  C  214  1  0.01752000  0.53302000  0.15075800  1
  C  219  1  0.01194700  0.60102300  0.13624200  1
  C  221  1  0.05134100  0.45081600  0.10506900  1
  C  223  1  0.56348400  0.03294100  0.92281600  1
  C  225  1  0.51819300  0.01345400  0.96183500  1
  C  226  1  0.48821900  0.01268500  0.93969400  1
  C  228  1  0.53342500  0.03323100  0.90037200  1
  C  233  1  0.60146400  0.03911100  0.91476700  1
  C  235  1  0.45137500  0.99973900  0.94642900  1
  C  237  1  0.51961300  0.98723300  0.63002300  1
  C  239  1  0.53814000  0.03251600  0.59069200  1
  C  240  1  0.53857900  0.06268700  0.61266700  1
  C  242  1  0.51891900  0.01748000  0.65229500  1
  C  247  1  0.51421200  0.94919900  0.63829800  1
  C  249  1  0.55110500  0.09961000  0.60567100  1
  C  251  1  0.06362800  0.51945500  0.42091600  1
  C  253  1  0.01834300  0.53793600  0.46025700  1
  C  254  1  0.98815200  0.53828900  0.43829800  1
  C  256  1  0.03337200  0.51868000  0.39865900  1
  C  261  1  0.10164500  0.51405200  0.41262000  1
  C  263  1  0.95120500  0.55076600  0.44529800  1
  C  265  1  0.13543700  0.38139000  0.25127100  1
  C  267  1  0.19381000  0.37106500  0.28042200  1
  C  268  1  0.18479800  0.40081200  0.30161700  1
  C  270  1  0.12636200  0.41199500  0.27218000  1
  C  275  1  0.11179100  0.37125700  0.22610900  1
  C  277  1  0.20817900  0.41182000  0.32671900  1
  C  279  1  0.91520800  0.66879000  0.25162500  1
  C  281  1  0.85292200  0.67023900  0.27631000  1
  C  282  1  0.86624000  0.64860200  0.30199200  1
  C  284  1  0.92916000  0.64760300  0.27778000  1
  C  289  1  0.93685900  0.67397500  0.22438200  1
  C  291  1  0.84289500  0.63662100  0.32677000  1
  C  293  1  0.38212200  0.91639300  0.79933700  1
  C  295  1  0.37420400  0.85609000  0.77226000  1
  C  296  1  0.40158400  0.86631400  0.74940600  1
  C  298  1  0.41014700  0.92688400  0.77653500  1
  C  303  1  0.37286100  0.93964300  0.82501200  1
  C  305  1  0.41279800  0.84247600  0.72466700  1
  C  307  1  0.66900800  0.13582100  0.79929500  1
  C  309  1  0.67073000  0.19801200  0.77445900  1
  C  310  1  0.64880000  0.18478700  0.74890300  1
  C  312  1  0.64756300  0.12193100  0.77325900  1
  C  317  1  0.67434500  0.11420400  0.82655200  1
  C  319  1  0.63668100  0.20829300  0.72422700  1
  C  321  1  0.16032900  0.16454500  0.03290000  1
  C  323  1  0.18677700  0.10315500  0.04646600  1
  C  324  1  0.20396400  0.09925500  0.01678200  1
  C  326  1  0.17796500  0.16129600  0.00306300  1
  C  331  1  0.13378700  0.19288900  0.04055100  1
  C  333  1  0.22564100  0.06706900  0.00888000  1
  C  335  1  0.89135500  0.88670100  0.03341900  1
  C  337  1  0.86491100  0.94808600  0.04700900  1
  C  338  1  0.84712500  0.95170100  0.01753200  1
  C  340  1  0.87314400  0.88966800  0.00378700  1
  C  345  1  0.91796000  0.85835700  0.04096500  1
  C  347  1  0.82508000  0.98371800  0.00980000  1
  C  349  1  0.16479200  0.89058000  0.01757600  1
  C  351  1  0.10320500  0.86455500  0.00407200  1
  C  352  1  0.09958400  0.84670300  0.03352300  1
  C  354  1  0.16181400  0.87232300  0.04718200  1
  C  359  1  0.19313500  0.91718200  0.01004200  1
  C  361  1  0.06743900  0.82486200  0.04127600  1
  C  363  1  0.88693000  0.15963700  0.01774900  1
  C  365  1  0.94871700  0.18538900  0.00452100  1
  C  366  1  0.95211500  0.20336400  0.03393700  1
  C  368  1  0.88965900  0.17808900  0.04728900  1
  C  373  1  0.85852600  0.13315200  0.01012600  1
  C  375  1  0.98411400  0.22533500  0.04179000  1
  C  377  1  0.66034100  0.38617600  0.53333100  1
  C  379  1  0.68664500  0.44757600  0.54705500  1
  C  380  1  0.70389700  0.45158500  0.51740800  1
  C  382  1  0.67805000  0.38953700  0.50352800  1
  C  387  1  0.63383400  0.35776400  0.54089100  1
  C  389  1  0.72548000  0.48385100  0.50957800  1
  C  391  1  0.39078800  0.66396300  0.53352000  1
  C  393  1  0.36453300  0.60249800  0.54713400  1
  C  394  1  0.34681600  0.59875600  0.51763600  1
  C  396  1  0.37266600  0.66085800  0.50385900  1
  C  401  1  0.41732700  0.69239000  0.54105200  1
  C  403  1  0.32495500  0.56660100  0.50990900  1
  C  405  1  0.66452800  0.66039600  0.51747300  1
  C  407  1  0.60287300  0.68619400  0.50387300  1
  C  408  1  0.59913100  0.70408900  0.53329800  1
  C  410  1  0.66142900  0.67869900  0.54705500  1
  C  415  1  0.69295200  0.63382600  0.51002300  1
  C  417  1  0.56686500  0.72579000  0.54099600  1
  C  419  1  0.38665600  0.39069300  0.51732900  1
  C  421  1  0.44850300  0.36513900  0.50402600  1
  C  422  1  0.45201200  0.34717500  0.53343800  1
  C  424  1  0.38951100  0.37227000  0.54687600  1
  C  429  1  0.35817400  0.41711700  0.50975000  1
  C  431  1  0.48413000  0.32536500  0.54127300  1
  C  433  1  0.51023900  0.69443500  0.12493400  1
  C  434  1  0.52901200  0.69404500  0.15456400  1
  C  435  1  0.53236600  0.72729000  0.17339000  1
  C  436  1  0.51609700  0.76145600  0.16187300  1
  C  437  1  0.49750000  0.76369800  0.13283800  1
  C  438  1  0.49488000  0.73023700  0.11374000  1
  C  441  1  0.50587600  0.65875300  0.10758300  1
  C  442  1  0.53753100  0.63606200  0.09648100  1
  C  443  1  0.53038800  0.60232400  0.07834900  1
  C  444  1  0.49217100  0.59229000  0.07097900  1
  C  445  1  0.46069800  0.61485700  0.08020900  1
  C  446  1  0.46797300  0.64665500  0.09973900  1
  C  459  1  0.40130800  0.10227200  0.12466700  1
  C  460  1  0.38415300  0.10292100  0.15493500  1
  C  461  1  0.37803500  0.06917320  0.17273900  1
  C  462  1  0.38985000  0.03424120  0.15923600  1
  C  463  1  0.40924300  0.03208020  0.13047400  1
  C  464  1  0.41347600  0.06595720  0.11218400  1
  C  467  1  0.40630400  0.13792800  0.10750100  1
  C  468  1  0.37489000  0.16127800  0.09688900  1
  C  469  1  0.38233700  0.19479900  0.07859000  1
  C  470  1  0.42061500  0.20416500  0.07085900  1
  C  471  1  0.45184000  0.18097300  0.07968000  1
  C  472  1  0.44427900  0.14903600  0.09902100  1
  C  485  1  0.75229900  0.34430300  0.92600700  1
  C  486  1  0.75199500  0.32576700  0.89628100  1
  C  487  1  0.78537500  0.32221200  0.87763200  1
  C  488  1  0.81958700  0.33806700  0.88946400  1
  C  489  1  0.82170200  0.35660200  0.91852900  1
  C  490  1  0.78809800  0.35939100  0.93744100  1
  C  493  1  0.71653000  0.34872200  0.94322300  1
  C  494  1  0.69374400  0.31708700  0.95422900  1
  C  495  1  0.65998400  0.32425200  0.97232800  1
  C  496  1  0.65001500  0.36247000  0.97975500  1
  C  497  1  0.67262900  0.39392800  0.97054600  1
  C  498  1  0.70447600  0.38663000  0.95107700  1
  C  511  1  0.16004100  0.45338600  0.92629900  1
  C  512  1  0.16067500  0.47054300  0.89602700  1
  C  513  1  0.12692200  0.47664000  0.87822200  1
  C  514  1  0.09199640  0.46480600  0.89172900  1
  C  515  1  0.08984640  0.44547700  0.92051600  1
  C  516  1  0.12372800  0.44123800  0.93879900  1
  C  519  1  0.19570200  0.44836800  0.94345900  1
  C  520  1  0.21905600  0.47976700  0.95409100  1
  C  521  1  0.25254500  0.47229400  0.97241900  1
  C  522  1  0.26187400  0.43401600  0.98017600  1
  C  523  1  0.23867000  0.40280700  0.97134900  1
  C  524  1  0.20675400  0.41038900  0.95199000  1
  C  537  1  0.00974242  0.60262400  0.62528200  1
  C  538  1  0.02697840  0.60352300  0.65550000  1
  C  539  1  0.02987340  0.57025000  0.67431400  1
  C  540  1  0.01373440  0.53608100  0.66303700  1
  C  541  1  0.99697000  0.53332700  0.63328900  1
  C  542  1  0.99524500  0.56657400  0.61383200  1
  C  545  1  0.00545542  0.63818100  0.60778700  1
  C  546  1  0.03716240  0.66099200  0.59697900  1
  C  547  1  0.03014040  0.69451300  0.57855700  1
  C  548  1  0.99197900  0.70435000  0.57081700  1
  C  549  1  0.96046700  0.68170300  0.57984500  1
  C  550  1  0.96761900  0.64995000  0.59945400  1
  C  563  1  0.90123500  0.19403500  0.62553400  1
  C  564  1  0.88461400  0.19280700  0.65598000  1
  C  565  1  0.88010200  0.22629600  0.67435200  1
  C  566  1  0.89415800  0.26103600  0.66243800  1
  C  567  1  0.91162600  0.26382600  0.63287900  1
  C  568  1  0.91374600  0.23053800  0.61358500  1
  C  571  1  0.90594700  0.15871000  0.60783800  1
  C  572  1  0.87448700  0.13540200  0.59726400  1
  C  573  1  0.88179600  0.10212300  0.57862200  1
  C  574  1  0.92003400  0.09289120  0.57062400  1
  C  575  1  0.95131300  0.11602400  0.57942300  1
  C  576  1  0.94384900  0.14779100  0.59897100  1
  C  589  1  0.25179900  0.95218300  0.42578800  1
  C  590  1  0.25091200  0.96950100  0.39560500  1
  C  591  1  0.28417700  0.97236500  0.37678300  1
  C  592  1  0.31832900  0.95613500  0.38800500  1
  C  593  1  0.32106100  0.93925200  0.41770600  1
  C  594  1  0.28782700  0.93755600  0.43718200  1
  C  597  1  0.21624300  0.94793300  0.44329300  1
  C  598  1  0.19339500  0.97963700  0.45406900  1
  C  599  1  0.15983400  0.97261800  0.47245700  1
  C  600  1  0.15002300  0.93445100  0.48021500  1
  C  601  1  0.17266200  0.90294200  0.47115300  1
  C  602  1  0.20444100  0.91009600  0.45158100  1
  C  615  1  0.66029000  0.84361800  0.42524900  1
  C  616  1  0.66148800  0.82701700  0.39479400  1
  C  617  1  0.62799400  0.82260300  0.37640600  1
  C  618  1  0.59328400  0.83670200  0.38834300  1
  C  619  1  0.59050200  0.85400600  0.41796500  1
  C  620  1  0.62380000  0.85608700  0.43724700  1
  C  623  1  0.69562900  0.84836400  0.44292000  1
  C  624  1  0.71895100  0.81690700  0.45347300  1
  C  625  1  0.75221900  0.82424500  0.47210800  1
  C  626  1  0.76142500  0.86246900  0.48015200  1
  C  627  1  0.73826400  0.89373900  0.47139300  1
  C  628  1  0.70648900  0.88626700  0.45185400  1
  C  641  1  0.44850000  0.93607300  0.12826200  1
  C  643  1  0.46818700  0.89063400  0.08942300  1
  C  644  1  0.46871500  0.86071800  0.11162200  1
  C  646  1  0.44796900  0.90607600  0.15075800  1
  C  651  1  0.44239600  0.97407900  0.13624200  1
  C  653  1  0.48179000  0.82387200  0.10506900  1
  C  655  1  0.99393300  0.40599700  0.92281600  1
  C  657  1  0.94864200  0.38651000  0.96183500  1
  C  658  1  0.91866800  0.38574100  0.93969400  1
  C  660  1  0.96387400  0.40628700  0.90037200  1
  C  665  1  0.03191340  0.41216700  0.91476700  1
  C  667  1  0.88182400  0.37279500  0.94642900  1
  C  669  1  0.95006200  0.36028900  0.63002300  1
  C  671  1  0.96858900  0.40557200  0.59069200  1
  C  672  1  0.96902800  0.43574300  0.61266700  1
  C  674  1  0.94936800  0.39053600  0.65229500  1
  C  679  1  0.94466100  0.32225500  0.63829800  1
  C  681  1  0.98155400  0.47266600  0.60567100  1
  C  683  1  0.49407700  0.89251100  0.42091600  1
  C  685  1  0.44879200  0.91099200  0.46025700  1
  C  686  1  0.41860100  0.91134500  0.43829800  1
  C  688  1  0.46382100  0.89173600  0.39865900  1
  C  693  1  0.53209400  0.88710800  0.41262000  1
  C  695  1  0.38165400  0.92382200  0.44529800  1
  C  697  1  0.56588600  0.75444600  0.25127100  1
  C  699  1  0.62425900  0.74412100  0.28042200  1
  C  700  1  0.61524700  0.77386800  0.30161700  1
  C  702  1  0.55681100  0.78505100  0.27218000  1
  C  707  1  0.54224000  0.74431300  0.22610900  1
  C  709  1  0.63862800  0.78487600  0.32671900  1
  C  711  1  0.34565700  0.04184620  0.25162500  1
  C  713  1  0.28337100  0.04329520  0.27631000  1
  C  714  1  0.29668900  0.02165820  0.30199200  1
  C  716  1  0.35960900  0.02065920  0.27778000  1
  C  721  1  0.36730800  0.04703120  0.22438200  1
  C  723  1  0.27334400  0.00967716  0.32677000  1
  C  725  1  0.81257100  0.28944900  0.79933700  1
  C  727  1  0.80465300  0.22914600  0.77226000  1
  C  728  1  0.83203300  0.23937000  0.74940600  1
  C  730  1  0.84059600  0.29994000  0.77653500  1
  C  735  1  0.80331000  0.31269900  0.82501200  1
  C  737  1  0.84324700  0.21553200  0.72466700  1
  C  739  1  0.09945740  0.50887700  0.79929500  1
  C  741  1  0.10117900  0.57106800  0.77445900  1
  C  742  1  0.07924940  0.55784300  0.74890300  1
  C  744  1  0.07801240  0.49498700  0.77325900  1
  C  749  1  0.10479400  0.48726000  0.82655200  1
  C  751  1  0.06713040  0.58134900  0.72422700  1
  C  753  1  0.59077800  0.53760100  0.03290000  1
  C  755  1  0.61722600  0.47621100  0.04646600  1
  C  756  1  0.63441300  0.47231100  0.01678200  1
  C  758  1  0.60841400  0.53435200  0.00306300  1
  C  763  1  0.56423600  0.56594500  0.04055100  1
  C  765  1  0.65609000  0.44012500  0.00888000  1
  C  767  1  0.32180400  0.25975700  0.03341900  1
  C  769  1  0.29536000  0.32114200  0.04700900  1
  C  770  1  0.27757400  0.32475700  0.01753200  1
  C  772  1  0.30359300  0.26272400  0.00378700  1
  C  777  1  0.34840900  0.23141300  0.04096500  1
  C  779  1  0.25552900  0.35677400  0.00980000  1
  C  781  1  0.59524100  0.26363600  0.01757600  1
  C  783  1  0.53365400  0.23761100  0.00407200  1
  C  784  1  0.53003300  0.21975900  0.03352300  1
  C  786  1  0.59226300  0.24537900  0.04718200  1
  C  791  1  0.62358400  0.29023800  0.01004200  1
  C  793  1  0.49788800  0.19791800  0.04127600  1
  C  795  1  0.31737900  0.53269300  0.01774900  1
  C  797  1  0.37916600  0.55844500  0.00452100  1
  C  798  1  0.38256400  0.57642000  0.03393700  1
  C  800  1  0.32010800  0.55114500  0.04728900  1
  C  805  1  0.28897500  0.50620800  0.01012600  1
  C  807  1  0.41456300  0.59839100  0.04179000  1
  C  809  1  0.09079040  0.75923200  0.53333100  1
  C  811  1  0.11709400  0.82063200  0.54705500  1
  C  812  1  0.13434600  0.82464100  0.51740800  1
  C  814  1  0.10849900  0.76259300  0.50352800  1
  C  819  1  0.06428340  0.73082000  0.54089100  1
  C  821  1  0.15592900  0.85690700  0.50957800  1
  C  823  1  0.82123700  0.03701920  0.53352000  1
  C  825  1  0.79498200  0.97555400  0.54713400  1
  C  826  1  0.77726500  0.97181200  0.51763600  1
  C  828  1  0.80311500  0.03391420  0.50385900  1
  C  833  1  0.84777600  0.06544620  0.54105200  1
  C  835  1  0.75540400  0.93965700  0.50990900  1
  C  837  1  0.09497740  0.03345220  0.51747300  1
  C  839  1  0.03332240  0.05925020  0.50387300  1
  C  840  1  0.02958040  0.07714520  0.53329800  1
  C  842  1  0.09187840  0.05175520  0.54705500  1
  C  847  1  0.12340100  0.00688216  0.51002300  1
  C  849  1  0.99731400  0.09884620  0.54099600  1
  C  851  1  0.81710500  0.76374900  0.51732900  1
  C  853  1  0.87895200  0.73819500  0.50402600  1
  C  854  1  0.88246100  0.72023100  0.53343800  1
  C  856  1  0.81996000  0.74532600  0.54687600  1
  C  861  1  0.78862300  0.79017300  0.50975000  1
  C  863  1  0.91457900  0.69842100  0.54127300  1
  N  17  1  0.04781400  0.36003100  0.08505100  1
  N  18  1  0.14415800  0.27379800  0.10165700  1
  N  23  1  0.99456800  0.23315400  0.07046300  1
  N  24  1  0.12785600  0.20534700  0.06851100  1
  N  25  1  0.05406500  0.42597600  0.12709100  1
  N  26  1  0.12302700  0.35673700  0.19983900  1
  N  43  1  0.99758400  0.68944600  0.08279100  1
  N  44  1  0.90727900  0.77827300  0.10276200  1
  N  49  1  0.05712900  0.81619300  0.06981900  1
  N  50  1  0.92413800  0.84596600  0.06890900  1
  N  51  1  0.98950900  0.62379600  0.12104900  1
  N  52  1  0.92888500  0.69550100  0.20054800  1
  N  69  1  0.36034400  0.00285000  0.96617700  1
  N  70  1  0.27400500  0.90694900  0.94895400  1
  N  75  1  0.23355900  0.05657400  0.98024600  1
  N  76  1  0.20557000  0.92327700  0.98209800  1
  N  77  1  0.42658100  0.99645400  0.92442600  1
  N  78  1  0.35716700  0.92852900  0.85088500  1
  N  95  1  0.68985000  0.05361200  0.96819500  1
  N  96  1  0.77870100  0.14388300  0.94821600  1
  N  101  1  0.81648600  0.99402300  0.98123400  1
  N  102  1  0.84633900  0.12693700  0.98213100  1
  N  103  1  0.62420100  0.06160600  0.92994200  1
  N  104  1  0.69581900  0.12226800  0.85039900  1
  N  121  1  0.54947800  0.19043300  0.58469300  1
  N  122  1  0.64373500  0.27746300  0.60279900  1
  N  127  1  0.49439400  0.31720700  0.56992300  1
  N  128  1  0.62764700  0.34542200  0.56885100  1
  N  129  1  0.55408900  0.12474800  0.62744400  1
  N  130  1  0.61530800  0.19361900  0.70251000  1
  N  147  1  0.49658700  0.86151100  0.58384700  1
  N  148  1  0.40693900  0.77214100  0.60353000  1
  N  153  1  0.55658600  0.73470000  0.56949900  1
  N  154  1  0.42356500  0.70483000  0.56897900  1
  N  155  1  0.49168000  0.92610700  0.62353300  1
  N  156  1  0.43401700  0.85668400  0.70264100  1
  N  173  1  0.86048000  0.54910700  0.46629300  1
  N  174  1  0.77342100  0.64359700  0.44823800  1
  N  179  1  0.73364100  0.49423400  0.48097200  1
  N  180  1  0.70537500  0.62753000  0.48210000  1
  N  181  1  0.92609000  0.55360400  0.42349300  1
  N  182  1  0.85736400  0.61547100  0.34871100  1
  N  199  1  0.18935800  0.49627100  0.46700600  1
  N  200  1  0.27875100  0.40674600  0.44719200  1
  N  205  1  0.31607600  0.55638500  0.48137800  1
  N  206  1  0.34601800  0.42345300  0.48176000  1
  N  207  1  0.12473500  0.49147000  0.42733700  1
  N  208  1  0.19406800  0.43414900  0.34802900  1
  N  210  1  0.02817700  0.55372800  0.09857000  1
  N  213  1  0.02794200  0.49730700  0.14116800  1
  N  216  1  0.00767400  0.53715200  0.18114900  1
  N  224  1  0.55429300  0.02302700  0.95257700  1
  N  227  1  0.49775800  0.02281700  0.91008200  1
  N  230  1  0.53743400  0.04290000  0.86993300  1
  N  238  1  0.52922900  0.99633600  0.60018300  1
  N  241  1  0.52873600  0.05323600  0.64236600  1
  N  244  1  0.50943400  0.01353400  0.68277300  1
  N  252  1  0.05453300  0.52908600  0.45075400  1
  N  255  1  0.99760700  0.52844000  0.40859900  1
  N  258  1  0.03731900  0.50919300  0.36818000  1
  N  266  1  0.16924200  0.36272000  0.25657100  1
  N  269  1  0.15135700  0.41962500  0.29582300  1
  N  272  1  0.09518100  0.43527600  0.27050700  1
  N  280  1  0.87730800  0.67865800  0.25236400  1
  N  283  1  0.90397000  0.63869000  0.30098400  1
  N  286  1  0.96569400  0.63499100  0.28176900  1
  N  294  1  0.36589100  0.88098700  0.79588900  1
  N  297  1  0.41799000  0.90139300  0.75329000  1
  N  300  1  0.43082000  0.95991700  0.77580300  1
  N  308  1  0.67913200  0.17364800  0.79843100  1
  N  311  1  0.63862700  0.14712500  0.75006100  1
  N  314  1  0.63468400  0.08547400  0.76938300  1
  N  322  1  0.16548400  0.13480400  0.05302200  1
  N  325  1  0.19870000  0.12895100  0.99667000  1
  N  328  1  0.17569000  0.18831300  0.98042800  1
  N  336  1  0.88643900  0.91655900  0.05346300  1
  N  339  1  0.85214100  0.92187700  0.99750200  1
  N  342  1  0.87505300  0.86247800  0.98126400  1
  N  350  1  0.13482300  0.88593400  0.99759700  1
  N  353  1  0.12950400  0.85148400  0.05350200  1
  N  356  1  0.18908900  0.87407100  0.06964200  1
  N  364  1  0.91709600  0.16406700  0.99793300  1
  N  367  1  0.92197200  0.19885100  0.05372800  1
  N  370  1  0.86213900  0.17665200  0.06956600  1
  N  378  1  0.66539500  0.41587200  0.55351500  1
  N  381  1  0.69873500  0.42193800  0.49723100  1
  N  384  1  0.67588300  0.36259400  0.48082500  1
  N  392  1  0.38593500  0.63411600  0.55358500  1
  N  395  1  0.35179200  0.62856000  0.49757800  1
  N  398  1  0.37455700  0.68799100  0.48128900  1
  N  406  1  0.63457500  0.66490400  0.49746100  1
  N  409  1  0.62903300  0.69943800  0.55331500  1
  N  412  1  0.68866200  0.67708000  0.56955700  1
  N  420  1  0.41679900  0.38635700  0.49747800  1
  N  423  1  0.42190100  0.35161400  0.55327500  1
  N  426  1  0.36205100  0.37365300  0.56920800  1
  N  449  1  0.47826300  0.73308700  0.08505100  1
  N  450  1  0.57460700  0.64685400  0.10165700  1
  N  455  1  0.42501700  0.60621000  0.07046300  1
  N  456  1  0.55830500  0.57840300  0.06851100  1
  N  457  1  0.48451400  0.79903200  0.12709100  1
  N  458  1  0.55347600  0.72979300  0.19983900  1
  N  475  1  0.42803300  0.06250220  0.08279100  1
  N  476  1  0.33772800  0.15132900  0.10276200  1
  N  481  1  0.48757800  0.18924900  0.06981900  1
  N  482  1  0.35458700  0.21902200  0.06890900  1
  N  483  1  0.41995800  0.99685200  0.12104900  1
  N  484  1  0.35933400  0.06855720  0.20054800  1
  N  501  1  0.79079300  0.37590600  0.96617700  1
  N  502  1  0.70445400  0.28000500  0.94895400  1
  N  507  1  0.66400800  0.42963000  0.98024600  1
  N  508  1  0.63601900  0.29633300  0.98209800  1
  N  509  1  0.85703000  0.36951000  0.92442600  1
  N  510  1  0.78761600  0.30158500  0.85088500  1
  N  527  1  0.12029900  0.42666800  0.96819500  1
  N  528  1  0.20915000  0.51693900  0.94821600  1
  N  533  1  0.24693500  0.36707900  0.98123400  1
  N  534  1  0.27678800  0.49999300  0.98213100  1
  N  535  1  0.05465040  0.43466200  0.92994200  1
  N  536  1  0.12626800  0.49532400  0.85039900  1
  N  553  1  0.97992700  0.56348900  0.58469300  1
  N  554  1  0.07418440  0.65051900  0.60279900  1
  N  559  1  0.92484300  0.69026300  0.56992300  1
  N  560  1  0.05809640  0.71847800  0.56885100  1
  N  561  1  0.98453800  0.49780400  0.62744400  1
  N  562  1  0.04575740  0.56667500  0.70251000  1
  N  579  1  0.92703600  0.23456700  0.58384700  1
  N  580  1  0.83738800  0.14519700  0.60353000  1
  N  585  1  0.98703500  0.10775600  0.56949900  1
  N  586  1  0.85401400  0.07788620  0.56897900  1
  N  587  1  0.92212900  0.29916300  0.62353300  1
  N  588  1  0.86446600  0.22974000  0.70264100  1
  N  605  1  0.29092900  0.92216300  0.46629300  1
  N  606  1  0.20387000  0.01665320  0.44823800  1
  N  611  1  0.16409000  0.86729000  0.48097200  1
  N  612  1  0.13582400  0.00058616  0.48210000  1
  N  613  1  0.35653900  0.92666000  0.42349300  1
  N  614  1  0.28781300  0.98852700  0.34871100  1
  N  631  1  0.61980700  0.86932700  0.46700600  1
  N  632  1  0.70920000  0.77980200  0.44719200  1
  N  637  1  0.74652500  0.92944100  0.48137800  1
  N  638  1  0.77646700  0.79650900  0.48176000  1
  N  639  1  0.55518400  0.86452600  0.42733700  1
  N  640  1  0.62451700  0.80720500  0.34802900  1
  N  642  1  0.45862600  0.92678400  0.09857000  1
  N  645  1  0.45839100  0.87036300  0.14116800  1
  N  648  1  0.43812300  0.91020800  0.18114900  1
  N  656  1  0.98474200  0.39608300  0.95257700  1
  N  659  1  0.92820700  0.39587300  0.91008200  1
  N  662  1  0.96788300  0.41595600  0.86993300  1
  N  670  1  0.95967800  0.36939200  0.60018300  1
  N  673  1  0.95918500  0.42629200  0.64236600  1
  N  676  1  0.93988300  0.38659000  0.68277300  1
  N  684  1  0.48498200  0.90214200  0.45075400  1
  N  687  1  0.42805600  0.90149600  0.40859900  1
  N  690  1  0.46776800  0.88224900  0.36818000  1
  N  698  1  0.59969100  0.73577600  0.25657100  1
  N  701  1  0.58180600  0.79268100  0.29582300  1
  N  704  1  0.52563000  0.80833200  0.27050700  1
  N  712  1  0.30775700  0.05171420  0.25236400  1
  N  715  1  0.33441900  0.01174620  0.30098400  1
  N  718  1  0.39614300  0.00804716  0.28176900  1
  N  726  1  0.79634000  0.25404300  0.79588900  1
  N  729  1  0.84843900  0.27444900  0.75329000  1
  N  732  1  0.86126900  0.33297300  0.77580300  1
  N  740  1  0.10958100  0.54670400  0.79843100  1
  N  743  1  0.06907640  0.52018100  0.75006100  1
  N  746  1  0.06513340  0.45853000  0.76938300  1
  N  754  1  0.59593300  0.50786000  0.05302200  1
  N  757  1  0.62914900  0.50200700  0.99667000  1
  N  760  1  0.60613900  0.56136900  0.98042800  1
  N  768  1  0.31688800  0.28961500  0.05346300  1
  N  771  1  0.28259000  0.29493300  0.99750200  1
  N  774  1  0.30550200  0.23553400  0.98126400  1
  N  782  1  0.56527200  0.25899000  0.99759700  1
  N  785  1  0.55995300  0.22454000  0.05350200  1
  N  788  1  0.61953800  0.24712700  0.06964200  1
  N  796  1  0.34754500  0.53712300  0.99793300  1
  N  799  1  0.35242100  0.57190700  0.05372800  1
  N  802  1  0.29258800  0.54970800  0.06956600  1
  N  810  1  0.09584440  0.78892800  0.55351500  1
  N  813  1  0.12918400  0.79499400  0.49723100  1
  N  816  1  0.10633200  0.73565000  0.48082500  1
  N  824  1  0.81638400  0.00717216  0.55358500  1
  N  827  1  0.78224100  0.00161616  0.49757800  1
  N  830  1  0.80500600  0.06104720  0.48128900  1
  N  838  1  0.06502440  0.03796020  0.49746100  1
  N  841  1  0.05948240  0.07249420  0.55331500  1
  N  844  1  0.11911100  0.05013620  0.56955700  1
  N  852  1  0.84724800  0.75941300  0.49747800  1
  N  855  1  0.85235000  0.72467000  0.55327500  1
  N  858  1  0.79250000  0.74670900  0.56920800  1
