# generated using pymatgen
data_H6C13N5O2
_symmetry_space_group_name_H-M   'P 1'
_cell_length_a   74.35890000
_cell_length_b   74.35890000
_cell_length_c   74.35890000
_cell_angle_alpha   90.00000000
_cell_angle_beta   90.00000000
_cell_angle_gamma   90.00000000
_symmetry_Int_Tables_number   1
_chemical_formula_structural   H6C13N5O2
_chemical_formula_sum   'H576 C1248 N480 O192'
_cell_volume   411148.65107425
_cell_formula_units_Z   96
loop_
 _symmetry_equiv_pos_site_id
 _symmetry_equiv_pos_as_xyz
  1  'x, y, z'
loop_
 _atom_site_type_symbol
 _atom_site_label
 _atom_site_symmetry_multiplicity
 _atom_site_fract_x
 _atom_site_fract_y
 _atom_site_fract_z
 _atom_site_occupancy
  H  7  1  0.27630900  0.11567100  0.40770400  1
  H  16  1  0.25790100  0.09157400  0.38361100  1
  H  19  1  0.25081500  0.15245800  0.35688300  1
  H  20  1  0.28359600  0.14224300  0.34673900  1
  H  21  1  0.22909800  0.15608000  0.42708300  1
  H  22  1  0.30507100  0.07209900  0.34310900  1
  H  33  1  0.75790300  0.91844900  0.40772700  1
  H  42  1  0.77635300  0.94252400  0.38362500  1
  H  45  1  0.78367700  0.88154500  0.35712200  1
  H  46  1  0.75088300  0.89168100  0.34687200  1
  H  47  1  0.80507200  0.87795300  0.42726100  1
  H  48  1  0.72914500  0.96190700  0.34323200  1
  H  59  1  0.75790700  0.11570200  0.55674200  1
  H  68  1  0.77633000  0.09161500  0.58083500  1
  H  71  1  0.78350300  0.15255100  0.60747000  1
  H  72  1  0.75071600  0.14235700  0.61765500  1
  H  73  1  0.80508800  0.15617800  0.53730700  1
  H  74  1  0.72911400  0.07219400  0.62127200  1
  H  85  1  0.27634100  0.91852300  0.55676600  1
  H  94  1  0.25783900  0.94257800  0.58082900  1
  H  97  1  0.25075700  0.88165700  0.60748500  1
  H  98  1  0.28355700  0.89193600  0.61771400  1
  H  99  1  0.22917800  0.87802200  0.53733200  1
  H  100  1  0.30498500  0.96208200  0.62134900  1
  H  111  1  0.44255800  0.27633600  0.08083400  1
  H  120  1  0.41851900  0.25780100  0.05676800  1
  H  123  1  0.39193700  0.25058200  0.11771300  1
  H  124  1  0.38163900  0.28338400  0.10746800  1
  H  125  1  0.46207700  0.22921300  0.12138500  1
  H  126  1  0.37800900  0.30496000  0.03732700  1
  H  137  1  0.44259300  0.75791700  0.88363300  1
  H  146  1  0.41846800  0.77625200  0.90779200  1
  H  149  1  0.39175200  0.78345500  0.84690800  1
  H  150  1  0.38167600  0.75066800  0.85700500  1
  H  151  1  0.46199500  0.80513100  0.84325000  1
  H  152  1  0.37807600  0.72899200  0.92717000  1
  H  163  1  0.59163100  0.75784500  0.08082200  1
  H  172  1  0.61570500  0.77630700  0.05674500  1
  H  175  1  0.64242100  0.78334900  0.11763700  1
  H  176  1  0.65260200  0.75055500  0.10736400  1
  H  177  1  0.57223600  0.80503700  0.12126400  1
  H  178  1  0.65622200  0.72914900  0.03723500  1
  H  189  1  0.59154400  0.27625500  0.88365100  1
  H  198  1  0.61568600  0.25789300  0.90776300  1
  H  201  1  0.64234700  0.25070900  0.84685500  1
  H  202  1  0.65245400  0.28350500  0.85697900  1
  H  203  1  0.57218100  0.22902300  0.84322800  1
  H  204  1  0.65610500  0.30508500  0.92720400  1
  H  215  1  0.11572500  0.44260400  0.24141200  1
  H  224  1  0.09155100  0.41847600  0.22306400  1
  H  227  1  0.15239300  0.39172300  0.21588000  1
  H  228  1  0.14232600  0.38169200  0.24867500  1
  H  229  1  0.15606500  0.46201600  0.19420000  1
  H  230  1  0.07212700  0.37810000  0.27030900  1
  H  241  1  0.91849100  0.44258800  0.72299500  1
  H  250  1  0.94254600  0.41851100  0.74149600  1
  H  253  1  0.88159000  0.39194900  0.74869200  1
  H  254  1  0.89181900  0.38167300  0.71590000  1
  H  255  1  0.87797600  0.46208200  0.77015300  1
  H  256  1  0.96197400  0.37799900  0.69433700  1
  H  267  1  0.11566800  0.59161900  0.72299400  1
  H  276  1  0.09159500  0.61569800  0.74145600  1
  H  279  1  0.15250200  0.64239200  0.74851300  1
  H  280  1  0.14223700  0.65257700  0.71572400  1
  H  281  1  0.15615000  0.57222800  0.77017200  1
  H  282  1  0.07209500  0.65621000  0.69429700  1
  H  293  1  0.91850300  0.59163500  0.24147500  1
  H  302  1  0.94257800  0.61571300  0.22303100  1
  H  305  1  0.88167400  0.64240600  0.21593700  1
  H  306  1  0.89191700  0.65258800  0.24873000  1
  H  307  1  0.87806000  0.57222800  0.19427800  1
  H  308  1  0.96207100  0.65619800  0.27020300  1
  H  319  1  0.11569900  0.27633200  0.55677700  1
  H  328  1  0.09161100  0.25788200  0.58084900  1
  H  331  1  0.15253100  0.25072700  0.60751100  1
  H  332  1  0.14231000  0.28351300  0.61771400  1
  H  333  1  0.15617500  0.22916000  0.53733800  1
  H  334  1  0.07214600  0.30506500  0.62131400  1
  H  345  1  0.91854600  0.75784400  0.55674300  1
  H  354  1  0.94262500  0.77628200  0.58082700  1
  H  357  1  0.88171200  0.78336200  0.60752400  1
  H  358  1  0.89196600  0.75057800  0.61770900  1
  H  359  1  0.87807200  0.80503300  0.53736400  1
  H  360  1  0.96209900  0.72912100  0.62134800  1
  H  371  1  0.11569900  0.75796500  0.40784700  1
  H  380  1  0.09155100  0.77629000  0.38364500  1
  H  383  1  0.15249600  0.78360400  0.35709300  1
  H  384  1  0.14251300  0.75080500  0.34705600  1
  H  385  1  0.15613600  0.80515100  0.42730600  1
  H  386  1  0.07220400  0.72903100  0.34336500  1
  H  397  1  0.91846200  0.27626800  0.40775500  1
  H  406  1  0.94255900  0.25786800  0.38362300  1
  H  409  1  0.88164900  0.25069500  0.35698600  1
  H  410  1  0.89178900  0.28350000  0.34685600  1
  H  411  1  0.87805300  0.22903700  0.42716000  1
  H  412  1  0.96198100  0.30507100  0.34318200  1
  H  423  1  0.27632400  0.44253600  0.88361400  1
  H  432  1  0.25785500  0.41846100  0.90767100  1
  H  435  1  0.25075300  0.39181500  0.84674700  1
  H  436  1  0.28354800  0.38159400  0.85700900  1
  H  437  1  0.22912900  0.46195700  0.84314500  1
  H  438  1  0.30503300  0.37797400  0.92715400  1
  H  449  1  0.75790300  0.44264300  0.08082100  1
  H  458  1  0.77630200  0.41852700  0.05670600  1
  H  461  1  0.78352100  0.39189300  0.11763400  1
  H  462  1  0.75074700  0.38173700  0.10749900  1
  H  463  1  0.80507800  0.46208400  0.12128700  1
  H  464  1  0.72911400  0.37808900  0.03729000  1
  H  475  1  0.75787600  0.59160300  0.88364600  1
  H  484  1  0.77629600  0.61567800  0.90773700  1
  H  487  1  0.78347200  0.64234000  0.84680200  1
  H  488  1  0.75069600  0.65254800  0.85701600  1
  H  489  1  0.80504300  0.57218100  0.84314900  1
  H  490  1  0.72912100  0.65616100  0.92717100  1
  H  501  1  0.27636500  0.59163200  0.08081500  1
  H  510  1  0.25787900  0.61570100  0.05675700  1
  H  513  1  0.25077300  0.64235400  0.11767400  1
  H  514  1  0.28356500  0.65258300  0.10741700  1
  H  515  1  0.22918700  0.57219000  0.12128600  1
  H  516  1  0.30501500  0.65623000  0.03726300  1
  H  527  1  0.44260400  0.11576600  0.72303400  1
  H  536  1  0.41851900  0.09169100  0.74151400  1
  H  539  1  0.39204900  0.15267300  0.74889000  1
  H  540  1  0.38175700  0.14254800  0.71609000  1
  H  541  1  0.46219200  0.15627100  0.77018300  1
  H  542  1  0.37810400  0.07233900  0.69431000  1
  H  553  1  0.44253000  0.91853800  0.24146400  1
  H  562  1  0.41847600  0.94260900  0.22296100  1
  H  565  1  0.39175300  0.88171100  0.21595700  1
  H  566  1  0.38155900  0.89202600  0.24874900  1
  H  567  1  0.46191800  0.87802300  0.19431300  1
  H  568  1  0.37796700  0.96216100  0.27011300  1
  H  579  1  0.59155700  0.11570800  0.24143900  1
  H  588  1  0.61566300  0.09164000  0.22298400  1
  H  591  1  0.64218400  0.15261300  0.21570300  1
  H  592  1  0.65243100  0.14246100  0.24849100  1
  H  593  1  0.57204600  0.15621800  0.19428100  1
  H  594  1  0.65611800  0.07224500  0.27015100  1
  H  605  1  0.59152200  0.91850100  0.72307700  1
  H  614  1  0.61568100  0.94260600  0.74145000  1
  H  617  1  0.64226500  0.88167400  0.74870000  1
  H  618  1  0.65237400  0.89174600  0.71590000  1
  H  619  1  0.57209100  0.87807800  0.77029700  1
  H  620  1  0.65605600  0.96201500  0.69424800  1
  H  631  1  0.75860500  0.92019700  0.55486900  1
  H  640  1  0.77580400  0.94446700  0.57917200  1
  H  643  1  0.78325600  0.88390600  0.60589400  1
  H  644  1  0.75108300  0.89342000  0.61530100  1
  H  645  1  0.80847300  0.88385700  0.53617000  1
  H  646  1  0.72581400  0.96318600  0.61532800  1
  H  657  1  0.27570400  0.11404700  0.55482800  1
  H  666  1  0.25853100  0.08976900  0.57911300  1
  H  669  1  0.25101500  0.15033400  0.60585400  1
  H  670  1  0.28319400  0.14079300  0.61535000  1
  H  671  1  0.22579300  0.15032800  0.53614600  1
  H  672  1  0.30844300  0.07104800  0.61537400  1
  H  683  1  0.27583100  0.92018400  0.40956300  1
  H  692  1  0.25867300  0.94445700  0.38532100  1
  H  695  1  0.25111500  0.88392300  0.35856900  1
  H  696  1  0.28331100  0.89346500  0.34885000  1
  H  697  1  0.22589200  0.88397700  0.42831400  1
  H  698  1  0.30843300  0.96313800  0.34882100  1
  H  709  1  0.75850300  0.11394400  0.40960600  1
  H  718  1  0.77568600  0.08965600  0.38532900  1
  H  721  1  0.78317900  0.15018900  0.35856300  1
  H  722  1  0.75099500  0.14067200  0.34905900  1
  H  723  1  0.80840000  0.15024400  0.42829300  1
  H  724  1  0.72579700  0.07093300  0.34903300  1
  H  735  1  0.58969300  0.75846000  0.88529900  1
  H  744  1  0.61397400  0.77563500  0.90958900  1
  H  747  1  0.64072300  0.78317100  0.84907200  1
  H  748  1  0.65026200  0.75098100  0.85856400  1
  H  749  1  0.57099600  0.80841800  0.84908500  1
  H  750  1  0.65030100  0.72576000  0.92828500  1
  H  761  1  0.58972900  0.27561100  0.07914000  1
  H  770  1  0.61402400  0.25843600  0.05489700  1
  H  773  1  0.64071500  0.25094900  0.11556400  1
  H  774  1  0.65022300  0.28313900  0.10592400  1
  H  775  1  0.57102600  0.22579300  0.11554400  1
  H  776  1  0.65023300  0.30838000  0.03617100  1
  H  787  1  0.44442300  0.27565900  0.88528900  1
  H  796  1  0.42019200  0.25855700  0.90955400  1
  H  799  1  0.39342700  0.25097100  0.84885000  1
  H  800  1  0.38371400  0.28320000  0.85860000  1
  H  801  1  0.46309600  0.22584500  0.84886900  1
  H  802  1  0.38382800  0.30839800  0.92827400  1
  H  813  1  0.44445100  0.75851900  0.07915700  1
  H  822  1  0.42016800  0.77565300  0.05490100  1
  H  825  1  0.39346500  0.78319000  0.11551500  1
  H  826  1  0.38383900  0.75098000  0.10593200  1
  H  827  1  0.46317300  0.80841500  0.11543800  1
  H  828  1  0.38381200  0.72579300  0.03623400  1
  H  839  1  0.92018000  0.58978500  0.72365000  1
  H  848  1  0.94443200  0.61404900  0.74080500  1
  H  851  1  0.88383200  0.64076600  0.74832400  1
  H  852  1  0.89343600  0.65041600  0.71611500  1
  H  853  1  0.88390000  0.57104800  0.77354500  1
  H  854  1  0.96313200  0.65037700  0.69093500  1
  H  865  1  0.11406100  0.58963900  0.24076200  1
  H  874  1  0.08976700  0.61394400  0.22355900  1
  H  877  1  0.15031000  0.64070100  0.21609400  1
  H  878  1  0.14080900  0.65005600  0.24826900  1
  H  879  1  0.15040200  0.57098900  0.19088400  1
  H  880  1  0.07102800  0.65010200  0.27354500  1
  H  891  1  0.92018500  0.44448500  0.24084300  1
  H  900  1  0.94445200  0.42020300  0.22367500  1
  H  903  1  0.88388000  0.39347200  0.21617300  1
  H  904  1  0.89343000  0.38390500  0.24835400  1
  H  905  1  0.88387300  0.46318900  0.19096000  1
  H  906  1  0.96315200  0.38384700  0.27353000  1
  H  917  1  0.11398700  0.44446400  0.72367600  1
  H  926  1  0.08971800  0.42020300  0.74082000  1
  H  929  1  0.15032500  0.39345300  0.74834500  1
  H  930  1  0.14071500  0.38384500  0.71614600  1
  H  931  1  0.15031200  0.46316100  0.77354900  1
  H  932  1  0.07100400  0.38387000  0.69095600  1
  H  943  1  0.92023300  0.75858800  0.40958900  1
  H  952  1  0.94447100  0.77570500  0.38529100  1
  H  955  1  0.88376200  0.78321500  0.35861100  1
  H  956  1  0.89345100  0.75100000  0.34898600  1
  H  957  1  0.88382200  0.80840800  0.42827300  1
  H  958  1  0.96315900  0.72582100  0.34898100  1
  H  969  1  0.11397000  0.27568100  0.40964300  1
  H  978  1  0.08967300  0.25847200  0.38534800  1
  H  981  1  0.15017000  0.25099400  0.35860200  1
  H  982  1  0.14071900  0.28316900  0.34915100  1
  H  983  1  0.15024800  0.22577500  0.42835400  1
  H  984  1  0.07098000  0.30841000  0.34910300  1
  H  995  1  0.92014700  0.27574900  0.55489600  1
  H  1004  1  0.94444600  0.25859600  0.57914000  1
  H  1007  1  0.88390300  0.25103500  0.60592700  1
  H  1008  1  0.89346500  0.28323900  0.61555400  1
  H  1009  1  0.88389700  0.22582400  0.53620200  1
  H  1010  1  0.96315800  0.30842900  0.61552200  1
  H  1021  1  0.11407100  0.75851100  0.55496200  1
  H  1030  1  0.08979400  0.77565100  0.57920200  1
  H  1033  1  0.15038300  0.78321000  0.60596400  1
  H  1034  1  0.14077900  0.75098700  0.61561900  1
  H  1035  1  0.15034700  0.80840900  0.53624300  1
  H  1036  1  0.07109800  0.72578200  0.61553500  1
  H  1047  1  0.75848100  0.58979000  0.07916600  1
  H  1056  1  0.77562500  0.61404700  0.05487800  1
  H  1059  1  0.78315400  0.64081300  0.11540900  1
  H  1060  1  0.75093800  0.65045800  0.10586800  1
  H  1061  1  0.80842400  0.57108300  0.11538800  1
  H  1062  1  0.72576600  0.65040000  0.03619200  1
  H  1073  1  0.27565400  0.58969200  0.88531200  1
  H  1082  1  0.25846800  0.61397500  0.90958500  1
  H  1085  1  0.25096900  0.64070500  0.84901700  1
  H  1086  1  0.28315700  0.65021700  0.85856100  1
  H  1087  1  0.22577700  0.57097800  0.84899900  1
  H  1088  1  0.30839600  0.65022300  0.92829300  1
  H  1099  1  0.27587000  0.44444300  0.07912100  1
  H  1108  1  0.25867800  0.42020100  0.05481100  1
  H  1111  1  0.25113600  0.39339600  0.11523300  1
  H  1112  1  0.28331400  0.38377400  0.10580200  1
  H  1113  1  0.22587900  0.46317300  0.11526700  1
  H  1114  1  0.30846000  0.38374200  0.03610700  1
  H  1125  1  0.75861300  0.44446900  0.88531900  1
  H  1134  1  0.77577300  0.42018800  0.90955500  1
  H  1137  1  0.78325600  0.39347700  0.84886700  1
  H  1138  1  0.75105900  0.38393300  0.85855000  1
  H  1139  1  0.80841200  0.46315400  0.84887900  1
  H  1140  1  0.72586900  0.38393100  0.92830500  1
  H  1151  1  0.58968100  0.92023300  0.24079200  1
  H  1160  1  0.61398100  0.94450200  0.22360100  1
  H  1163  1  0.64068900  0.88393100  0.21612200  1
  H  1164  1  0.65017000  0.89345700  0.24828700  1
  H  1165  1  0.57095700  0.88390800  0.19092300  1
  H  1166  1  0.65023500  0.96320700  0.27352200  1
  H  1177  1  0.58978700  0.11398000  0.72364900  1
  H  1186  1  0.61407100  0.08969000  0.74083900  1
  H  1189  1  0.64081900  0.15020400  0.74832400  1
  H  1190  1  0.65032900  0.14071200  0.71612900  1
  H  1191  1  0.57107900  0.15024200  0.77356500  1
  H  1192  1  0.65031300  0.07099200  0.69090400  1
  H  1203  1  0.44438600  0.92024300  0.72355300  1
  H  1212  1  0.42015600  0.94456700  0.74071600  1
  H  1215  1  0.39333300  0.88409500  0.74826900  1
  H  1216  1  0.38368900  0.89358400  0.71607800  1
  H  1217  1  0.46310700  0.88399200  0.77346900  1
  H  1218  1  0.38374300  0.96324600  0.69089300  1
  H  1229  1  0.44439100  0.11406600  0.24073400  1
  H  1238  1  0.42014500  0.08983200  0.22361000  1
  H  1241  1  0.39342100  0.15054700  0.21607000  1
  H  1242  1  0.38375500  0.14080400  0.24830300  1
  H  1243  1  0.46309200  0.15047700  0.19092100  1
  H  1244  1  0.38387100  0.07110200  0.27350900  1
  H  1255  1  0.21118500  0.19352600  0.40346200  1
  H  1259  1  0.15403900  0.21609700  0.36675000  1
  H  1261  1  0.20872400  0.14998800  0.38545000  1
  H  1268  1  0.82254400  0.84051900  0.40225900  1
  H  1272  1  0.88112600  0.81870000  0.36739800  1
  H  1274  1  0.82481400  0.88431700  0.38217000  1
  H  1281  1  0.82283500  0.19359400  0.56147900  1
  H  1285  1  0.88047800  0.21592900  0.59756200  1
  H  1287  1  0.82524000  0.14992700  0.58032800  1
  H  1294  1  0.21153400  0.84058600  0.56173400  1
  H  1298  1  0.15362100  0.81840800  0.59748900  1
  H  1300  1  0.20913900  0.88432800  0.58084900  1
  H  1307  1  0.43678600  0.21187300  0.15886700  1
  H  1311  1  0.40235600  0.15296200  0.18049200  1
  H  1313  1  0.41651900  0.20957000  0.11498700  1
  H  1320  1  0.43855600  0.82318200  0.80576300  1
  H  1324  1  0.40144900  0.88005000  0.78312000  1
  H  1326  1  0.42097300  0.82566000  0.84924500  1
  H  1333  1  0.59609300  0.82285200  0.15872000  1
  H  1337  1  0.63237500  0.88036500  0.18106900  1
  H  1339  1  0.61442000  0.82532100  0.11509500  1
  H  1346  1  0.59596000  0.21112200  0.80589300  1
  H  1350  1  0.63263100  0.15396800  0.78328000  1
  H  1352  1  0.61436800  0.20876200  0.84942700  1
  H  1359  1  0.19354300  0.43890700  0.17599100  1
  H  1363  1  0.21638800  0.40138300  0.11948400  1
  H  1365  1  0.15018800  0.42174000  0.17354000  1
  H  1372  1  0.84054700  0.43718900  0.78763900  1
  H  1376  1  0.81870300  0.40226000  0.84617500  1
  H  1378  1  0.88433300  0.41724600  0.78993300  1
  H  1385  1  0.19356800  0.59626700  0.78792200  1
  H  1389  1  0.21587300  0.63233600  0.84558300  1
  H  1391  1  0.14992200  0.61490900  0.79036300  1
  H  1398  1  0.84061700  0.59618700  0.17647300  1
  H  1402  1  0.81816900  0.63258000  0.11907100  1
  H  1404  1  0.88425700  0.61467600  0.17404500  1
  H  1411  1  0.19362300  0.21145600  0.56154800  1
  H  1415  1  0.21588800  0.15369700  0.59747700  1
  H  1417  1  0.14991000  0.20899200  0.58032500  1
  H  1424  1  0.84064200  0.82278200  0.56141000  1
  H  1428  1  0.81830600  0.88035700  0.59759300  1
  H  1430  1  0.88429400  0.82521700  0.58002000  1
  H  1437  1  0.19355600  0.82309200  0.40353800  1
  H  1441  1  0.21610100  0.88025800  0.36683300  1
  H  1443  1  0.14998200  0.82554700  0.38535200  1
  H  1450  1  0.84070200  0.21114900  0.40331300  1
  H  1454  1  0.81818900  0.15382400  0.36683300  1
  H  1456  1  0.88425900  0.20879700  0.38478000  1
  H  1463  1  0.21152000  0.43758600  0.80568600  1
  H  1467  1  0.15352400  0.40194000  0.78355300  1
  H  1469  1  0.20909400  0.41851800  0.84942500  1
  H  1476  1  0.82292400  0.43812900  0.15869500  1
  H  1480  1  0.88041300  0.40183000  0.18107300  1
  H  1482  1  0.82536100  0.41961200  0.11507300  1
  H  1489  1  0.82275500  0.59641300  0.80573300  1
  H  1493  1  0.88053700  0.63233400  0.78350300  1
  H  1495  1  0.82517700  0.61529300  0.84942700  1
  H  1502  1  0.21146200  0.59638400  0.15869000  1
  H  1506  1  0.15373600  0.63234700  0.18100300  1
  H  1508  1  0.20907000  0.61533200  0.11501500  1
  H  1515  1  0.43671600  0.19377700  0.78750500  1
  H  1519  1  0.40239900  0.21536600  0.84649000  1
  H  1521  1  0.41611900  0.14990700  0.78972000  1
  H  1528  1  0.43777400  0.84057000  0.17662900  1
  H  1532  1  0.40190600  0.81837100  0.11879300  1
  H  1534  1  0.41909700  0.88426900  0.17413500  1
  H  1541  1  0.59689700  0.19362600  0.17675900  1
  H  1545  1  0.63201600  0.21556800  0.11837500  1
  H  1547  1  0.61678300  0.14984900  0.17446600  1
  H  1554  1  0.59594800  0.84077800  0.78821300  1
  H  1558  1  0.63247600  0.81818500  0.84546500  1
  H  1560  1  0.61462100  0.88430900  0.79052900  1
  H  1567  1  0.71143200  0.69360100  0.90289600  1
  H  1571  1  0.65373300  0.71589900  0.86689200  1
  H  1573  1  0.70902000  0.64988800  0.88395700  1
  H  1580  1  0.32254900  0.34052600  0.90241000  1
  H  1584  1  0.38100600  0.31866500  0.86735700  1
  H  1586  1  0.32492700  0.38432400  0.88279900  1
  H  1593  1  0.32259000  0.69367400  0.06197900  1
  H  1597  1  0.38078900  0.71570000  0.09735800  1
  H  1599  1  0.32494000  0.64988500  0.08154200  1
  H  1606  1  0.71117000  0.34066300  0.06098100  1
  H  1610  1  0.65409800  0.31804400  0.09777800  1
  H  1612  1  0.70872500  0.38421500  0.07908800  1
  H  1619  1  0.93726200  0.71162100  0.65876900  1
  H  1623  1  0.90206600  0.65331200  0.68077300  1
  H  1625  1  0.91749900  0.70928700  0.61497600  1
  H  1632  1  0.93804200  0.32292300  0.30581200  1
  H  1636  1  0.90184300  0.38050200  0.28348600  1
  H  1638  1  0.91952900  0.32535200  0.34941800  1
  H  1645  1  0.09647300  0.32273200  0.65876400  1
  H  1649  1  0.13220200  0.38066900  0.68091600  1
  H  1651  1  0.11548700  0.32516200  0.61503500  1
  H  1658  1  0.09494400  0.71062300  0.30599700  1
  H  1662  1  0.13292900  0.65452700  0.28292100  1
  H  1664  1  0.11180000  0.70831100  0.34914100  1
  H  1671  1  0.69349200  0.93873800  0.67611700  1
  H  1675  1  0.71631200  0.90141500  0.61947300  1
  H  1677  1  0.65007700  0.92126600  0.67366400  1
  H  1684  1  0.34050700  0.93690400  0.28751500  1
  H  1688  1  0.31885200  0.90236300  0.34634600  1
  H  1690  1  0.38433400  0.91647300  0.28971800  1
  H  1697  1  0.69355300  0.09590700  0.28806700  1
  H  1701  1  0.71597800  0.13238300  0.34542900  1
  H  1703  1  0.64999800  0.11395100  0.29055500  1
  H  1710  1  0.34062300  0.09592700  0.67640200  1
  H  1714  1  0.31810100  0.13265400  0.61924300  1
  H  1716  1  0.38417800  0.11375700  0.67390900  1
  H  1723  1  0.69364700  0.71172000  0.06231900  1
  H  1727  1  0.71549700  0.65311800  0.09711900  1
  H  1729  1  0.64984100  0.70946100  0.08250600  1
  H  1736  1  0.34057100  0.32252200  0.06189400  1
  H  1740  1  0.31865300  0.38084200  0.09714500  1
  H  1742  1  0.38433800  0.32491000  0.08127100  1
  H  1749  1  0.69356600  0.32301100  0.90347100  1
  H  1753  1  0.71605100  0.38024700  0.86683200  1
  H  1755  1  0.64997600  0.32550100  0.88541600  1
  H  1762  1  0.34076100  0.71108300  0.90340400  1
  H  1766  1  0.31815000  0.65389000  0.86679000  1
  H  1768  1  0.38427400  0.70873200  0.88494100  1
  H  1775  1  0.71118900  0.93839400  0.30575000  1
  H  1779  1  0.65411400  0.90157500  0.28316900  1
  H  1781  1  0.70869300  0.92062600  0.34927200  1
  H  1788  1  0.32250400  0.93727400  0.65874900  1
  H  1792  1  0.38102900  0.90235000  0.68061800  1
  H  1794  1  0.32481500  0.91738200  0.61498400  1
  H  1801  1  0.32266000  0.09673700  0.30569100  1
  H  1805  1  0.38079400  0.13219400  0.28362600  1
  H  1807  1  0.32502100  0.11620500  0.34945300  1
  H  1814  1  0.71132500  0.09624100  0.65861200  1
  H  1818  1  0.65375100  0.13237400  0.68103900  1
  H  1820  1  0.70895700  0.11509800  0.61500400  1
  H  1827  1  0.93748200  0.69362700  0.28780700  1
  H  1831  1  0.90199100  0.71574100  0.34589600  1
  H  1833  1  0.91806000  0.64986600  0.29017400  1
  H  1840  1  0.93755300  0.34056700  0.67671300  1
  H  1844  1  0.90206300  0.31855400  0.61857300  1
  H  1846  1  0.91845600  0.38431700  0.67427900  1
  H  1853  1  0.09696900  0.69363600  0.67679600  1
  H  1857  1  0.13208700  0.71558300  0.61841200  1
  H  1859  1  0.11680200  0.64983500  0.67447100  1
  H  1866  1  0.09573200  0.34078700  0.28832300  1
  H  1870  1  0.13256200  0.31809300  0.34534200  1
  H  1872  1  0.11399300  0.38425300  0.29067000  1
  H  1879  1  0.26483900  0.02529900  0.39627700  1
  H  1883  1  0.26430100  0.97750800  0.34312700  1
  H  1885  1  0.26091600  0.05834900  0.38638600  1
  H  1892  1  0.76927000  0.00872700  0.39628100  1
  H  1896  1  0.76986700  0.05656100  0.34316000  1
  H  1898  1  0.77321500  0.97570600  0.38637600  1
  H  1905  1  0.76941700  0.02537100  0.56817200  1
  H  1909  1  0.76987300  0.97756400  0.62131300  1
  H  1911  1  0.77333000  0.05841200  0.57809000  1
  H  1918  1  0.26478900  0.00886200  0.56813100  1
  H  1922  1  0.26435700  0.05667900  0.62126300  1
  H  1924  1  0.26086300  0.97582100  0.57803700  1
  H  1931  1  0.43120200  0.26488800  0.99047800  1
  H  1935  1  0.37804200  0.26435600  0.94269100  1
  H  1937  1  0.42131900  0.26092300  0.02352400  1
  H  1944  1  0.43111300  0.76932700  0.97401900  1
  H  1948  1  0.37797400  0.76983600  0.02182300  1
  H  1950  1  0.42119700  0.77324000  0.94097700  1
  H  1957  1  0.60300700  0.76948900  0.99045200  1
  H  1961  1  0.65614100  0.76987700  0.94264400  1
  H  1963  1  0.61292800  0.77335400  0.02350400  1
  H  1970  1  0.60303900  0.26499700  0.97397000  1
  H  1974  1  0.65616800  0.26430900  0.02179200  1
  H  1976  1  0.61291800  0.26101700  0.94095300  1
  H  1983  1  0.02534100  0.43113500  0.22997500  1
  H  1987  1  0.97751600  0.37801600  0.22943600  1
  H  1989  1  0.05837900  0.42121300  0.22607500  1
  H  1996  1  0.00880500  0.43118100  0.73444400  1
  H  2000  1  0.05661200  0.37803700  0.73501300  1
  H  2002  1  0.97577500  0.42129600  0.73837500  1
  H  2009  1  0.02529500  0.60303400  0.73452700  1
  H  2013  1  0.97752500  0.65620600  0.73501500  1
  H  2015  1  0.05834800  0.61292200  0.73847000  1
  H  2022  1  0.00882400  0.60298500  0.22992200  1
  H  2026  1  0.05667900  0.65608300  0.22945600  1
  H  2028  1  0.97579000  0.61292000  0.22604400  1
  H  2035  1  0.02534500  0.26489900  0.56816600  1
  H  2039  1  0.97753900  0.26433400  0.62130300  1
  H  2041  1  0.05839000  0.26093700  0.57806600  1
  H  2048  1  0.00892100  0.76935000  0.56816800  1
  H  2052  1  0.05668600  0.76985900  0.62134600  1
  H  2054  1  0.97586600  0.77327900  0.57805400  1
  H  2061  1  0.02539500  0.76920500  0.39623500  1
  H  2065  1  0.97757300  0.76983800  0.34310500  1
  H  2067  1  0.05841300  0.77310500  0.38634800  1
  H  2074  1  0.00876300  0.26498900  0.39628800  1
  H  2078  1  0.05660100  0.26434000  0.34317400  1
  H  2080  1  0.97575200  0.26100900  0.38640200  1
  H  2087  1  0.26479800  0.43115400  0.97395000  1
  H  2091  1  0.26431000  0.37802100  0.02175900  1
  H  2093  1  0.26089700  0.42125300  0.94090500  1
  H  2100  1  0.76931000  0.43117000  0.99048700  1
  H  2104  1  0.76992900  0.37803400  0.94267200  1
  H  2106  1  0.77321400  0.42127500  0.02351600  1
  H  2113  1  0.76932600  0.60304100  0.97401200  1
  H  2117  1  0.76983600  0.65621000  0.02178500  1
  H  2119  1  0.77329500  0.61293400  0.94096100  1
  H  2126  1  0.26478100  0.60300800  0.99049400  1
  H  2130  1  0.26430500  0.65612900  0.94266700  1
  H  2132  1  0.26088100  0.61292400  0.02353400  1
  H  2139  1  0.43113200  0.02546300  0.73439400  1
  H  2143  1  0.37798200  0.97767100  0.73495500  1
  H  2145  1  0.42124400  0.05850100  0.73839600  1
  H  2152  1  0.43119300  0.00893300  0.22990500  1
  H  2156  1  0.37802000  0.05670700  0.22943300  1
  H  2158  1  0.42130200  0.97587700  0.22598700  1
  H  2165  1  0.60302600  0.02542800  0.23004500  1
  H  2169  1  0.65615200  0.97759800  0.22948800  1
  H  2171  1  0.61291700  0.05845000  0.22612600  1
  H  2178  1  0.60308100  0.00879300  0.73430700  1
  H  2182  1  0.65622000  0.05660100  0.73499400  1
  H  2184  1  0.61295200  0.97577800  0.73832000  1
  H  2191  1  0.76484200  0.52534600  0.89628500  1
  H  2195  1  0.76430700  0.47755200  0.84314000  1
  H  2197  1  0.76091400  0.55838900  0.88639200  1
  H  2204  1  0.26942600  0.50880300  0.89628600  1
  H  2208  1  0.26988300  0.55661000  0.84315000  1
  H  2210  1  0.27332300  0.47575200  0.88636400  1
  H  2217  1  0.26944900  0.52537900  0.06813200  1
  H  2221  1  0.26990100  0.47756100  0.12127000  1
  H  2223  1  0.27335300  0.55841900  0.07805500  1
  H  2230  1  0.76494600  0.50887400  0.06817100  1
  H  2234  1  0.76436000  0.55668700  0.12130800  1
  H  2236  1  0.76100800  0.47584500  0.07805300  1
  H  2243  1  0.93119100  0.76491400  0.49049600  1
  H  2247  1  0.87805000  0.76436500  0.44269400  1
  H  2249  1  0.92129900  0.76094600  0.52353400  1
  H  2256  1  0.93112100  0.26936400  0.47398900  1
  H  2260  1  0.87798200  0.26986400  0.52179700  1
  H  2262  1  0.92120000  0.27326400  0.44094700  1
  H  2269  1  0.10302500  0.26935900  0.49054300  1
  H  2273  1  0.15613700  0.26989000  0.44270700  1
  H  2275  1  0.11293300  0.27326800  0.52356600  1
  H  2282  1  0.10306800  0.76503900  0.47406300  1
  H  2286  1  0.15621500  0.76431000  0.52186400  1
  H  2288  1  0.11293700  0.76105300  0.44103800  1
  H  2295  1  0.52530100  0.93117500  0.72988100  1
  H  2299  1  0.47746600  0.87806100  0.72941100  1
  H  2301  1  0.55833800  0.92123400  0.72603200  1
  H  2308  1  0.50876800  0.93118300  0.23449700  1
  H  2312  1  0.55659100  0.87805700  0.23499300  1
  H  2314  1  0.47573100  0.92127400  0.23840100  1
  H  2321  1  0.52524600  0.10304400  0.23452800  1
  H  2325  1  0.47748600  0.15621900  0.23503900  1
  H  2327  1  0.55830900  0.11293400  0.23847300  1
  H  2334  1  0.50889800  0.10301500  0.72986300  1
  H  2338  1  0.55672900  0.15613100  0.72943200  1
  H  2340  1  0.47585300  0.11294500  0.72599000  1
  H  2347  1  0.52539000  0.76490400  0.06816600  1
  H  2351  1  0.47757700  0.76436400  0.12130300  1
  H  2353  1  0.55842800  0.76094200  0.07806800  1
  H  2360  1  0.50886300  0.26942500  0.06815300  1
  H  2364  1  0.55665100  0.26990600  0.12131000  1
  H  2366  1  0.47581400  0.27333300  0.07804500  1
  H  2373  1  0.52530100  0.26937100  0.89626300  1
  H  2377  1  0.47752400  0.26989500  0.84310200  1
  H  2379  1  0.55834800  0.27324300  0.88636100  1
  H  2386  1  0.50877200  0.76503600  0.89626600  1
  H  2390  1  0.55660400  0.76434900  0.84314600  1
  H  2392  1  0.47575900  0.76105800  0.88638000  1
  H  2399  1  0.76472700  0.93115900  0.47401100  1
  H  2403  1  0.76431100  0.87803700  0.52182900  1
  H  2405  1  0.76082400  0.92123000  0.44096000  1
  H  2412  1  0.26944200  0.93119800  0.49050100  1
  H  2416  1  0.26994200  0.87805200  0.44269600  1
  H  2418  1  0.27331600  0.92128400  0.52354600  1
  H  2425  1  0.26932000  0.10305300  0.47393600  1
  H  2429  1  0.26984800  0.15620700  0.52172700  1
  H  2431  1  0.27328700  0.11296000  0.44089300  1
  H  2438  1  0.76481000  0.10302100  0.49051200  1
  H  2442  1  0.76431700  0.15612800  0.44267100  1
  H  2444  1  0.76092100  0.11294800  0.52354600  1
  H  2451  1  0.93115900  0.52539400  0.23449000  1
  H  2455  1  0.87802500  0.47758400  0.23503300  1
  H  2457  1  0.92124300  0.55843500  0.23845200  1
  H  2464  1  0.93119000  0.50888000  0.72989300  1
  H  2468  1  0.87804500  0.55668000  0.72944400  1
  H  2470  1  0.92128100  0.47583300  0.72599800  1
  H  2477  1  0.10302100  0.52537300  0.72996200  1
  H  2481  1  0.15615800  0.47756100  0.72948500  1
  H  2483  1  0.11292700  0.55841100  0.72605600  1
  H  2490  1  0.10312300  0.50877100  0.23425700  1
  H  2494  1  0.15624600  0.55659400  0.23499400  1
  H  2496  1  0.11300200  0.47575800  0.23828600  1
  C  1  1  0.26320600  0.12670000  0.38494100  1
  C  2  1  0.26737400  0.12525600  0.40347900  1
  C  3  1  0.25972000  0.13704100  0.41627100  1
  C  4  1  0.24752100  0.15036900  0.41042900  1
  C  5  1  0.24286000  0.15186000  0.39207200  1
  C  6  1  0.25091800  0.14020500  0.37928100  1
  C  9  1  0.27109100  0.11427800  0.37256000  1
  C  10  1  0.28340800  0.11987700  0.35905200  1
  C  11  1  0.29139400  0.10704400  0.34738400  1
  C  12  1  0.28662800  0.08871600  0.34887400  1
  C  13  1  0.27443300  0.08293600  0.36223000  1
  C  14  1  0.26685500  0.09575900  0.37402400  1
  C  27  1  0.77112100  0.90738200  0.38504800  1
  C  28  1  0.76686000  0.90885800  0.40355900  1
  C  29  1  0.77441800  0.89707000  0.41639800  1
  C  30  1  0.78662100  0.88371100  0.41064400  1
  C  31  1  0.79142700  0.88221900  0.39232700  1
  C  32  1  0.78345900  0.89388000  0.37947500  1
  C  35  1  0.76324700  0.91975700  0.37261100  1
  C  36  1  0.75096100  0.91408800  0.35910600  1
  C  37  1  0.74289300  0.92687300  0.34745300  1
  C  38  1  0.74755100  0.94523200  0.34893800  1
  C  39  1  0.75975400  0.95108100  0.36225800  1
  C  40  1  0.76740800  0.93829600  0.37405000  1
  C  53  1  0.77105800  0.12674900  0.57946800  1
  C  54  1  0.76685400  0.12528800  0.56094200  1
  C  55  1  0.77445800  0.13708100  0.54813000  1
  C  56  1  0.78665000  0.15043000  0.55393400  1
  C  57  1  0.79136900  0.15192500  0.57227500  1
  C  58  1  0.78335900  0.14026000  0.58509100  1
  C  61  1  0.76317900  0.11434500  0.59187200  1
  C  62  1  0.75087000  0.11997400  0.60537400  1
  C  63  1  0.74284800  0.10715900  0.61703200  1
  C  64  1  0.74756100  0.08881700  0.61554200  1
  C  65  1  0.75976300  0.08300900  0.60220400  1
  C  66  1  0.76738400  0.09581800  0.59041900  1
  C  79  1  0.26319500  0.90745900  0.57948900  1
  C  80  1  0.26741000  0.90891900  0.56096500  1
  C  81  1  0.25981600  0.89712700  0.54814700  1
  C  82  1  0.24763000  0.88377100  0.55394500  1
  C  83  1  0.24289600  0.88227300  0.57228200  1
  C  84  1  0.25089500  0.89394100  0.58510500  1
  C  87  1  0.27103700  0.91988500  0.59189700  1
  C  88  1  0.28336100  0.91430300  0.60540600  1
  C  89  1  0.29132900  0.92714700  0.61707700  1
  C  90  1  0.28653500  0.94546600  0.61558600  1
  C  91  1  0.27434100  0.95123300  0.60222400  1
  C  92  1  0.26677900  0.93839900  0.59043100  1
  C  105  1  0.41987500  0.26312000  0.09190000  1
  C  106  1  0.43838500  0.26739900  0.09044200  1
  C  107  1  0.45122100  0.25985500  0.10224300  1
  C  108  1  0.44546300  0.24766100  0.11560800  1
  C  109  1  0.42715000  0.24283300  0.11708600  1
  C  110  1  0.41430300  0.25078400  0.10540300  1
  C  113  1  0.40744400  0.27094800  0.07948600  1
  C  114  1  0.39392900  0.28325300  0.08509300  1
  C  115  1  0.38226000  0.29124700  0.07226500  1
  C  116  1  0.38375900  0.28650100  0.05393300  1
  C  117  1  0.39712200  0.27431800  0.04814100  1
  C  118  1  0.40891600  0.26673200  0.06096200  1
  C  131  1  0.41982900  0.77104900  0.87264700  1
  C  132  1  0.43836600  0.76688400  0.87407600  1
  C  133  1  0.45114700  0.77454000  0.86228300  1
  C  134  1  0.44529700  0.78675200  0.84897100  1
  C  135  1  0.42693800  0.79141400  0.84749800  1
  C  136  1  0.41415600  0.78334200  0.85915100  1
  C  139  1  0.40745300  0.76311700  0.88504200  1
  C  140  1  0.39395800  0.75081200  0.87939100  1
  C  141  1  0.38231100  0.74275600  0.89219000  1
  C  142  1  0.38379600  0.74743500  0.91054100  1
  C  143  1  0.39711900  0.75964300  0.91637200  1
  C  144  1  0.40890100  0.76729100  0.90357600  1
  C  157  1  0.61438300  0.77095700  0.09186500  1
  C  158  1  0.59584800  0.76678300  0.09041000  1
  C  159  1  0.58304800  0.77441200  0.10220100  1
  C  160  1  0.58887700  0.78660400  0.11554100  1
  C  161  1  0.60722700  0.79128700  0.11703700  1
  C  162  1  0.62002700  0.78324900  0.10537700  1
  C  165  1  0.62677100  0.76309800  0.07943100  1
  C  166  1  0.64027500  0.75076300  0.08500700  1
  C  167  1  0.65194500  0.74279800  0.07215900  1
  C  168  1  0.65045800  0.74760700  0.05384300  1
  C  169  1  0.63709600  0.75980300  0.04808300  1
  C  170  1  0.62530400  0.76736300  0.06091900  1
  C  183  1  0.61430100  0.26313700  0.87262800  1
  C  184  1  0.59576500  0.26731000  0.87407300  1
  C  185  1  0.58297300  0.25966400  0.86228600  1
  C  186  1  0.58880800  0.24746500  0.84895600  1
  C  187  1  0.60716100  0.24279200  0.84747000  1
  C  188  1  0.61995700  0.25084200  0.85912600  1
  C  191  1  0.62669100  0.27105200  0.88502200  1
  C  192  1  0.64019300  0.28335200  0.87937600  1
  C  193  1  0.65185100  0.29138800  0.89217800  1
  C  194  1  0.65037200  0.28669200  0.91052500  1
  C  195  1  0.63704600  0.27448200  0.91635000  1
  C  196  1  0.62525400  0.26685300  0.90355100  1
  C  209  1  0.12669000  0.41983000  0.22828100  1
  C  210  1  0.12527900  0.43836700  0.23244700  1
  C  211  1  0.13706900  0.45114100  0.22477200  1
  C  212  1  0.15036500  0.44527700  0.21254800  1
  C  213  1  0.15182700  0.42691200  0.20790000  1
  C  214  1  0.14017700  0.41414300  0.21598600  1
  C  217  1  0.11429200  0.40746300  0.23621700  1
  C  218  1  0.11994000  0.39397100  0.24852300  1
  C  219  1  0.10713700  0.38232700  0.25657600  1
  C  220  1  0.08878600  0.38381300  0.25189200  1
  C  221  1  0.08296200  0.39713400  0.23967700  1
  C  222  1  0.09576100  0.40891400  0.23203300  1
  C  235  1  0.90741600  0.41989200  0.73618400  1
  C  236  1  0.90889100  0.43840900  0.73193800  1
  C  237  1  0.89709800  0.45124300  0.73950300  1
  C  238  1  0.88373600  0.44547500  0.75169500  1
  C  239  1  0.88224100  0.42715400  0.75648400  1
  C  240  1  0.89390800  0.41431000  0.74850900  1
  C  243  1  0.91982100  0.40746300  0.72833800  1
  C  244  1  0.91420200  0.39394900  0.71603700  1
  C  245  1  0.92702100  0.38227500  0.70804100  1
  C  246  1  0.94535600  0.38376100  0.71278100  1
  C  247  1  0.95115800  0.39711500  0.72497000  1
  C  248  1  0.93834600  0.40891700  0.73255700  1
  C  261  1  0.12671700  0.61436400  0.73611100  1
  C  262  1  0.12526000  0.59583200  0.73192800  1
  C  263  1  0.13705700  0.58302900  0.73954300  1
  C  264  1  0.15040600  0.58885100  0.75172900  1
  C  265  1  0.15190000  0.60719900  0.75642500  1
  C  266  1  0.14023200  0.62000300  0.74840200  1
  C  269  1  0.11428700  0.62675700  0.72825200  1
  C  270  1  0.11987200  0.64026100  0.71592600  1
  C  271  1  0.10703000  0.65193300  0.70795300  1
  C  272  1  0.08871000  0.65044600  0.71274600  1
  C  273  1  0.08294100  0.63708800  0.72494300  1
  C  274  1  0.09577300  0.62529500  0.73251000  1
  C  287  1  0.90745800  0.61437700  0.22835200  1
  C  288  1  0.90891100  0.59584600  0.23253900  1
  C  289  1  0.89712500  0.58304200  0.22491200  1
  C  290  1  0.88378500  0.58886200  0.21271700  1
  C  291  1  0.88228600  0.60720900  0.20802800  1
  C  292  1  0.89394300  0.62001800  0.21606000  1
  C  295  1  0.91987800  0.62677100  0.23622100  1
  C  296  1  0.91428400  0.64028000  0.24853900  1
  C  297  1  0.92712300  0.65194300  0.25652500  1
  C  298  1  0.94544900  0.65044700  0.25175900  1
  C  299  1  0.95122600  0.63709300  0.23956100  1
  C  300  1  0.93839700  0.62530700  0.23197900  1
  C  313  1  0.12674200  0.26317800  0.57950500  1
  C  314  1  0.12529300  0.26739400  0.56098000  1
  C  315  1  0.13708400  0.25978800  0.54816700  1
  C  316  1  0.15043000  0.24759300  0.55397200  1
  C  317  1  0.15192000  0.24286800  0.57231100  1
  C  318  1  0.14025200  0.25087400  0.58512700  1
  C  321  1  0.11432700  0.27104400  0.59190700  1
  C  322  1  0.11993700  0.28335600  0.60541500  1
  C  323  1  0.10710900  0.29136100  0.61707400  1
  C  324  1  0.08877400  0.28662500  0.61557400  1
  C  325  1  0.08298300  0.27442900  0.60222400  1
  C  326  1  0.09580300  0.26683000  0.59043800  1
  C  339  1  0.90749800  0.77095700  0.57949300  1
  C  340  1  0.90895600  0.76677900  0.56095800  1
  C  341  1  0.89716000  0.77440000  0.54815900  1
  C  342  1  0.88381300  0.78658600  0.55398400  1
  C  343  1  0.88232000  0.79127600  0.57233100  1
  C  344  1  0.89398400  0.78324600  0.58513500  1
  C  347  1  0.91992400  0.76309000  0.59188500  1
  C  348  1  0.91433100  0.75076900  0.60539300  1
  C  349  1  0.92716900  0.74279300  0.61706400  1
  C  350  1  0.94549200  0.74757500  0.61557800  1
  C  351  1  0.95126800  0.75976600  0.60221700  1
  C  352  1  0.93844100  0.76733400  0.59042100  1
  C  365  1  0.12670500  0.77114000  0.38511600  1
  C  366  1  0.12526000  0.76693800  0.40364400  1
  C  367  1  0.13705400  0.77455600  0.41644500  1
  C  368  1  0.15038600  0.78676200  0.41062800  1
  C  369  1  0.15186900  0.79146600  0.39228300  1
  C  370  1  0.14020900  0.78344000  0.37947700  1
  C  373  1  0.11435500  0.76319000  0.37271200  1
  C  374  1  0.12007600  0.75089200  0.35924200  1
  C  375  1  0.10733000  0.74276300  0.34759800  1
  C  376  1  0.08895300  0.74737400  0.34904100  1
  C  377  1  0.08305600  0.75960800  0.36231500  1
  C  378  1  0.09580800  0.76732000  0.37410600  1
  C  391  1  0.90742900  0.26313500  0.38501400  1
  C  392  1  0.90888300  0.26732000  0.40354400  1
  C  393  1  0.89710200  0.25968100  0.41634900  1
  C  394  1  0.88377000  0.24747800  0.41052700  1
  C  395  1  0.88227600  0.24279000  0.39217900  1
  C  396  1  0.89392700  0.25083200  0.37937200  1
  C  399  1  0.91982300  0.27103600  0.37261600  1
  C  400  1  0.91418400  0.28334200  0.35911700  1
  C  401  1  0.92699000  0.29136500  0.34745200  1
  C  402  1  0.94533300  0.28665200  0.34892600  1
  C  403  1  0.95115100  0.27444600  0.36225500  1
  C  404  1  0.93835100  0.26682600  0.37405100  1
  C  417  1  0.26318900  0.41980900  0.87254800  1
  C  418  1  0.26739400  0.43833500  0.87401200  1
  C  419  1  0.25978200  0.45115100  0.86222800  1
  C  420  1  0.24759100  0.44535000  0.84887700  1
  C  421  1  0.24287100  0.42701000  0.84737600  1
  C  422  1  0.25088300  0.41419000  0.85903700  1
  C  425  1  0.27104400  0.40740300  0.88496900  1
  C  426  1  0.28336900  0.39390100  0.87937600  1
  C  427  1  0.29135500  0.38223400  0.89221300  1
  C  428  1  0.28658100  0.38372600  0.91053900  1
  C  429  1  0.27438300  0.39708000  0.91631500  1
  C  430  1  0.26680500  0.40887000  0.90348800  1
  C  443  1  0.77106400  0.41991100  0.09184700  1
  C  444  1  0.76686000  0.43843900  0.09039700  1
  C  445  1  0.77446700  0.45124400  0.10219400  1
  C  446  1  0.78666500  0.44543200  0.11553400  1
  C  447  1  0.79138000  0.42708800  0.11701900  1
  C  448  1  0.78336300  0.41427900  0.10535500  1
  C  451  1  0.76316700  0.40750800  0.07945400  1
  C  452  1  0.75087600  0.39399900  0.08510500  1
  C  453  1  0.74283600  0.38234100  0.07230700  1
  C  454  1  0.74752000  0.38382500  0.05395500  1
  C  455  1  0.75971900  0.39715800  0.04812500  1
  C  456  1  0.76734900  0.40895300  0.06092100  1
  C  469  1  0.77102200  0.61433300  0.87260000  1
  C  470  1  0.76681800  0.59580700  0.87405600  1
  C  471  1  0.77441800  0.58299700  0.86225800  1
  C  472  1  0.78660600  0.58880600  0.84890600  1
  C  473  1  0.79132600  0.60714500  0.84741500  1
  C  474  1  0.78332200  0.61995800  0.85908700  1
  C  477  1  0.76315100  0.62673600  0.88501100  1
  C  478  1  0.75085100  0.64025200  0.87939100  1
  C  479  1  0.74284500  0.65191600  0.89221100  1
  C  480  1  0.74756700  0.65041600  0.91055100  1
  C  481  1  0.75975500  0.63706300  0.91635100  1
  C  482  1  0.76735900  0.62527300  0.90353700  1
  C  495  1  0.26322000  0.61435700  0.09187600  1
  C  496  1  0.26743000  0.59583100  0.09041300  1
  C  497  1  0.25982700  0.58301500  0.10220000  1
  C  498  1  0.24763400  0.58881400  0.11555000  1
  C  499  1  0.24291100  0.60715300  0.11705100  1
  C  500  1  0.25091800  0.61997500  0.10539000  1
  C  503  1  0.27106800  0.62676500  0.07945400  1
  C  504  1  0.28338100  0.64028000  0.08504700  1
  C  505  1  0.29135300  0.65195300  0.07220800  1
  C  506  1  0.28657400  0.65046200  0.05388400  1
  C  507  1  0.27438400  0.63709800  0.04811000  1
  C  508  1  0.26681800  0.62530300  0.06093900  1
  C  521  1  0.41994500  0.12683500  0.73628900  1
  C  522  1  0.43844800  0.12536400  0.73199000  1
  C  523  1  0.45129900  0.13715000  0.73953000  1
  C  524  1  0.44556600  0.15051100  0.75174000  1
  C  525  1  0.42726200  0.15199400  0.75659600  1
  C  526  1  0.41439600  0.14032800  0.74864800  1
  C  529  1  0.40749400  0.11446500  0.72842800  1
  C  530  1  0.39398500  0.12013900  0.71614900  1
  C  531  1  0.38232800  0.10735700  0.70808100  1
  C  532  1  0.38381400  0.08899700  0.71273200  1
  C  533  1  0.39714000  0.08314300  0.72492600  1
  C  534  1  0.40893600  0.09592400  0.73258000  1
  C  547  1  0.41978600  0.90749000  0.22834300  1
  C  548  1  0.43831600  0.90894000  0.23253600  1
  C  549  1  0.45111800  0.89713300  0.22493400  1
  C  550  1  0.44529600  0.88378000  0.21275200  1
  C  551  1  0.42695100  0.88229200  0.20804700  1
  C  552  1  0.41414600  0.89396800  0.21605900  1
  C  555  1  0.40739700  0.91993600  0.23618600  1
  C  556  1  0.39389800  0.91437500  0.24853000  1
  C  557  1  0.38223300  0.92723600  0.25649000  1
  C  558  1  0.38372400  0.94554600  0.25165900  1
  C  559  1  0.39708800  0.95129100  0.23945900  1
  C  560  1  0.40887700  0.93844500  0.23191200  1
  C  573  1  0.61424700  0.12677800  0.22823900  1
  C  574  1  0.59573100  0.12530300  0.23248900  1
  C  575  1  0.58289600  0.13709300  0.22492400  1
  C  576  1  0.58866000  0.15045600  0.21273100  1
  C  577  1  0.60698100  0.15195000  0.20793900  1
  C  578  1  0.61982700  0.14028300  0.21591000  1
  C  581  1  0.62668100  0.11439600  0.23610600  1
  C  582  1  0.64019400  0.12005400  0.24839000  1
  C  583  1  0.65186300  0.10726300  0.25642700  1
  C  584  1  0.65038100  0.08891000  0.25174700  1
  C  585  1  0.63704900  0.08307200  0.23955200  1
  C  586  1  0.62524800  0.09586300  0.23192300  1
  C  599  1  0.61425100  0.90746700  0.73623200  1
  C  600  1  0.59572500  0.90892300  0.73203100  1
  C  601  1  0.58291500  0.89714100  0.73965800  1
  C  602  1  0.58872600  0.88380600  0.75186200  1
  C  603  1  0.60707100  0.88231300  0.75656400  1
  C  604  1  0.61988500  0.89396400  0.74853500  1
  C  607  1  0.62665800  0.91984100  0.72831500  1
  C  608  1  0.64015200  0.91416200  0.71602200  1
  C  609  1  0.65180700  0.92694000  0.70795300  1
  C  610  1  0.65034200  0.94530100  0.71261300  1
  C  611  1  0.63703600  0.95115500  0.72483100  1
  C  612  1  0.62524000  0.93837700  0.73248800  1
  C  625  1  0.77147500  0.90932600  0.57785900  1
  C  626  1  0.76771900  0.91082800  0.55927700  1
  C  627  1  0.77608500  0.89953500  0.54660700  1
  C  628  1  0.78920800  0.88707300  0.55251800  1
  C  629  1  0.79348700  0.88540500  0.57100500  1
  C  630  1  0.78425200  0.89637600  0.58370200  1
  C  633  1  0.76289400  0.92148400  0.59001000  1
  C  634  1  0.75006300  0.91564900  0.60291100  1
  C  635  1  0.74080800  0.92834900  0.61385800  1
  C  636  1  0.74509100  0.94683600  0.61219100  1
  C  637  1  0.75826500  0.95274200  0.59977900  1
  C  638  1  0.76665900  0.94006400  0.58851400  1
  C  651  1  0.26283800  0.12491500  0.57782200  1
  C  652  1  0.26658200  0.12340900  0.55923800  1
  C  653  1  0.25821400  0.13470100  0.54656400  1
  C  654  1  0.24507400  0.14714300  0.55248300  1
  C  655  1  0.24080000  0.14881200  0.57097000  1
  C  656  1  0.25004700  0.13785000  0.58366700  1
  C  659  1  0.27142000  0.11275200  0.58997600  1
  C  660  1  0.28421500  0.11858700  0.60291400  1
  C  661  1  0.29345400  0.10588500  0.61387600  1
  C  662  1  0.28917500  0.08739900  0.61219600  1
  C  663  1  0.27603200  0.08149200  0.59975100  1
  C  664  1  0.26765900  0.09417200  0.58847200  1
  C  677  1  0.26293800  0.90930700  0.38658900  1
  C  678  1  0.26669900  0.91082600  0.40516900  1
  C  679  1  0.25833000  0.89955300  0.41785900  1
  C  680  1  0.24516700  0.88712500  0.41196300  1
  C  681  1  0.24087700  0.88544500  0.39348100  1
  C  682  1  0.25012900  0.89637900  0.38076700  1
  C  685  1  0.27150400  0.92146100  0.37441700  1
  C  686  1  0.28423500  0.91561300  0.36142300  1
  C  687  1  0.29345100  0.92831200  0.35043800  1
  C  688  1  0.28917200  0.94679700  0.35209900  1
  C  689  1  0.27608700  0.95271100  0.36460000  1
  C  690  1  0.26776100  0.94004400  0.37592800  1
  C  703  1  0.77138100  0.12480100  0.38661300  1
  C  704  1  0.76762200  0.12330800  0.40519500  1
  C  705  1  0.77599000  0.13460100  0.41786600  1
  C  706  1  0.78912700  0.14704800  0.41195000  1
  C  707  1  0.79341100  0.14870600  0.39346400  1
  C  708  1  0.78416500  0.13774400  0.38076700  1
  C  711  1  0.76280200  0.11263800  0.37445800  1
  C  712  1  0.75001400  0.11847300  0.36151400  1
  C  713  1  0.74077700  0.10576900  0.35055500  1
  C  714  1  0.74506400  0.08728400  0.35222600  1
  C  715  1  0.75820200  0.08137800  0.36467500  1
  C  716  1  0.76656500  0.09405700  0.37596500  1
  C  729  1  0.61268200  0.77134700  0.87444600  1
  C  730  1  0.59410000  0.76759000  0.87594400  1
  C  731  1  0.58142500  0.77598200  0.86467300  1
  C  732  1  0.58733700  0.78913500  0.85224300  1
  C  733  1  0.60582300  0.79341500  0.85057900  1
  C  734  1  0.61852200  0.78415500  0.86152500  1
  C  737  1  0.62484200  0.76276500  0.88659800  1
  C  738  1  0.63778800  0.74998300  0.88075300  1
  C  739  1  0.64875900  0.74074800  0.89345000  1
  C  740  1  0.64709200  0.74502500  0.91193700  1
  C  741  1  0.63463600  0.75815500  0.91784900  1
  C  742  1  0.62333700  0.76651500  0.90517900  1
  C  755  1  0.61271800  0.26276600  0.09004200  1
  C  756  1  0.59413500  0.26650600  0.08852000  1
  C  757  1  0.58145700  0.25816800  0.09983000  1
  C  758  1  0.58736800  0.24505900  0.11230800  1
  C  759  1  0.60585400  0.24078400  0.11398400  1
  C  760  1  0.61855700  0.25000900  0.10301400  1
  C  763  1  0.62487500  0.27133700  0.07787800  1
  C  764  1  0.63779900  0.28414600  0.08371100  1
  C  765  1  0.64875300  0.29339200  0.07100800  1
  C  766  1  0.64708000  0.28910700  0.05252300  1
  C  767  1  0.63464900  0.27595000  0.04661800  1
  C  768  1  0.62337700  0.26757000  0.05929900  1
  C  781  1  0.42142300  0.26282700  0.87439500  1
  C  782  1  0.44001100  0.26656000  0.87590800  1
  C  783  1  0.45268000  0.25822600  0.86458600  1
  C  784  1  0.44676300  0.24511800  0.85211000  1
  C  785  1  0.42827700  0.24084000  0.85045300  1
  C  786  1  0.41557800  0.25007400  0.86142100  1
  C  789  1  0.40926900  0.27139500  0.88657000  1
  C  790  1  0.39629000  0.28415200  0.88074300  1
  C  791  1  0.38534200  0.29339100  0.89345400  1
  C  792  1  0.38703400  0.28912100  0.91194000  1
  C  793  1  0.39951800  0.27601200  0.91784200  1
  C  794  1  0.41080700  0.26765900  0.90515500  1
  C  807  1  0.42146800  0.77138200  0.09005100  1
  C  808  1  0.44005100  0.76763600  0.08852800  1
  C  809  1  0.45273800  0.77600600  0.09980300  1
  C  810  1  0.44683300  0.78913700  0.11226200  1
  C  811  1  0.42834700  0.79341300  0.11394800  1
  C  812  1  0.41563800  0.78416200  0.10300600  1
  C  815  1  0.40929800  0.76280100  0.07790200  1
  C  816  1  0.39634000  0.75003200  0.08375100  1
  C  817  1  0.38536900  0.74079100  0.07105800  1
  C  818  1  0.38702700  0.74506700  0.05257000  1
  C  819  1  0.39948800  0.75818700  0.04665000  1
  C  820  1  0.41079600  0.76654500  0.05931600  1
  C  833  1  0.90928700  0.61276500  0.73652000  1
  C  834  1  0.91080900  0.59418300  0.73276700  1
  C  835  1  0.89953900  0.58149800  0.74114200  1
  C  836  1  0.88707800  0.58739600  0.75427300  1
  C  837  1  0.88539200  0.60588100  0.75855100  1
  C  838  1  0.89633700  0.61859200  0.74930700  1
  C  841  1  0.92144100  0.62493300  0.72794800  1
  C  842  1  0.91560200  0.63788500  0.71517000  1
  C  843  1  0.92830400  0.64884700  0.70593100  1
  C  844  1  0.94679000  0.64717600  0.71020600  1
  C  845  1  0.95269900  0.63471400  0.72333000  1
  C  846  1  0.94002500  0.62341900  0.73169100  1
  C  859  1  0.12491100  0.61264100  0.22789800  1
  C  860  1  0.12342300  0.59405800  0.23164600  1
  C  861  1  0.13473700  0.58139800  0.22329000  1
  C  862  1  0.14718200  0.58732600  0.21015700  1
  C  863  1  0.14883200  0.60581500  0.20588000  1
  C  864  1  0.13785200  0.61850100  0.21511900  1
  C  867  1  0.11274200  0.62478200  0.23648300  1
  C  868  1  0.11857300  0.63768900  0.24931000  1
  C  869  1  0.10586700  0.64863400  0.25855800  1
  C  870  1  0.08738200  0.64696000  0.25427100  1
  C  871  1  0.08148200  0.63454700  0.24109700  1
  C  872  1  0.09416500  0.62328600  0.23270500  1
  C  885  1  0.90930400  0.42149800  0.22797700  1
  C  886  1  0.91081800  0.44008100  0.23172600  1
  C  887  1  0.89951900  0.45275800  0.22337200  1
  C  888  1  0.88707100  0.44684900  0.21023500  1
  C  889  1  0.88540100  0.42836300  0.20595300  1
  C  890  1  0.89635600  0.41566100  0.21519400  1
  C  893  1  0.92146300  0.40933700  0.23655000  1
  C  894  1  0.91562100  0.39638300  0.24932500  1
  C  895  1  0.92831900  0.38541100  0.25855600  1
  C  896  1  0.94680300  0.38706900  0.25426700  1
  C  897  1  0.95271400  0.39952600  0.24114000  1
  C  898  1  0.94004400  0.41083300  0.23278900  1
  C  911  1  0.12486800  0.42147200  0.73653500  1
  C  912  1  0.12335900  0.44005700  0.73278700  1
  C  913  1  0.13465100  0.45273300  0.74114900  1
  C  914  1  0.14711200  0.44682100  0.75427500  1
  C  915  1  0.14878300  0.42833400  0.75855400  1
  C  916  1  0.13782600  0.41563300  0.74930700  1
  C  919  1  0.11270500  0.40931400  0.72795900  1
  C  920  1  0.11853900  0.39635200  0.71518700  1
  C  921  1  0.10583400  0.38539500  0.70595000  1
  C  922  1  0.08734800  0.38707300  0.71022700  1
  C  923  1  0.08144200  0.39953700  0.72335000  1
  C  924  1  0.09412200  0.41082900  0.73170800  1
  C  937  1  0.90931900  0.77141200  0.38659400  1
  C  938  1  0.91084500  0.76768100  0.40518100  1
  C  939  1  0.89954600  0.77603400  0.41785900  1
  C  940  1  0.88705400  0.78913000  0.41194400  1
  C  941  1  0.88537300  0.79339400  0.39345700  1
  C  942  1  0.89633700  0.78416000  0.38075500  1
  C  945  1  0.92147600  0.76283700  0.37442800  1
  C  946  1  0.91563400  0.75005100  0.36148500  1
  C  947  1  0.92833100  0.74081200  0.35051800  1
  C  948  1  0.94681700  0.74509400  0.35217600  1
  C  949  1  0.95273300  0.75822600  0.36462600  1
  C  950  1  0.94006200  0.76658700  0.37592800  1
  C  963  1  0.12481900  0.26278500  0.38665900  1
  C  964  1  0.12332500  0.26654900  0.40523800  1
  C  965  1  0.13462200  0.25818900  0.41791000  1
  C  966  1  0.14705400  0.24503700  0.41199900  1
  C  967  1  0.14871700  0.24075000  0.39351300  1
  C  968  1  0.13774700  0.24998500  0.38081700  1
  C  971  1  0.11266200  0.27136600  0.37450400  1
  C  972  1  0.11850700  0.28416900  0.36158000  1
  C  973  1  0.10581200  0.29341500  0.35061900  1
  C  974  1  0.08732500  0.28913400  0.35228000  1
  C  975  1  0.08141000  0.27598300  0.36471100  1
  C  976  1  0.09408100  0.26760500  0.37599600  1
  C  989  1  0.90929300  0.26287000  0.57788800  1
  C  990  1  0.91079100  0.26662200  0.55930400  1
  C  991  1  0.89949800  0.25825400  0.54663200  1
  C  992  1  0.88707000  0.24510100  0.55254500  1
  C  993  1  0.88541300  0.24081300  0.57103100  1
  C  994  1  0.89636400  0.25006800  0.58372900  1
  C  997  1  0.92146000  0.27144600  0.59004300  1
  C  998  1  0.91562500  0.28420600  0.60301500  1
  C  999  1  0.92833100  0.29343800  0.61397800  1
  C  1000  1  0.94681500  0.28916000  0.61229800  1
  C  1001  1  0.95272200  0.27604900  0.59982100  1
  C  1002  1  0.94004300  0.26770000  0.58852200  1
  C  1015  1  0.12494500  0.77138600  0.57794600  1
  C  1016  1  0.12343700  0.76763000  0.55936400  1
  C  1017  1  0.13471800  0.77600000  0.54668500  1
  C  1018  1  0.14716900  0.78913800  0.55259100  1
  C  1019  1  0.14883900  0.79342300  0.57107500  1
  C  1020  1  0.13789200  0.78417300  0.58378100  1
  C  1023  1  0.11278500  0.76281000  0.59010600  1
  C  1024  1  0.11862300  0.75004400  0.60307000  1
  C  1025  1  0.10591700  0.74079500  0.61402000  1
  C  1026  1  0.08743000  0.74506300  0.61233700  1
  C  1027  1  0.08152200  0.75817900  0.59986700  1
  C  1028  1  0.09420000  0.76654500  0.58858000  1
  C  1041  1  0.77136100  0.61277800  0.09002900  1
  C  1042  1  0.76760600  0.59419600  0.08852500  1
  C  1043  1  0.77599600  0.58151800  0.09979400  1
  C  1044  1  0.78914300  0.58742600  0.11223200  1
  C  1045  1  0.79342100  0.60591300  0.11390600  1
  C  1046  1  0.78416500  0.61861400  0.10295800  1
  C  1049  1  0.76278100  0.62493800  0.07787300  1
  C  1050  1  0.75001200  0.63789700  0.08371500  1
  C  1051  1  0.74077000  0.64885900  0.07101500  1
  C  1052  1  0.74504100  0.64718900  0.05252800  1
  C  1053  1  0.75815600  0.63471900  0.04661400  1
  C  1054  1  0.76651400  0.62342000  0.05928700  1
  C  1067  1  0.26277800  0.61267800  0.87443900  1
  C  1068  1  0.26653300  0.59409600  0.87594700  1
  C  1069  1  0.25817900  0.58142000  0.86465000  1
  C  1070  1  0.24504300  0.58732900  0.85220000  1
  C  1071  1  0.24076000  0.60581500  0.85052800  1
  C  1072  1  0.24999300  0.61851500  0.86149400  1
  C  1075  1  0.27135600  0.62483300  0.88659900  1
  C  1076  1  0.28415300  0.63776500  0.88076100  1
  C  1077  1  0.29339900  0.64872200  0.89346200  1
  C  1078  1  0.28912100  0.64705100  0.91194800  1
  C  1079  1  0.27597400  0.63461200  0.91785700  1
  C  1080  1  0.26759700  0.62333100  0.90518100  1
  C  1093  1  0.26295300  0.42146400  0.08995800  1
  C  1094  1  0.26672400  0.44004300  0.08846300  1
  C  1095  1  0.25834000  0.45272500  0.09973400  1
  C  1096  1  0.24515600  0.44682100  0.11213500  1
  C  1097  1  0.24086000  0.42833800  0.11379600  1
  C  1098  1  0.25012000  0.41563300  0.10285900  1
  C  1101  1  0.27152500  0.40930200  0.07779900  1
  C  1102  1  0.28427000  0.39631700  0.08364200  1
  C  1103  1  0.29348800  0.38533700  0.07094000  1
  C  1104  1  0.28920400  0.38700600  0.05245500  1
  C  1105  1  0.27610700  0.39949600  0.04654600  1
  C  1106  1  0.26777600  0.41081500  0.05921800  1
  C  1119  1  0.77144400  0.42147500  0.87441100  1
  C  1120  1  0.76770600  0.44005900  0.87592900  1
  C  1121  1  0.77604600  0.45273300  0.86461800  1
  C  1122  1  0.78914100  0.44682000  0.85212700  1
  C  1123  1  0.79341500  0.42833400  0.85045400  1
  C  1124  1  0.78418600  0.41563200  0.86142500  1
  C  1127  1  0.76287800  0.40931600  0.88657900  1
  C  1128  1  0.75007900  0.39637800  0.88075300  1
  C  1129  1  0.74084100  0.38542700  0.89346500  1
  C  1130  1  0.74513400  0.38710300  0.91194800  1
  C  1131  1  0.75828200  0.39954500  0.91784400  1
  C  1132  1  0.76664700  0.41082500  0.90515800  1
  C  1145  1  0.61266400  0.90935600  0.22791500  1
  C  1146  1  0.59408400  0.91086400  0.23167500  1
  C  1147  1  0.58140400  0.89957600  0.22331300  1
  C  1148  1  0.58731000  0.88711400  0.21018500  1
  C  1149  1  0.60579500  0.88543900  0.20590000  1
  C  1150  1  0.61849800  0.89640600  0.21513400  1
  C  1153  1  0.62482900  0.92151400  0.23649100  1
  C  1154  1  0.63775500  0.91567400  0.24929600  1
  C  1155  1  0.64872200  0.92837100  0.25853700  1
  C  1156  1  0.64705700  0.94685700  0.25425200  1
  C  1157  1  0.63462300  0.95276900  0.24110200  1
  C  1158  1  0.62333400  0.94009500  0.23273100  1
  C  1171  1  0.61277300  0.12483600  0.73653500  1
  C  1172  1  0.59419300  0.12333500  0.73277800  1
  C  1173  1  0.58151900  0.13462400  0.74114500  1
  C  1174  1  0.58742800  0.14705800  0.75429600  1
  C  1175  1  0.60591400  0.14872700  0.75857700  1
  C  1176  1  0.61861400  0.13776600  0.74933500  1
  C  1179  1  0.62492600  0.11267800  0.72795200  1
  C  1180  1  0.63785500  0.11852000  0.71515400  1
  C  1181  1  0.64880900  0.10582100  0.70590300  1
  C  1182  1  0.64714300  0.08733400  0.71018200  1
  C  1183  1  0.63470600  0.08142200  0.72332900  1
  C  1184  1  0.62342500  0.09409700  0.73170800  1
  C  1197  1  0.42140000  0.90940800  0.73646100  1
  C  1198  1  0.43998000  0.91089200  0.73268800  1
  C  1199  1  0.45265400  0.89959300  0.74104400  1
  C  1200  1  0.44674600  0.88717200  0.75420900  1
  C  1201  1  0.42826400  0.88552200  0.75851100  1
  C  1202  1  0.41556300  0.89648500  0.74927200  1
  C  1205  1  0.40924400  0.92157300  0.72788800  1
  C  1206  1  0.39626500  0.91573000  0.71514000  1
  C  1207  1  0.38530200  0.92843200  0.70590300  1
  C  1208  1  0.38697900  0.94691900  0.71017100  1
  C  1209  1  0.39946400  0.95283300  0.72327100  1
  C  1210  1  0.41077000  0.94015800  0.73162000  1
  C  1223  1  0.42140100  0.12498000  0.22790200  1
  C  1224  1  0.43998500  0.12345400  0.23163800  1
  C  1225  1  0.45266400  0.13475300  0.22329200  1
  C  1226  1  0.44675700  0.14724500  0.21019400  1
  C  1227  1  0.42827000  0.14892200  0.20592000  1
  C  1228  1  0.41556300  0.13796500  0.21515700  1
  C  1231  1  0.40924200  0.11281400  0.23647100  1
  C  1232  1  0.39628800  0.11864100  0.24925200  1
  C  1233  1  0.38535200  0.10592700  0.25850300  1
  C  1234  1  0.38703900  0.08744200  0.25422900  1
  C  1235  1  0.39949900  0.08154400  0.24109800  1
  C  1236  1  0.41077200  0.09423100  0.23272500  1
  C  1249  1  0.17622700  0.20326800  0.37757000  1
  C  1251  1  0.20228700  0.19193300  0.39309600  1
  C  1252  1  0.20270400  0.17660600  0.38191000  1
  C  1254  1  0.17690300  0.18792100  0.36616500  1
  C  1256  1  0.16560000  0.18459900  0.35322800  1
  C  1258  1  0.16283100  0.21638600  0.37677200  1
  C  1260  1  0.21410000  0.16223200  0.38470500  1
  C  1262  1  0.85826600  0.83105900  0.37733800  1
  C  1264  1  0.83171000  0.84221300  0.39214600  1
  C  1265  1  0.83151000  0.85759400  0.38101000  1
  C  1267  1  0.85783900  0.84644900  0.36598200  1
  C  1269  1  0.86946900  0.84988000  0.35336700  1
  C  1271  1  0.87176200  0.81802100  0.37687500  1
  C  1273  1  0.81988200  0.87191800  0.38331000  1
  C  1275  1  0.85805800  0.20325100  0.58703800  1
  C  1277  1  0.83181000  0.19198400  0.57177600  1
  C  1278  1  0.83148900  0.17662200  0.58292600  1
  C  1280  1  0.85747800  0.18788200  0.59842000  1
  C  1282  1  0.86891100  0.18451300  0.61123200  1
  C  1284  1  0.87149500  0.21633600  0.58771100  1
  C  1286  1  0.82001500  0.16225900  0.58031000  1
  C  1288  1  0.17613200  0.83102400  0.58708100  1
  C  1290  1  0.20247100  0.84225100  0.57194500  1
  C  1291  1  0.20276100  0.85762000  0.58308900  1
  C  1293  1  0.17666100  0.84640900  0.59844100  1
  C  1295  1  0.16516800  0.84980500  0.61119200  1
  C  1297  1  0.16269300  0.81793800  0.58772400  1
  C  1299  1  0.21428700  0.87196700  0.58055800  1
  C  1301  1  0.41213300  0.17593600  0.16820200  1
  C  1303  1  0.42675600  0.20262600  0.15712300  1
  C  1304  1  0.41567600  0.20275200  0.14169700  1
  C  1306  1  0.40082900  0.17628300  0.15277000  1
  C  1308  1  0.38833200  0.16454400  0.14927900  1
  C  1310  1  0.41173600  0.16242200  0.18122300  1
  C  1312  1  0.41791300  0.21442400  0.12739000  1
  C  1314  1  0.41240800  0.85794000  0.79597300  1
  C  1316  1  0.42810400  0.83198600  0.80732400  1
  C  1317  1  0.41695200  0.83154300  0.82267300  1
  C  1319  1  0.40102400  0.85721600  0.81133400  1
  C  1321  1  0.38802000  0.86844400  0.81465100  1
  C  1323  1  0.41152200  0.87131800  0.78284300  1
  C  1325  1  0.41987500  0.82020800  0.83706100  1
  C  1327  1  0.62176100  0.85799900  0.16838200  1
  C  1329  1  0.60639600  0.83181800  0.15709600  1
  C  1330  1  0.61756200  0.83145300  0.14175000  1
  C  1332  1  0.63314100  0.85738400  0.15301200  1
  C  1334  1  0.64601500  0.86875300  0.14966700  1
  C  1336  1  0.62249500  0.87141700  0.18148600  1
  C  1338  1  0.61485600  0.82001300  0.12738400  1
  C  1340  1  0.62186100  0.17618900  0.79608800  1
  C  1342  1  0.60635600  0.20225200  0.80745100  1
  C  1343  1  0.61754500  0.20264400  0.82277800  1
  C  1345  1  0.63329100  0.17686400  0.81141800  1
  C  1347  1  0.64625900  0.16558500  0.81469800  1
  C  1349  1  0.62264300  0.16279800  0.78296400  1
  C  1351  1  0.61482700  0.21407700  0.83714300  1
  C  1353  1  0.20341900  0.41252900  0.14143200  1
  C  1355  1  0.19199500  0.42841300  0.16723500  1
  C  1356  1  0.17668900  0.41721100  0.16775900  1
  C  1358  1  0.18808700  0.40110900  0.14222900  1
  C  1360  1  0.18482300  0.38800600  0.13110200  1
  C  1362  1  0.21658200  0.41156400  0.12809300  1
  C  1364  1  0.16229800  0.42022300  0.17905300  1
  C  1366  1  0.83106700  0.41221900  0.82332200  1
  C  1368  1  0.84223300  0.42706000  0.79678900  1
  C  1369  1  0.85760900  0.41592000  0.79657600  1
  C  1371  1  0.84645600  0.40086000  0.82288300  1
  C  1373  1  0.84988000  0.38822800  0.83449800  1
  C  1375  1  0.81803700  0.41175100  0.83682400  1
  C  1377  1  0.87193800  0.41825000  0.78496500  1
  C  1379  1  0.20321600  0.62182800  0.82314700  1
  C  1381  1  0.19196000  0.60656800  0.79689200  1
  C  1382  1  0.17660200  0.61772100  0.79656700  1
  C  1384  1  0.18785100  0.63321400  0.82255800  1
  C  1386  1  0.18448100  0.64602700  0.83398800  1
  C  1388  1  0.21629000  0.62249200  0.83659600  1
  C  1390  1  0.16223800  0.61507700  0.78510200  1
  C  1392  1  0.83094700  0.62187400  0.14134400  1
  C  1394  1  0.84224100  0.60649300  0.16750900  1
  C  1395  1  0.85758700  0.61765700  0.16787600  1
  C  1397  1  0.84631600  0.63325500  0.14195900  1
  C  1399  1  0.84966500  0.64612200  0.13058500  1
  C  1401  1  0.81783400  0.62262500  0.12793900  1
  C  1403  1  0.87195100  0.61496900  0.17932500  1
  C  1405  1  0.20322700  0.17614000  0.58699800  1
  C  1407  1  0.19198000  0.20243500  0.57180100  1
  C  1408  1  0.17660000  0.20272200  0.58292700  1
  C  1410  1  0.18783200  0.17667400  0.59834600  1
  C  1412  1  0.18445000  0.16520800  0.61112400  1
  C  1414  1  0.21631600  0.16270600  0.58765300  1
  C  1416  1  0.16224400  0.21420900  0.58031400  1
  C  1418  1  0.83099600  0.85797700  0.58701300  1
  C  1420  1  0.84225300  0.83174200  0.57172100  1
  C  1421  1  0.85761500  0.83141000  0.58286700  1
  C  1423  1  0.84636200  0.85737600  0.59839700  1
  C  1425  1  0.84973200  0.86879200  0.61122200  1
  C  1427  1  0.81790900  0.87141200  0.58770900  1
  C  1429  1  0.87198100  0.81995200  0.58020400  1
  C  1431  1  0.20333300  0.85801200  0.37760500  1
  C  1433  1  0.19196500  0.83198700  0.39316800  1
  C  1434  1  0.17662900  0.83158500  0.38199500  1
  C  1436  1  0.18797000  0.85735500  0.36621700  1
  C  1438  1  0.18467200  0.86862700  0.35324800  1
  C  1440  1  0.21648000  0.87137800  0.37677400  1
  C  1442  1  0.16224700  0.82019400  0.38477600  1
  C  1444  1  0.83092900  0.17614300  0.37749800  1
  C  1446  1  0.84226800  0.20225300  0.39294000  1
  C  1447  1  0.85759900  0.20263200  0.38175300  1
  C  1449  1  0.84626000  0.17680200  0.36606900  1
  C  1451  1  0.84955100  0.16549600  0.35312500  1
  C  1453  1  0.81781900  0.16273400  0.37674900  1
  C  1455  1  0.87195900  0.21408500  0.38443300  1
  C  1457  1  0.17608000  0.41229000  0.79613700  1
  C  1459  1  0.20244700  0.42738600  0.80735200  1
  C  1460  1  0.20272800  0.41624200  0.82272100  1
  C  1462  1  0.17660300  0.40092600  0.81152000  1
  C  1464  1  0.16508600  0.38820000  0.81492500  1
  C  1466  1  0.16262600  0.41167800  0.78306500  1
  C  1468  1  0.21425300  0.41876900  0.83706900  1
  C  1470  1  0.85801000  0.41240300  0.16841200  1
  C  1472  1  0.83185900  0.42779700  0.15709500  1
  C  1473  1  0.83150400  0.41663400  0.14174800  1
  C  1475  1  0.85739800  0.40101700  0.15304700  1
  C  1477  1  0.86874800  0.38812300  0.14972100  1
  C  1479  1  0.87141900  0.41166700  0.18152400  1
  C  1481  1  0.82007200  0.41932700  0.12737400  1
  C  1483  1  0.85805100  0.62189000  0.79612000  1
  C  1485  1  0.83175400  0.60668800  0.80735800  1
  C  1486  1  0.83145400  0.61782400  0.82273100  1
  C  1488  1  0.85749200  0.63325900  0.81149900  1
  C  1490  1  0.86895500  0.64603700  0.81488600  1
  C  1492  1  0.87150100  0.62253400  0.78304600  1
  C  1494  1  0.81996600  0.61522700  0.83708900  1
  C  1496  1  0.17617100  0.62185600  0.16832700  1
  C  1498  1  0.20244100  0.60663700  0.15705600  1
  C  1499  1  0.20276700  0.61781200  0.14171400  1
  C  1501  1  0.17674000  0.63324900  0.15296800  1
  C  1503  1  0.16530100  0.64605800  0.14961100  1
  C  1505  1  0.16274500  0.62252200  0.18142200  1
  C  1507  1  0.21426500  0.61524100  0.12735900  1
  C  1509  1  0.41212200  0.20310000  0.82348500  1
  C  1511  1  0.42670200  0.19202600  0.79676900  1
  C  1512  1  0.41561600  0.17660400  0.79664900  1
  C  1514  1  0.40081300  0.18767400  0.82314700  1
  C  1516  1  0.38833000  0.18418100  0.83490300  1
  C  1518  1  0.41174500  0.21612200  0.83699900  1
  C  1520  1  0.41778900  0.16230800  0.78494800  1
  C  1522  1  0.41233800  0.83098000  0.14129700  1
  C  1524  1  0.42751100  0.84220100  0.16761800  1
  C  1525  1  0.41638600  0.85758200  0.16790600  1
  C  1527  1  0.40097400  0.84636300  0.14184900  1
  C  1529  1  0.38821100  0.84976000  0.13037200  1
  C  1531  1  0.41168900  0.81790400  0.12784700  1
  C  1533  1  0.41900600  0.87194600  0.17938100  1
  C  1535  1  0.62193800  0.20313000  0.14112900  1
  C  1537  1  0.60703100  0.19193900  0.16761300  1
  C  1538  1  0.61818300  0.17657200  0.16784400  1
  C  1540  1  0.63330600  0.18774900  0.14158800  1
  C  1542  1  0.64597200  0.18434100  0.13000500  1
  C  1544  1  0.62246000  0.21619200  0.12766000  1
  C  1546  1  0.61583300  0.16224300  0.17944700  1
  C  1548  1  0.62179600  0.83095400  0.82317800  1
  C  1550  1  0.60633400  0.84232700  0.79709500  1
  C  1551  1  0.61754600  0.85764000  0.79670800  1
  C  1553  1  0.63324700  0.84626600  0.82251100  1
  C  1555  1  0.64621100  0.84953300  0.83380000  1
  C  1557  1  0.62253900  0.81783700  0.83657800  1
  C  1559  1  0.61488400  0.87200100  0.78525400  1
  C  1561  1  0.67613200  0.70320700  0.87742600  1
  C  1563  1  0.70240500  0.69195300  0.89265000  1
  C  1564  1  0.70271700  0.67658900  0.88150200  1
  C  1566  1  0.67668900  0.68782800  0.86605800  1
  C  1568  1  0.66522800  0.68444400  0.85327600  1
  C  1570  1  0.66270400  0.71630100  0.87675100  1
  C  1572  1  0.71421100  0.66223500  0.88409100  1
  C  1574  1  0.35819400  0.33105000  0.87737900  1
  C  1576  1  0.33168700  0.34221500  0.89226900  1
  C  1577  1  0.33147600  0.35760500  0.88115000  1
  C  1579  1  0.35775200  0.34645400  0.86604100  1
  C  1581  1  0.36935200  0.34988300  0.85339800  1
  C  1583  1  0.37168400  0.31800500  0.87687600  1
  C  1585  1  0.31988900  0.37193800  0.88354400  1
  C  1587  1  0.35813800  0.70318100  0.08713700  1
  C  1589  1  0.33168300  0.69200500  0.07216200  1
  C  1590  1  0.33145200  0.67660900  0.08327400  1
  C  1592  1  0.35766000  0.68778200  0.09848100  1
  C  1594  1  0.36923900  0.68434600  0.11114300  1
  C  1596  1  0.37161100  0.71623500  0.08769300  1
  C  1598  1  0.31988900  0.66226800  0.08083300  1
  C  1600  1  0.67624500  0.33090300  0.08691100  1
  C  1602  1  0.70228000  0.34225500  0.07135400  1
  C  1603  1  0.70269800  0.35758500  0.08253700  1
  C  1605  1  0.67692000  0.34625500  0.09831000  1
  C  1607  1  0.66563600  0.34956600  0.11126700  1
  C  1609  1  0.66286800  0.31776800  0.08773700  1
  C  1611  1  0.71409300  0.37196100  0.07974500  1
  C  1613  1  0.91220700  0.67600200  0.66827100  1
  C  1615  1  0.92711500  0.70248800  0.65708700  1
  C  1616  1  0.91599000  0.70270000  0.64169900  1
  C  1618  1  0.90086300  0.67644400  0.65287500  1
  C  1620  1  0.88821600  0.66484500  0.64945300  1
  C  1622  1  0.91169500  0.66252600  0.68132700  1
  C  1624  1  0.91837200  0.71429200  0.62736700  1
  C  1626  1  0.91234900  0.35803500  0.29610200  1
  C  1628  1  0.92770500  0.33185600  0.30740100  1
  C  1629  1  0.91653900  0.33150500  0.32274700  1
  C  1631  1  0.90095000  0.35741700  0.31145700  1
  C  1633  1  0.88807900  0.36879000  0.31479600  1
  C  1635  1  0.91164000  0.37146600  0.28301100  1
  C  1637  1  0.91921400  0.32006300  0.33711800  1
  C  1639  1  0.12184000  0.35811300  0.66834800  1
  C  1641  1  0.10669000  0.33179000  0.65710500  1
  C  1642  1  0.11783400  0.33150200  0.64173800  1
  C  1644  1  0.13319900  0.35758800  0.65296100  1
  C  1646  1  0.14596900  0.36906200  0.64958200  1
  C  1648  1  0.12248500  0.37154700  0.68144100  1
  C  1650  1  0.11528800  0.31998900  0.62738600  1
  C  1652  1  0.12163800  0.67635300  0.29595900  1
  C  1654  1  0.10556100  0.70200100  0.30746300  1
  C  1655  1  0.11681800  0.70260600  0.32272300  1
  C  1657  1  0.13312900  0.67726200  0.31123400  1
  C  1659  1  0.14637800  0.66628000  0.31440800  1
  C  1661  1  0.12265700  0.66302500  0.28278900  1
  C  1663  1  0.11373600  0.71387300  0.33711300  1
  C  1665  1  0.70335100  0.91249700  0.64145200  1
  C  1667  1  0.69193800  0.92828000  0.66731900  1
  C  1668  1  0.67662800  0.91707800  0.66781000  1
  C  1670  1  0.68801500  0.90107800  0.64220900  1
  C  1672  1  0.68474200  0.88801900  0.63103000  1
  C  1674  1  0.71650900  0.91157700  0.62810500  1
  C  1676  1  0.66224000  0.92001800  0.67913200  1
  C  1678  1  0.33113100  0.91215900  0.32337900  1
  C  1680  1  0.34223100  0.92684100  0.29673000  1
  C  1681  1  0.35762400  0.91571700  0.29655800  1
  C  1683  1  0.34653000  0.90081700  0.32298600  1
  C  1685  1  0.34999300  0.88826800  0.33468000  1
  C  1687  1  0.31811500  0.91175600  0.33690000  1
  C  1689  1  0.37193000  0.91794100  0.28488500  1
  C  1691  1  0.70326900  0.12172100  0.32309100  1
  C  1693  1  0.69197100  0.10627800  0.29696100  1
  C  1694  1  0.67662300  0.11743800  0.29658200  1
  C  1696  1  0.68791300  0.13311700  0.32243600  1
  C  1698  1  0.68457200  0.14601900  0.33377600  1
  C  1700  1  0.71636300  0.12247000  0.33651700  1
  C  1702  1  0.66224700  0.11465700  0.28518200  1
  C  1704  1  0.33093000  0.12180200  0.64141500  1
  C  1706  1  0.34223400  0.10628400  0.66749600  1
  C  1707  1  0.35757700  0.11744600  0.66790800  1
  C  1709  1  0.34629800  0.13318300  0.64208600  1
  C  1711  1  0.34963800  0.14611000  0.63077600  1
  C  1713  1  0.31781300  0.12261800  0.62801900  1
  C  1715  1  0.37194800  0.11462300  0.67930200  1
  C  1717  1  0.70308600  0.67594100  0.08716200  1
  C  1719  1  0.69194500  0.70253400  0.07241100  1
  C  1720  1  0.67655800  0.70271500  0.08354300  1
  C  1722  1  0.68769200  0.67634700  0.09851400  1
  C  1724  1  0.68425100  0.66468200  0.11109300  1
  C  1726  1  0.71611700  0.66243800  0.08759400  1
  C  1728  1  0.66224300  0.71436200  0.08127000  1
  C  1730  1  0.33108200  0.35809700  0.08702100  1
  C  1732  1  0.34223800  0.33161800  0.07207500  1
  C  1733  1  0.35762400  0.33138100  0.08319900  1
  C  1735  1  0.34646600  0.35760500  0.09838500  1
  C  1737  1  0.34989600  0.36917900  0.11105300  1
  C  1739  1  0.31804100  0.37158700  0.08755800  1
  C  1741  1  0.37196100  0.31981800  0.08074600  1
  C  1743  1  0.70329800  0.35798300  0.87759000  1
  C  1745  1  0.69195900  0.33192300  0.89311800  1
  C  1746  1  0.67660900  0.33153100  0.88196200  1
  C  1748  1  0.68792200  0.35733700  0.86622000  1
  C  1750  1  0.68460300  0.36863400  0.85327600  1
  C  1752  1  0.71643900  0.37135700  0.87676600  1
  C  1754  1  0.66223100  0.32013800  0.88475300  1
  C  1756  1  0.33093300  0.67614800  0.87751200  1
  C  1758  1  0.34230900  0.70221100  0.89300700  1
  C  1759  1  0.35762400  0.70260600  0.88180100  1
  C  1761  1  0.34625100  0.67682500  0.86606600  1
  C  1763  1  0.34951900  0.66555000  0.85309100  1
  C  1765  1  0.31781300  0.66275200  0.87674800  1
  C  1767  1  0.37198900  0.71404500  0.88449700  1
  C  1769  1  0.67626200  0.91245200  0.29601200  1
  C  1771  1  0.70230200  0.92801700  0.30734500  1
  C  1772  1  0.70272700  0.91684300  0.32268000  1
  C  1774  1  0.67694800  0.90105900  0.31137000  1
  C  1776  1  0.66565700  0.88811200  0.31469700  1
  C  1778  1  0.66287500  0.91162500  0.28288600  1
  C  1780  1  0.71410500  0.91968500  0.33705600  1
  C  1782  1  0.35817800  0.91229900  0.66825300  1
  C  1784  1  0.33164800  0.92713900  0.65707400  1
  C  1785  1  0.33143300  0.91598400  0.64171000  1
  C  1787  1  0.35773000  0.90092200  0.65287700  1
  C  1789  1  0.36933700  0.88827900  0.64946900  1
  C  1791  1  0.37167600  0.91183600  0.68128900  1
  C  1793  1  0.31982700  0.91831700  0.62737800  1
  C  1795  1  0.35814700  0.12196500  0.29614500  1
  C  1797  1  0.33173200  0.10694000  0.30734500  1
  C  1798  1  0.33149000  0.11806300  0.32273100  1
  C  1800  1  0.35765600  0.13331900  0.31153500  1
  C  1802  1  0.36920600  0.14601200  0.31495200  1
  C  1804  1  0.37161300  0.12253300  0.28308400  1
  C  1806  1  0.31994000  0.11560100  0.33707600  1
  C  1808  1  0.67614000  0.12183000  0.66832700  1
  C  1810  1  0.70234300  0.10653300  0.65700900  1
  C  1811  1  0.70270300  0.11774500  0.64169400  1
  C  1813  1  0.67674500  0.13325800  0.65299400  1
  C  1815  1  0.66535500  0.14612000  0.64967500  1
  C  1817  1  0.66272000  0.12251100  0.68142800  1
  C  1819  1  0.71418500  0.11515500  0.62733400  1
  C  1821  1  0.91226500  0.70317900  0.32330000  1
  C  1823  1  0.92729100  0.69196300  0.29689300  1
  C  1824  1  0.91615900  0.67658400  0.29664500  1
  C  1826  1  0.90091200  0.68778600  0.32281600  1
  C  1828  1  0.88820800  0.68438700  0.33435700  1
  C  1830  1  0.91169500  0.71624800  0.33675900  1
  C  1832  1  0.91862100  0.66224400  0.28509000  1
  C  1834  1  0.91228800  0.33103100  0.64124700  1
  C  1836  1  0.92733800  0.34222000  0.66765300  1
  C  1837  1  0.91622200  0.35760900  0.66790700  1
  C  1839  1  0.90093600  0.34642400  0.64175500  1
  C  1841  1  0.88822900  0.34984300  0.63022200  1
  C  1843  1  0.91170500  0.31797600  0.62777300  1
  C  1845  1  0.91874500  0.37196000  0.67943200  1
  C  1847  1  0.12199200  0.70312700  0.64115000  1
  C  1849  1  0.10709100  0.69194100  0.66764100  1
  C  1850  1  0.11822600  0.67656100  0.66785900  1
  C  1852  1  0.13334000  0.68773100  0.64159300  1
  C  1854  1  0.14599100  0.68431400  0.62999600  1
  C  1856  1  0.12252300  0.71619900  0.62769000  1
  C  1858  1  0.11586900  0.66222900  0.67945800  1
  C  1860  1  0.12175200  0.33092000  0.32315200  1
  C  1862  1  0.10616400  0.34232000  0.29715600  1
  C  1863  1  0.11738000  0.35762400  0.29673100  1
  C  1865  1  0.13320800  0.34622800  0.32244000  1
  C  1867  1  0.14622900  0.34947700  0.33366800  1
  C  1869  1  0.12255200  0.31779100  0.33653600  1
  C  1871  1  0.11462600  0.37199200  0.28531900  1
  C  1873  1  0.26507300  0.99974500  0.35978900  1
  C  1875  1  0.26438400  0.02243700  0.38284500  1
  C  1876  1  0.26376700  0.03617500  0.36977700  1
  C  1878  1  0.26400200  0.01357800  0.34664300  1
  C  1880  1  0.26407300  0.01099600  0.32932600  1
  C  1882  1  0.26678700  0.98158700  0.35563600  1
  C  1884  1  0.26434000  0.05426000  0.37414000  1
  C  1886  1  0.76915000  0.03432300  0.35982100  1
  C  1888  1  0.76976600  0.01160100  0.38285300  1
  C  1889  1  0.77037600  0.99787300  0.36977300  1
  C  1891  1  0.77020800  0.02049700  0.34666600  1
  C  1893  1  0.77021200  0.02310100  0.32935200  1
  C  1895  1  0.76745700  0.05249100  0.35568700  1
  C  1897  1  0.76980300  0.97978300  0.37412200  1
  C  1899  1  0.76919200  0.99979600  0.60464500  1
  C  1901  1  0.76989200  0.02250300  0.58160000  1
  C  1902  1  0.77044400  0.03623600  0.59467700  1
  C  1904  1  0.77021200  0.01362700  0.61779700  1
  C  1906  1  0.77011800  0.01103600  0.63511300  1
  C  1908  1  0.76747600  0.98163400  0.60878400  1
  C  1910  1  0.76984800  0.05432200  0.59031800  1
  C  1912  1  0.26506500  0.03444200  0.60460200  1
  C  1914  1  0.26434500  0.01173300  0.58156000  1
  C  1915  1  0.26372100  0.99800200  0.59463700  1
  C  1917  1  0.26399500  0.02061500  0.61775400  1
  C  1919  1  0.26406400  0.02320700  0.63507000  1
  C  1921  1  0.26679500  0.05260200  0.60874400  1
  C  1923  1  0.26427500  0.97991300  0.59028500  1
  C  1925  1  0.39472200  0.26506900  0.96491100  1
  C  1927  1  0.41777300  0.26439800  0.98761500  1
  C  1928  1  0.40470400  0.26375600  0.00135200  1
  C  1930  1  0.38157700  0.26398900  0.97874700  1
  C  1932  1  0.36425900  0.26400900  0.97616100  1
  C  1934  1  0.39056700  0.26679400  0.94675200  1
  C  1936  1  0.40906200  0.26431400  0.01944000  1
  C  1938  1  0.39463800  0.76910100  0.99958900  1
  C  1940  1  0.41768400  0.76979800  0.97688600  1
  C  1941  1  0.40461000  0.77033700  0.96315000  1
  C  1943  1  0.38148700  0.77011700  0.98575600  1
  C  1945  1  0.36417100  0.77002500  0.98834600  1
  C  1947  1  0.39049600  0.76740600  0.01775200  1
  C  1949  1  0.40897200  0.76973800  0.94506400  1
  C  1951  1  0.63948300  0.76913900  0.96488300  1
  C  1953  1  0.61643600  0.76989400  0.98758700  1
  C  1954  1  0.62951400  0.77045400  0.00132000  1
  C  1956  1  0.65263700  0.77013400  0.97871300  1
  C  1958  1  0.66995300  0.77002500  0.97612300  1
  C  1960  1  0.64362300  0.76743800  0.94672100  1
  C  1962  1  0.62515600  0.76988300  0.01940600  1
  C  1964  1  0.63950300  0.26502300  0.99955800  1
  C  1966  1  0.61646300  0.26444500  0.97684400  1
  C  1967  1  0.62954000  0.26379600  0.96311500  1
  C  1969  1  0.65265300  0.26389900  0.98573200  1
  C  1971  1  0.66996900  0.26383900  0.98833300  1
  C  1973  1  0.64364500  0.26673400  0.01772200  1
  C  1975  1  0.62518900  0.26436700  0.94502700  1
  C  1977  1  0.99976000  0.39466700  0.23018800  1
  C  1979  1  0.02247000  0.41770500  0.22952700  1
  C  1980  1  0.03620000  0.40462600  0.22895500  1
  C  1982  1  0.01358600  0.38151100  0.22915500  1
  C  1984  1  0.01099000  0.36419500  0.22922900  1
  C  1986  1  0.98159700  0.39053100  0.23189200  1
  C  1988  1  0.05428400  0.40898300  0.22954600  1
  C  1990  1  0.03438400  0.39470900  0.73429700  1
  C  1992  1  0.01167300  0.41775300  0.73493900  1
  C  1993  1  0.99794000  0.40467800  0.73556800  1
  C  1995  1  0.02055300  0.38155900  0.73536900  1
  C  1997  1  0.02314600  0.36424300  0.73536500  1
  C  1999  1  0.05254900  0.39056400  0.73259900  1
  C  2001  1  0.97985000  0.40903100  0.73500500  1
  C  2003  1  0.99974800  0.63952600  0.73430700  1
  C  2005  1  0.02243500  0.61646200  0.73501800  1
  C  2006  1  0.03617800  0.62952800  0.73561100  1
  C  2008  1  0.01358600  0.65266700  0.73536800  1
  C  2010  1  0.01101100  0.66998500  0.73528400  1
  C  2012  1  0.98159100  0.64368400  0.73257600  1
  C  2014  1  0.05426200  0.62516200  0.73502300  1
  C  2016  1  0.03443200  0.63943600  0.23016600  1
  C  2018  1  0.01170400  0.61641400  0.22948000  1
  C  2019  1  0.99798300  0.62950100  0.22889000  1
  C  2021  1  0.02061300  0.65260200  0.22912900  1
  C  2023  1  0.02321900  0.66991500  0.22920100  1
  C  2025  1  0.05259700  0.64356200  0.23187800  1
  C  2027  1  0.97989300  0.62516200  0.22946800  1
  C  2029  1  0.99977200  0.26506900  0.60464000  1
  C  2031  1  0.02247800  0.26440700  0.58159500  1
  C  2032  1  0.03621200  0.26378200  0.59466800  1
  C  2034  1  0.01360200  0.26399800  0.61778900  1
  C  2036  1  0.01101000  0.26402000  0.63510500  1
  C  2038  1  0.98161100  0.26679300  0.60878700  1
  C  2040  1  0.05429900  0.26435900  0.59031000  1
  C  2042  1  0.03446600  0.76913600  0.60466200  1
  C  2044  1  0.01177900  0.76983800  0.58159900  1
  C  2045  1  0.99803600  0.77042500  0.59466200  1
  C  2047  1  0.02062500  0.77018900  0.61780300  1
  C  2049  1  0.02319900  0.77010500  0.63512100  1
  C  2051  1  0.05262300  0.76741500  0.60882500  1
  C  2053  1  0.97995100  0.76983400  0.59029600  1
  C  2055  1  0.99980700  0.76909600  0.35977200  1
  C  2057  1  0.02252500  0.76967700  0.38280700  1
  C  2058  1  0.03625700  0.77027500  0.36973000  1
  C  2060  1  0.01363800  0.77014200  0.34661900  1
  C  2062  1  0.01103600  0.77016000  0.32930400  1
  C  2064  1  0.98163700  0.76743400  0.35563400  1
  C  2066  1  0.05434400  0.76970000  0.37409100  1
  C  2068  1  0.03435900  0.26504600  0.35982900  1
  C  2070  1  0.01164000  0.26444200  0.38286400  1
  C  2071  1  0.99791600  0.26379000  0.36978100  1
  C  2073  1  0.02053700  0.26391900  0.34667400  1
  C  2075  1  0.02314200  0.26387000  0.32936000  1
  C  2077  1  0.05252300  0.26676400  0.35569400  1
  C  2079  1  0.97982700  0.26434900  0.37412900  1
  C  2081  1  0.26507500  0.39467700  0.99951900  1
  C  2083  1  0.26436100  0.41772400  0.97681700  1
  C  2084  1  0.26375300  0.40465000  0.96308400  1
  C  2086  1  0.26401700  0.38152600  0.98569000  1
  C  2088  1  0.26410400  0.36421000  0.98827900  1
  C  2090  1  0.26678200  0.39053200  0.01768000  1
  C  2092  1  0.26431400  0.40900600  0.94499600  1
  C  2094  1  0.76920900  0.39470400  0.96490300  1
  C  2096  1  0.76980700  0.41774300  0.98761900  1
  C  2097  1  0.77040100  0.40466600  0.00135000  1
  C  2099  1  0.77024900  0.38155100  0.97873400  1
  C  2101  1  0.77024700  0.36423600  0.97613700  1
  C  2103  1  0.76752700  0.39056400  0.94673600  1
  C  2105  1  0.76980700  0.40902100  0.01943800  1
  C  2107  1  0.76911900  0.63953200  0.99956100  1
  C  2109  1  0.76981700  0.61646900  0.97687100  1
  C  2110  1  0.77040600  0.62953500  0.96312800  1
  C  2112  1  0.77017700  0.65267300  0.98572100  1
  C  2114  1  0.77010300  0.66999200  0.98829900  1
  C  2116  1  0.76739600  0.64368900  0.01771800  1
  C  2118  1  0.76982200  0.62516700  0.94504400  1
  C  2120  1  0.26503000  0.63947300  0.96490700  1
  C  2122  1  0.26433600  0.61643600  0.98762200  1
  C  2123  1  0.26372800  0.62951600  0.00135000  1
  C  2125  1  0.26397700  0.65263000  0.97873200  1
  C  2127  1  0.26404100  0.66994600  0.97613700  1
  C  2129  1  0.26674700  0.64361000  0.94674500  1
  C  2131  1  0.26429900  0.62516800  0.01943700  1
  C  2133  1  0.39465200  0.99989800  0.73422200  1
  C  2135  1  0.41770400  0.02260000  0.73488400  1
  C  2136  1  0.40463400  0.03633700  0.73550900  1
  C  2138  1  0.38150800  0.01373300  0.73529500  1
  C  2140  1  0.36419100  0.01114300  0.73528300  1
  C  2142  1  0.39050200  0.98173700  0.73250300  1
  C  2144  1  0.40900000  0.05442400  0.73495000  1
  C  2146  1  0.39470500  0.03448800  0.23013500  1
  C  2148  1  0.41776300  0.01179500  0.22941700  1
  C  2149  1  0.40469600  0.99805500  0.22882000  1
  C  2151  1  0.38156200  0.02065100  0.22907600  1
  C  2153  1  0.36424300  0.02322700  0.22916600  1
  C  2155  1  0.39054500  0.05264500  0.23186500  1
  C  2157  1  0.40905400  0.97996700  0.22940500  1
  C  2159  1  0.63948500  0.99983400  0.23019500  1
  C  2161  1  0.61645300  0.02255500  0.22957200  1
  C  2162  1  0.62953200  0.03628300  0.22894100  1
  C  2164  1  0.65264200  0.01366000  0.22912100  1
  C  2166  1  0.66995700  0.01105700  0.22911200  1
  C  2168  1  0.64362200  0.98166700  0.23188400  1
  C  2170  1  0.62518200  0.05437400  0.22949300  1
  C  2172  1  0.63955400  0.03436800  0.73427200  1
  C  2174  1  0.61650600  0.01166200  0.73485900  1
  C  2175  1  0.62957900  0.99793000  0.73551200  1
  C  2177  1  0.65270000  0.02053800  0.73540300  1
  C  2179  1  0.67001600  0.02313400  0.73546500  1
  C  2181  1  0.64370000  0.05252900  0.73255700  1
  C  2183  1  0.62521800  0.97984300  0.73494800  1
  C  2185  1  0.76507500  0.49978300  0.85980200  1
  C  2187  1  0.76439200  0.52248300  0.88285500  1
  C  2188  1  0.76378300  0.53622000  0.86978500  1
  C  2190  1  0.76401300  0.51361700  0.84665600  1
  C  2192  1  0.76408100  0.51103300  0.82933900  1
  C  2194  1  0.76678600  0.48162400  0.85565200  1
  C  2196  1  0.76434900  0.55430500  0.87414900  1
  C  2198  1  0.26913900  0.53437500  0.85981200  1
  C  2200  1  0.26986200  0.51166900  0.88285500  1
  C  2201  1  0.27040800  0.49793400  0.86978100  1
  C  2203  1  0.27012900  0.52054200  0.84665800  1
  C  2205  1  0.27004200  0.52313500  0.82934300  1
  C  2207  1  0.26744900  0.55253900  0.85567200  1
  C  2209  1  0.26983100  0.47984600  0.87413900  1
  C  2211  1  0.26923400  0.49979100  0.10459800  1
  C  2213  1  0.26992600  0.52250700  0.08156000  1
  C  2214  1  0.27048000  0.53623700  0.09464000  1
  C  2216  1  0.27025400  0.51362100  0.11775400  1
  C  2218  1  0.27016400  0.51102700  0.13506900  1
  C  2220  1  0.26752200  0.48162800  0.10873600  1
  C  2222  1  0.26988600  0.55432700  0.09028800  1
  C  2224  1  0.76507800  0.53445400  0.10464000  1
  C  2226  1  0.76445800  0.51174400  0.08159800  1
  C  2227  1  0.76380600  0.49801200  0.09467300  1
  C  2229  1  0.76397400  0.52062500  0.11779000  1
  C  2231  1  0.76397000  0.52321900  0.13510600  1
  C  2233  1  0.76679000  0.55261600  0.10878500  1
  C  2235  1  0.76436900  0.47992400  0.09031900  1
  C  2237  1  0.89471700  0.76509400  0.46492400  1
  C  2239  1  0.91776400  0.76442800  0.48763000  1
  C  2240  1  0.90469100  0.76381000  0.50136600  1
  C  2242  1  0.88156800  0.76403100  0.47875700  1
  C  2244  1  0.86425200  0.76405600  0.47616500  1
  C  2246  1  0.89057100  0.76681100  0.44676200  1
  C  2248  1  0.90905300  0.76437300  0.51945300  1
  C  2250  1  0.89464900  0.26914500  0.49956500  1
  C  2252  1  0.91769300  0.26983600  0.47685800  1
  C  2253  1  0.90461600  0.27037300  0.46312300  1
  C  2255  1  0.88149700  0.27015900  0.48573400  1
  C  2257  1  0.86418100  0.27006700  0.48832400  1
  C  2259  1  0.89050700  0.26745200  0.51773000  1
  C  2261  1  0.90897500  0.26977000  0.44503800  1
  C  2263  1  0.13948600  0.26915000  0.46494900  1
  C  2265  1  0.11645200  0.26981200  0.48766900  1
  C  2266  1  0.12953400  0.27042400  0.50139600  1
  C  2268  1  0.15264400  0.27020300  0.47877400  1
  C  2270  1  0.16995800  0.27017600  0.47617100  1
  C  2272  1  0.14361800  0.26746100  0.44678300  1
  C  2274  1  0.12518500  0.26986300  0.51948600  1
  C  2276  1  0.13954600  0.76505100  0.49963300  1
  C  2278  1  0.11649400  0.76447900  0.47693000  1
  C  2279  1  0.12956600  0.76382700  0.46319700  1
  C  2281  1  0.15268900  0.76392100  0.48580100  1
  C  2283  1  0.17000500  0.76385900  0.48839200  1
  C  2285  1  0.14369600  0.76676000  0.51779300  1
  C  2287  1  0.12520600  0.76440800  0.44511200  1
  C  2289  1  0.49970800  0.89471500  0.73013900  1
  C  2291  1  0.52242700  0.91774600  0.72946000  1
  C  2292  1  0.53615400  0.90466200  0.72892900  1
  C  2294  1  0.51353400  0.88155300  0.72915500  1
  C  2296  1  0.51093400  0.86423900  0.72926400  1
  C  2298  1  0.48154200  0.89058500  0.73182500  1
  C  2300  1  0.55424100  0.90901400  0.72953500  1
  C  2302  1  0.53435500  0.89471800  0.23427900  1
  C  2304  1  0.51163800  0.91775400  0.23495800  1
  C  2305  1  0.49790700  0.90467500  0.23553900  1
  C  2307  1  0.52052600  0.88156200  0.23530100  1
  C  2309  1  0.52312400  0.86424700  0.23525200  1
  C  2311  1  0.55252100  0.89058300  0.23257900  1
  C  2313  1  0.47981800  0.90903000  0.23497100  1
  C  2315  1  0.49970800  0.13954400  0.23429100  1
  C  2317  1  0.52239000  0.11647500  0.23501300  1
  C  2318  1  0.53613500  0.12953800  0.23559900  1
  C  2320  1  0.51355000  0.15268300  0.23534700  1
  C  2322  1  0.51097800  0.17000100  0.23525100  1
  C  2324  1  0.48155300  0.14370600  0.23256100  1
  C  2326  1  0.55421800  0.12516700  0.23501000  1
  C  2328  1  0.53448400  0.13948000  0.73017000  1
  C  2330  1  0.51177100  0.11644500  0.72943700  1
  C  2331  1  0.49804400  0.12952600  0.72884700  1
  C  2333  1  0.52066000  0.15264000  0.72913700  1
  C  2335  1  0.52325400  0.16995600  0.72923700  1
  C  2337  1  0.55264600  0.14361700  0.73188300  1
  C  2339  1  0.47995500  0.12518200  0.72942800  1
  C  2341  1  0.49980900  0.76507900  0.10463500  1
  C  2343  1  0.52252200  0.76442000  0.08159500  1
  C  2344  1  0.53625400  0.76380700  0.09467100  1
  C  2346  1  0.51363900  0.76402200  0.11778700  1
  C  2348  1  0.51104300  0.76404400  0.13510300  1
  C  2350  1  0.48164400  0.76679400  0.10877900  1
  C  2352  1  0.55434300  0.76437700  0.09031300  1
  C  2354  1  0.53442100  0.26916900  0.10464000  1
  C  2356  1  0.51172700  0.26990200  0.08158300  1
  C  2357  1  0.49798800  0.27048800  0.09465200  1
  C  2359  1  0.52058500  0.27021900  0.11778500  1
  C  2361  1  0.52316400  0.27012000  0.13510300  1
  C  2363  1  0.55257800  0.26745300  0.10879300  1
  C  2365  1  0.47990000  0.26990900  0.09029200  1
  C  2367  1  0.49974700  0.26911400  0.85977700  1
  C  2369  1  0.52244200  0.26978900  0.88283400  1
  C  2370  1  0.53618500  0.27032700  0.86976500  1
  C  2372  1  0.51358900  0.27009200  0.84663100  1
  C  2374  1  0.51100400  0.27002000  0.82931400  1
  C  2376  1  0.48158100  0.26746000  0.85562600  1
  C  2378  1  0.55426900  0.26974100  0.87413700  1
  C  2380  1  0.53436500  0.76506700  0.85980600  1
  C  2382  1  0.51164700  0.76448700  0.88284300  1
  C  2383  1  0.49791900  0.76385300  0.86976200  1
  C  2385  1  0.52054100  0.76395300  0.84665400  1
  C  2387  1  0.52314400  0.76389800  0.82933900  1
  C  2389  1  0.55253000  0.76677200  0.85566900  1
  C  2391  1  0.47983100  0.76442500  0.87411400  1
  C  2393  1  0.76505800  0.89468400  0.49958400  1
  C  2395  1  0.76430600  0.91772800  0.47688100  1
  C  2396  1  0.76372600  0.90465100  0.46314900  1
  C  2398  1  0.76402600  0.88152900  0.48575700  1
  C  2400  1  0.76415200  0.86421300  0.48834700  1
  C  2402  1  0.76679100  0.89054400  0.51774200  1
  C  2404  1  0.76430700  0.90900500  0.44506300  1
  C  2406  1  0.26923200  0.89472600  0.46492200  1
  C  2408  1  0.26990100  0.91776800  0.48763400  1
  C  2409  1  0.27045500  0.90469300  0.50136900  1
  C  2411  1  0.27022600  0.88157400  0.47875700  1
  C  2413  1  0.27016300  0.86425800  0.47616400  1
  C  2415  1  0.26754700  0.89058400  0.44675700  1
  C  2417  1  0.26986200  0.90904700  0.51945700  1
  C  2419  1  0.26912700  0.13953600  0.49949800  1
  C  2421  1  0.26980800  0.11648200  0.47679900  1
  C  2422  1  0.27037700  0.12955300  0.46306000  1
  C  2424  1  0.27017000  0.15268100  0.48566100  1
  C  2426  1  0.27010000  0.16999900  0.48824700  1
  C  2428  1  0.26741100  0.14368400  0.51765900  1
  C  2430  1  0.26978800  0.12518700  0.44497500  1
  C  2432  1  0.76505900  0.13948000  0.46491700  1
  C  2434  1  0.76437300  0.11645000  0.48763700  1
  C  2435  1  0.76379200  0.12953300  0.50136200  1
  C  2437  1  0.76402700  0.15264100  0.47873900  1
  C  2439  1  0.76409600  0.16995600  0.47613800  1
  C  2441  1  0.76675900  0.14361000  0.44675100  1
  C  2443  1  0.76436800  0.12518500  0.51945000  1
  C  2445  1  0.89468800  0.49981800  0.23430600  1
  C  2447  1  0.91773200  0.52252700  0.23496900  1
  C  2448  1  0.90465600  0.53626000  0.23556200  1
  C  2450  1  0.88153700  0.51365000  0.23534500  1
  C  2452  1  0.86422100  0.51105400  0.23530800  1
  C  2454  1  0.89054500  0.48165600  0.23259100  1
  C  2456  1  0.90901500  0.55434700  0.23497300  1
  C  2458  1  0.89471400  0.53445200  0.73016700  1
  C  2460  1  0.91776200  0.51174800  0.72942800  1
  C  2461  1  0.90468700  0.49801200  0.72886300  1
  C  2463  1  0.88156300  0.52061900  0.72913300  1
  C  2465  1  0.86424500  0.52320500  0.72924300  1
  C  2467  1  0.89056800  0.55261200  0.73187900  1
  C  2469  1  0.90904200  0.47992400  0.72944400  1
  C  2471  1  0.13949400  0.49979400  0.73022400  1
  C  2473  1  0.11645200  0.52250400  0.72953100  1
  C  2474  1  0.12952700  0.53623700  0.72894500  1
  C  2476  1  0.15264600  0.51362500  0.72920000  1
  C  2478  1  0.16996200  0.51103100  0.72925500  1
  C  2480  1  0.14363500  0.48162800  0.73191600  1
  C  2482  1  0.12516900  0.55432500  0.72950200  1
  C  2484  1  0.13959200  0.53435100  0.23424200  1
  C  2486  1  0.11654800  0.51164200  0.23481700  1
  C  2487  1  0.12962400  0.49791100  0.23547300  1
  C  2489  1  0.15274000  0.52052300  0.23538200  1
  C  2491  1  0.17005500  0.52312400  0.23545400  1
  C  2493  1  0.14373400  0.55251300  0.23252800  1
  C  2495  1  0.12526600  0.47982600  0.23490300  1
  N  23  1  0.27092400  0.06543900  0.36274500  1
  N  24  1  0.30335300  0.11130300  0.33476600  1
  N  25  1  0.23099100  0.16450000  0.38762700  1
  N  26  1  0.26318900  0.13655900  0.43378000  1
  N  49  1  0.76323300  0.96859100  0.36273000  1
  N  50  1  0.73103300  0.92240400  0.33481200  1
  N  51  1  0.80344300  0.86962300  0.38814700  1
  N  52  1  0.77091000  0.89761300  0.43389300  1
  N  75  1  0.76325000  0.06550500  0.60170200  1
  N  76  1  0.73092600  0.11150600  0.62965500  1
  N  77  1  0.80328200  0.16456100  0.57661300  1
  N  78  1  0.77096300  0.13657600  0.53062800  1
  N  101  1  0.27083900  0.96873200  0.60169000  1
  N  102  1  0.30332800  0.92294300  0.62968000  1
  N  103  1  0.23095300  0.86964900  0.57658100  1
  N  104  1  0.26329800  0.89764700  0.53064300  1
  N  127  1  0.39764900  0.27083900  0.03063600  1
  N  128  1  0.36964400  0.30320900  0.07653200  1
  N  129  1  0.42299900  0.23079200  0.12966800  1
  N  130  1  0.46871800  0.26335800  0.10170100  1
  N  153  1  0.39760000  0.76312400  0.93387800  1
  N  154  1  0.36968300  0.73086400  0.88777900  1
  N  155  1  0.42243900  0.80325100  0.83484900  1
  N  156  1  0.46865200  0.77102600  0.86272900  1
  N  179  1  0.63655200  0.76330000  0.03058500  1
  N  180  1  0.66453300  0.73077200  0.07633100  1
  N  181  1  0.61162500  0.80317900  0.12967400  1
  N  182  1  0.56553900  0.77094000  0.10170500  1
  N  205  1  0.63658300  0.27095900  0.93385000  1
  N  206  1  0.66449500  0.30325900  0.88775000  1
  N  207  1  0.61157600  0.23090300  0.83484100  1
  N  208  1  0.56546500  0.26313600  0.86276800  1
  N  231  1  0.06546000  0.39761000  0.23617600  1
  N  232  1  0.11156300  0.36969800  0.26845800  1
  N  233  1  0.16446900  0.42236100  0.19607500  1
  N  234  1  0.13664000  0.46864400  0.22828500  1
  N  257  1  0.96866100  0.39762000  0.72846300  1
  N  258  1  0.92272000  0.36964800  0.69610100  1
  N  259  1  0.86964000  0.42295300  0.76848600  1
  N  260  1  0.89763800  0.46874200  0.73600800  1
  N  283  1  0.06544400  0.63655900  0.72844900  1
  N  284  1  0.11124100  0.66453400  0.69595800  1
  N  285  1  0.16453700  0.61156400  0.76832800  1
  N  286  1  0.13655700  0.56552100  0.73607200  1
  N  309  1  0.96872400  0.63656700  0.23605300  1
  N  310  1  0.92286500  0.66456000  0.26849000  1
  N  311  1  0.86965300  0.61159100  0.19612700  1
  N  312  1  0.89762700  0.56553500  0.22838700  1
  N  335  1  0.06548100  0.27093100  0.60171000  1
  N  336  1  0.11141400  0.30329700  0.62970000  1
  N  337  1  0.16455200  0.23094800  0.57664600  1
  N  338  1  0.13658400  0.26328500  0.53066600  1
  N  361  1  0.96876700  0.76326600  0.60169300  1
  N  362  1  0.92294300  0.73080600  0.62967200  1
  N  363  1  0.86968300  0.80317400  0.57670600  1
  N  364  1  0.89765800  0.77092900  0.53065000  1
  N  387  1  0.06554300  0.76309400  0.36272500  1
  N  388  1  0.11195500  0.73094100  0.33497800  1
  N  389  1  0.16451600  0.80333400  0.38786600  1
  N  390  1  0.13659600  0.77101600  0.43393900  1
  N  413  1  0.96865000  0.27092700  0.36272800  1
  N  414  1  0.92260400  0.30326300  0.33481800  1
  N  415  1  0.86964900  0.23088800  0.38778800  1
  N  416  1  0.89759600  0.26316400  0.43385400  1
  N  439  1  0.27088200  0.39760600  0.93381400  1
  N  440  1  0.30333800  0.36962600  0.88797900  1
  N  441  1  0.23093000  0.42270600  0.83475200  1
  N  442  1  0.26325200  0.46865700  0.86275100  1
  N  465  1  0.76322100  0.39763000  0.03062100  1
  N  466  1  0.73096900  0.36969500  0.07673700  1
  N  467  1  0.80327000  0.42271100  0.12966200  1
  N  468  1  0.77095100  0.46874300  0.10171400  1
  N  491  1  0.76323900  0.63655200  0.93385500  1
  N  492  1  0.73092000  0.66454500  0.88789000  1
  N  493  1  0.80324500  0.61147900  0.83478300  1
  N  494  1  0.77092800  0.56549400  0.86275900  1
  N  517  1  0.27087600  0.63657100  0.03061200  1
  N  518  1  0.30332400  0.66457200  0.07644800  1
  N  519  1  0.23098000  0.61147300  0.12967600  1
  N  520  1  0.26331000  0.56550900  0.10168400  1
  N  543  1  0.39761800  0.06562900  0.72838400  1
  N  544  1  0.36969000  0.11182200  0.69621600  1
  N  545  1  0.42315200  0.16456100  0.76866600  1
  N  546  1  0.46879200  0.13659300  0.73600800  1
  N  569  1  0.39764100  0.96878700  0.23595200  1
  N  570  1  0.36965600  0.92309800  0.26854000  1
  N  571  1  0.42259500  0.86965200  0.19614100  1
  N  572  1  0.46862500  0.89763400  0.22840900  1
  N  595  1  0.63657700  0.06556500  0.23605900  1
  N  596  1  0.66450700  0.11169800  0.26829600  1
  N  597  1  0.61118800  0.16455100  0.19594000  1
  N  598  1  0.56540000  0.13656100  0.22842900  1
  N  621  1  0.63659800  0.96865800  0.72834400  1
  N  622  1  0.66444700  0.92242800  0.69611200  1
  N  623  1  0.61144700  0.86968500  0.76846800  1
  N  624  1  0.56541400  0.89763600  0.73616100  1
  N  647  1  0.76172600  0.97011700  0.59722000  1
  N  648  1  0.72774500  0.92447900  0.62558700  1
  N  649  1  0.80649700  0.87362300  0.57490400  1
  N  650  1  0.77262200  0.90208900  0.52923500  1
  N  673  1  0.27257300  0.06411600  0.59719200  1
  N  674  1  0.30649100  0.10976400  0.62563600  1
  N  675  1  0.22777700  0.16057800  0.57487600  1
  N  676  1  0.26165500  0.13213400  0.52918700  1
  N  699  1  0.27263200  0.97008500  0.36716500  1
  N  700  1  0.30640100  0.92436600  0.33860500  1
  N  701  1  0.22784500  0.87368200  0.38960400  1
  N  702  1  0.26178600  0.90213500  0.43523300  1
  N  725  1  0.76166700  0.06400300  0.36723700  1
  N  726  1  0.72776000  0.10966000  0.33877700  1
  N  727  1  0.80643100  0.16047600  0.38956600  1
  N  728  1  0.77253900  0.13205200  0.43524300  1
  N  751  1  0.63207800  0.76161700  0.93522200  1
  N  752  1  0.66053200  0.72773000  0.88954800  1
  N  753  1  0.60971800  0.80645300  0.83883000  1
  N  754  1  0.56404700  0.77253100  0.86722800  1
  N  777  1  0.63208900  0.27249600  0.02924200  1
  N  778  1  0.66049300  0.30644500  0.07488300  1
  N  779  1  0.60977800  0.22780200  0.12578900  1
  N  780  1  0.56408500  0.26162600  0.09725800  1
  N  803  1  0.40210500  0.27256300  0.93521800  1
  N  804  1  0.37352200  0.30636300  0.88953400  1
  N  805  1  0.42432900  0.22787500  0.83863900  1
  N  806  1  0.47005700  0.26166400  0.86716200  1
  N  829  1  0.40204800  0.76163500  0.02927100  1
  N  830  1  0.37357900  0.72779400  0.07497900  1
  N  831  1  0.42444800  0.80641900  0.12573800  1
  N  832  1  0.47011600  0.77255600  0.09723100  1
  N  855  1  0.97007300  0.63214300  0.72678800  1
  N  856  1  0.92438600  0.66062600  0.69292400  1
  N  857  1  0.87361000  0.60977500  0.77156200  1
  N  858  1  0.90211100  0.56412400  0.73768100  1
  N  881  1  0.06410500  0.63199500  0.23763800  1
  N  882  1  0.10972300  0.66036100  0.27162500  1
  N  883  1  0.16060100  0.60973100  0.19286300  1
  N  884  1  0.13218600  0.56402000  0.22673300  1
  N  907  1  0.97009000  0.40208100  0.23768500  1
  N  908  1  0.92441500  0.37361900  0.27155300  1
  N  909  1  0.87361400  0.42446300  0.19294800  1
  N  910  1  0.90209300  0.47013400  0.22681900  1
  N  933  1  0.06406600  0.40210800  0.72681100  1
  N  934  1  0.10974000  0.37360000  0.69295000  1
  N  935  1  0.16057100  0.42442400  0.77155600  1
  N  936  1  0.13208800  0.47011100  0.73770000  1
  N  959  1  0.97011200  0.76167400  0.36718700  1
  N  960  1  0.92441700  0.72779500  0.33874500  1
  N  961  1  0.87355300  0.80636000  0.38952200  1
  N  962  1  0.90211500  0.77258700  0.43523700  1
  N  985  1  0.06403300  0.27252700  0.36725800  1
  N  986  1  0.10970200  0.30645700  0.33887400  1
  N  987  1  0.16047000  0.22771200  0.38962700  1
  N  988  1  0.13206700  0.26165000  0.43528500  1
  N  1011  1  0.97009600  0.27259400  0.59724700  1
  N  1012  1  0.92441600  0.30641500  0.62579200  1
  N  1013  1  0.87365000  0.22778600  0.57493100  1
  N  1014  1  0.90206500  0.26170100  0.52925500  1
  N  1037  1  0.06414700  0.76162800  0.59728600  1
  N  1038  1  0.10984000  0.72780600  0.62581700  1
  N  1039  1  0.16061700  0.80643800  0.57497400  1
  N  1040  1  0.13215300  0.77255000  0.52931000  1
  N  1063  1  0.76160900  0.63214800  0.02923900  1
  N  1064  1  0.72777800  0.66065000  0.07494600  1
  N  1065  1  0.80645800  0.60980100  0.12566200  1
  N  1066  1  0.77254700  0.56414000  0.09723100  1
  N  1089  1  0.27252200  0.63205500  0.93523400  1
  N  1090  1  0.30643800  0.66047300  0.88957400  1
  N  1091  1  0.22774200  0.60971200  0.83875300  1
  N  1092  1  0.26163500  0.56404400  0.86721500  1
  N  1115  1  0.27264100  0.40206200  0.02917500  1
  N  1116  1  0.30645200  0.37351000  0.07486500  1
  N  1117  1  0.22780200  0.42447100  0.12553000  1
  N  1118  1  0.26179800  0.47010100  0.09716800  1
  N  1141  1  0.76174700  0.40211400  0.93521900  1
  N  1142  1  0.72781400  0.37365800  0.88958700  1
  N  1143  1  0.80638000  0.42440000  0.83863300  1
  N  1144  1  0.77260100  0.47010900  0.86718700  1
  N  1167  1  0.63206500  0.97014700  0.23764400  1
  N  1168  1  0.66047600  0.92448700  0.27157800  1
  N  1169  1  0.60968800  0.87365100  0.19289300  1
  N  1170  1  0.56402800  0.90213200  0.22678100  1
  N  1193  1  0.63214900  0.06404600  0.72678100  1
  N  1194  1  0.66056000  0.10972100  0.69286700  1
  N  1195  1  0.60980100  0.16048000  0.77161500  1
  N  1196  1  0.56414500  0.13206500  0.73769000  1
  N  1219  1  0.40204000  0.97021100  0.72671800  1
  N  1220  1  0.37347900  0.92449300  0.69294000  1
  N  1221  1  0.42438800  0.87376600  0.77154800  1
  N  1222  1  0.47003000  0.90214800  0.73758800  1
  N  1245  1  0.40208500  0.06417100  0.23764200  1
  N  1246  1  0.37356800  0.10983100  0.27151000  1
  N  1247  1  0.42433100  0.16074300  0.19295600  1
  N  1248  1  0.47003800  0.13217700  0.22674100  1
  N  1250  1  0.18913100  0.20435900  0.39057500  1
  N  1253  1  0.18979600  0.17529700  0.36906200  1
  N  1257  1  0.15569500  0.18167300  0.34174700  1
  N  1263  1  0.84500100  0.82986600  0.38996600  1
  N  1266  1  0.84477500  0.85896800  0.36853200  1
  N  1270  1  0.87966900  0.85291400  0.34217900  1
  N  1276  1  0.84502200  0.20437600  0.57416800  1
  N  1279  1  0.84453200  0.17529100  0.59564000  1
  N  1283  1  0.87893100  0.18154000  0.62259800  1
  N  1289  1  0.18924600  0.82986200  0.57429300  1
  N  1292  1  0.18964800  0.85897600  0.59572500  1
  N  1296  1  0.15509300  0.85280100  0.62250300  1
  N  1302  1  0.42464300  0.18930500  0.16945100  1
  N  1305  1  0.40331300  0.18938200  0.14027700  1
  N  1309  1  0.37724900  0.15424500  0.14619200  1
  N  1315  1  0.42549600  0.84511800  0.79489100  1
  N  1318  1  0.40402300  0.84436900  0.82398300  1
  N  1322  1  0.37648100  0.87828000  0.81757300  1
  N  1328  1  0.60884600  0.84500500  0.16950400  1
  N  1331  1  0.63032000  0.84444800  0.14041600  1
  N  1335  1  0.65743900  0.87871500  0.14671800  1
  N  1341  1  0.60885000  0.18909000  0.79502400  1
  N  1344  1  0.63041500  0.18975400  0.82404700  1
  N  1348  1  0.65776700  0.15570200  0.81759200  1
  N  1354  1  0.20445900  0.42571900  0.15415200  1
  N  1357  1  0.17541600  0.40417500  0.15503900  1
  N  1361  1  0.18194600  0.37637900  0.12135600  1
  N  1367  1  0.82988400  0.42486700  0.81007700  1
  N  1370  1  0.85897900  0.40342300  0.80982700  1
  N  1374  1  0.85290600  0.37702400  0.84468500  1
  N  1380  1  0.20434600  0.60895600  0.81011200  1
  N  1383  1  0.17526200  0.63043300  0.80960600  1
  N  1387  1  0.18150800  0.65739600  0.84400600  1
  N  1393  1  0.82982700  0.60895200  0.15433000  1
  N  1396  1  0.85891700  0.63042400  0.15488800  1
  N  1400  1  0.85262100  0.65754000  0.12061700  1
  N  1406  1  0.20437500  0.18922200  0.57417600  1
  N  1409  1  0.17524700  0.18963400  0.59559200  1
  N  1413  1  0.18146600  0.15515800  0.62246300  1
  N  1419  1  0.82986400  0.84495400  0.57412900  1
  N  1422  1  0.85895500  0.84443300  0.59559600  1
  N  1426  1  0.85270400  0.87879800  0.62260200  1
  N  1432  1  0.20441100  0.84511700  0.39062100  1
  N  1435  1  0.17533400  0.84447800  0.36913000  1
  N  1439  1  0.18176000  0.87850100  0.34173900  1
  N  1445  1  0.82985400  0.18907600  0.39047500  1
  N  1448  1  0.85887700  0.18971000  0.36891500  1
  N  1452  1  0.85245500  0.15559000  0.34164200  1
  N  1458  1  0.18921100  0.42506000  0.79497100  1
  N  1461  1  0.18959500  0.40362500  0.82408300  1
  N  1465  1  0.15499000  0.37690900  0.81793200  1
  N  1471  1  0.84503600  0.42533700  0.16951300  1
  N  1474  1  0.84447900  0.40385200  0.14043500  1
  N  1478  1  0.87869300  0.37668000  0.14678700  1
  N  1484  1  0.84498100  0.60905500  0.79497600  1
  N  1487  1  0.84452900  0.63050200  0.82407900  1
  N  1491  1  0.87900400  0.65737400  0.81787800  1
  N  1497  1  0.18923200  0.60901200  0.16945500  1
  N  1500  1  0.18970600  0.63050600  0.14038500  1
  N  1504  1  0.15527300  0.65742100  0.14665000  1
  N  1510  1  0.42461300  0.20435000  0.81009700  1
  N  1513  1  0.40326900  0.17518800  0.81003500  1
  N  1517  1  0.37726200  0.18108900  0.84521700  1
  N  1523  1  0.42515200  0.82982200  0.15438500  1
  N  1526  1  0.40372700  0.85894300  0.15481500  1
  N  1530  1  0.37688600  0.85275800  0.12031200  1
  N  1536  1  0.60926200  0.20430700  0.15434700  1
  N  1539  1  0.63071400  0.17521400  0.15462700  1
  N  1543  1  0.65720600  0.18133000  0.11984900  1
  N  1549  1  0.60879800  0.82990400  0.81026400  1
  N  1552  1  0.63040500  0.85889300  0.80961000  1
  N  1556  1  0.65771500  0.85241600  0.84369000  1
  N  1562  1  0.68919800  0.70435300  0.89026300  1
  N  1565  1  0.68964800  0.67524400  0.86881900  1
  N  1569  1  0.65518200  0.68145800  0.84193600  1
  N  1575  1  0.34496400  0.32985900  0.89004200  1
  N  1578  1  0.34471100  0.35898800  0.86864000  1
  N  1582  1  0.37952300  0.35291400  0.84218200  1
  N  1588  1  0.34494900  0.70436500  0.07442900  1
  N  1591  1  0.34464500  0.67523400  0.09582800  1
  N  1595  1  0.37939100  0.68131100  0.12237500  1
  N  1601  1  0.68913800  0.32981800  0.07389300  1
  N  1604  1  0.68980500  0.35888500  0.09540000  1
  N  1608  1  0.65575000  0.35248400  0.12276500  1
  N  1614  1  0.92488300  0.68922300  0.66945200  1
  N  1617  1  0.90346700  0.68947500  0.64033400  1
  N  1621  1  0.87699900  0.65467300  0.64643000  1
  N  1627  1  0.92527300  0.34505000  0.29499900  1
  N  1630  1  0.90377000  0.34449200  0.32406200  1
  N  1634  1  0.87665700  0.37875500  0.31774300  1
  N  1640  1  0.10904400  0.34500700  0.66950100  1
  N  1643  1  0.13047900  0.34460900  0.64038800  1
  N  1647  1  0.15729900  0.37912000  0.64660000  1
  N  1653  1  0.10831400  0.68893900  0.29499200  1
  N  1656  1  0.12999800  0.69003400  0.32392800  1
  N  1660  1  0.15813200  0.65666300  0.31720200  1
  N  1666  1  0.70439600  0.92563600  0.65422200  1
  N  1669  1  0.67535300  0.90409400  0.65503700  1
  N  1673  1  0.68185700  0.87643200  0.62123900  1
  N  1679  1  0.32990600  0.92471700  0.31005200  1
  N  1682  1  0.35902200  0.90330700  0.30988600  1
  N  1686  1  0.35305700  0.87714100  0.34493900  1
  N  1692  1  0.70437300  0.10875500  0.31014700  1
  N  1695  1  0.67529800  0.13024600  0.30952900  1
  N  1699  1  0.68162700  0.15746700  0.34371000  1
  N  1705  1  0.32981400  0.10881300  0.65433400  1
  N  1708  1  0.35891200  0.13027900  0.65498700  1
  N  1712  1  0.35258200  0.15758000  0.62086500  1
  N  1718  1  0.70428600  0.68923200  0.07456400  1
  N  1721  1  0.67518000  0.68942200  0.09599100  1
  N  1725  1  0.68120600  0.65444800  0.12225000  1
  N  1731  1  0.32989100  0.34490000  0.07432300  1
  N  1734  1  0.35900500  0.34457600  0.09574800  1
  N  1738  1  0.35292500  0.37932700  0.12229000  1
  N  1744  1  0.70439800  0.34506300  0.89058000  1
  N  1747  1  0.67529400  0.34445000  0.86912500  1
  N  1751  1  0.68167500  0.37853100  0.84179000  1
  N  1757  1  0.32988300  0.68904900  0.89052500  1
  N  1760  1  0.35888100  0.68971700  0.86893000  1
  N  1764  1  0.35240200  0.65567000  0.84157800  1
  N  1770  1  0.68915300  0.92547000  0.29491700  1
  N  1773  1  0.68983300  0.90398100  0.32399800  1
  N  1777  1  0.65576500  0.87662300  0.31763000  1
  N  1783  1  0.34493500  0.92495200  0.66942500  1
  N  1786  1  0.34467700  0.90348000  0.64035000  1
  N  1790  1  0.37951500  0.87706300  0.64645700  1
  N  1796  1  0.34498700  0.10922700  0.29497600  1
  N  1799  1  0.34465400  0.13064700  0.32409500  1
  N  1803  1  0.37933200  0.15727100  0.31797200  1
  N  1809  1  0.68914900  0.10893000  0.66941900  1
  N  1812  1  0.68969300  0.13049400  0.64039900  1
  N  1816  1  0.65537300  0.15753100  0.64674600  1
  N  1822  1  0.92500400  0.70434300  0.31013800  1
  N  1825  1  0.90357500  0.67523000  0.30981100  1
  N  1829  1  0.87693700  0.68138100  0.34447500  1
  N  1835  1  0.92503700  0.32985700  0.65439700  1
  N  1838  1  0.90362600  0.35898300  0.65475300  1
  N  1842  1  0.87695400  0.35286000  0.62011000  1
  N  1848  1  0.10932700  0.70431200  0.65438100  1
  N  1851  1  0.13074400  0.67519300  0.65463000  1
  N  1855  1  0.15721200  0.68129300  0.61982700  1
  N  1861  1  0.10868900  0.32988400  0.31030100  1
  N  1864  1  0.13030300  0.35887100  0.30956900  1
  N  1868  1  0.15778400  0.35234100  0.34350300  1
  N  1874  1  0.26519500  0.00503100  0.37735400  1
  N  1877  1  0.26360700  0.03094000  0.35224200  1
  N  1881  1  0.26413000  0.00873000  0.31405000  1
  N  1887  1  0.76898600  0.02901400  0.37737900  1
  N  1890  1  0.77057900  0.00312700  0.35224500  1
  N  1894  1  0.77022600  0.02538700  0.31407800  1
  N  1900  1  0.76908700  0.00509300  0.58708300  1
  N  1903  1  0.77058300  0.03099300  0.61220800  1
  N  1907  1  0.77004100  0.00876200  0.65038800  1
  N  1913  1  0.26517200  0.02914300  0.58704000  1
  N  1916  1  0.26357600  0.00325000  0.61216800  1
  N  1920  1  0.26411700  0.02547900  0.65034500  1
  N  1926  1  0.41228400  0.26521700  0.97020600  1
  N  1929  1  0.38717100  0.26357900  0.99610900  1
  N  1933  1  0.34898500  0.26402100  0.97389200  1
  N  1939  1  0.41220100  0.76900100  0.99429500  1
  N  1942  1  0.38707700  0.77047900  0.96839000  1
  N  1946  1  0.34889600  0.76995100  0.99061900  1
  N  1952  1  0.62191900  0.76908000  0.97017600  1
  N  1955  1  0.64704600  0.77054800  0.99607800  1
  N  1959  1  0.68522700  0.76993700  0.97385200  1
  N  1965  1  0.62194300  0.26523500  0.99425400  1
  N  1968  1  0.64706900  0.26353300  0.96836500  1
  N  1972  1  0.68524200  0.26378000  0.99061500  1
  N  1978  1  0.00505900  0.41222800  0.23030700  1
  N  1981  1  0.03095400  0.38709600  0.22879200  1
  N  1985  1  0.00871100  0.34892100  0.22928700  1
  N  1991  1  0.02908300  0.41227000  0.73414000  1
  N  1994  1  0.00318700  0.38714800  0.73576000  1
  N  1998  1  0.02542200  0.34896900  0.73536900  1
  N  2004  1  0.00503100  0.62196000  0.73418800  1
  N  2007  1  0.03094600  0.64706400  0.73576200  1
  N  2011  1  0.00875100  0.68526200  0.73521700  1
  N  2017  1  0.02911900  0.62187800  0.23027700  1
  N  2020  1  0.00324300  0.64702700  0.22874100  1
  N  2024  1  0.02550400  0.68518800  0.22925400  1
  N  2030  1  0.00506900  0.26521700  0.58707700  1
  N  2033  1  0.03096700  0.26360100  0.61219900  1
  N  2037  1  0.00873600  0.26403200  0.65038000  1
  N  2043  1  0.02918300  0.76901800  0.58709600  1
  N  2046  1  0.00326500  0.77057500  0.61219900  1
  N  2050  1  0.02545700  0.77003700  0.65039900  1
  N  2056  1  0.00511100  0.76892900  0.37733100  1
  N  2059  1  0.03100800  0.77049100  0.35220000  1
  N  2063  1  0.00875100  0.77018500  0.31403100  1
  N  2069  1  0.02905000  0.26524600  0.37738600  1
  N  2072  1  0.00316900  0.26353800  0.35225400  1
  N  2076  1  0.02542800  0.26382100  0.31408600  1
  N  2082  1  0.26517600  0.41224000  0.99422600  1
  N  2085  1  0.26361200  0.38711700  0.96832600  1
  N  2089  1  0.26417600  0.34893500  0.99055100  1
  N  2095  1  0.76904200  0.41226400  0.97020600  1
  N  2098  1  0.77060200  0.38713600  0.99610200  1
  N  2102  1  0.77025500  0.34896200  0.97385600  1
  N  2108  1  0.76899700  0.62196600  0.99427600  1
  N  2111  1  0.77056300  0.64707000  0.96836100  1
  N  2115  1  0.77004700  0.68526700  0.99056100  1
  N  2121  1  0.26514300  0.62191300  0.97021000  1
  N  2124  1  0.26357600  0.64704600  0.99609900  1
  N  2128  1  0.26409100  0.68521900  0.97385900  1
  N  2134  1  0.41221600  0.00519100  0.73407400  1
  N  2137  1  0.38710100  0.03109700  0.73569300  1
  N  2141  1  0.34891600  0.00886900  0.73528000  1
  N  2147  1  0.41227000  0.02920100  0.23025000  1
  N  2150  1  0.38716200  0.00329100  0.22867600  1
  N  2154  1  0.34896600  0.02548600  0.22924100  1
  N  2160  1  0.62192700  0.00514100  0.23035500  1
  N  2163  1  0.64706100  0.03102900  0.22873700  1
  N  2167  1  0.68523000  0.00877300  0.22909400  1
  N  2173  1  0.62199300  0.02907000  0.73406200  1
  N  2176  1  0.64711100  0.00317100  0.73577400  1
  N  2180  1  0.68528900  0.02541400  0.73552900  1
  N  2186  1  0.76519600  0.50507400  0.87736700  1
  N  2189  1  0.76362100  0.53098100  0.85225100  1
  N  2193  1  0.76413500  0.50876400  0.81406300  1
  N  2199  1  0.26906000  0.52907900  0.87737500  1
  N  2202  1  0.27052200  0.50317600  0.85224800  1
  N  2206  1  0.26997200  0.52541000  0.81406900  1
  N  2212  1  0.26912300  0.50509500  0.08703800  1
  N  2215  1  0.27062400  0.53098900  0.11217000  1
  N  2219  1  0.27009000  0.50875200  0.15034400  1
  N  2225  1  0.76525000  0.52915400  0.08708000  1
  N  2228  1  0.76358900  0.50326000  0.11220300  1
  N  2232  1  0.76395700  0.52549600  0.15038000  1
  N  2238  1  0.91227900  0.76523600  0.47022100  1
  N  2241  1  0.88715900  0.76363500  0.49612100  1
  N  2245  1  0.84897800  0.76406800  0.47389100  1
  N  2251  1  0.91221200  0.26904300  0.49426800  1
  N  2254  1  0.88708500  0.27051700  0.46836700  1
  N  2258  1  0.84890600  0.26999500  0.49059800  1
  N  2264  1  0.12192600  0.26902100  0.47025600  1
  N  2267  1  0.14706300  0.27059600  0.49614300  1
  N  2271  1  0.18523100  0.27016200  0.47388700  1
  N  2277  1  0.12198400  0.76526700  0.49433800  1
  N  2280  1  0.14709700  0.76355900  0.46843700  1
  N  2284  1  0.18528000  0.76379600  0.49066700  1
  N  2290  1  0.50501300  0.91227500  0.73022800  1
  N  2293  1  0.53090300  0.88713300  0.72880000  1
  N  2297  1  0.50865400  0.84896600  0.72935100  1
  N  2303  1  0.52905100  0.91227700  0.23416000  1
  N  2306  1  0.50315700  0.88714500  0.23568900  1
  N  2310  1  0.52540600  0.84897400  0.23521900  1
  N  2316  1  0.50498600  0.12197600  0.23418200  1
  N  2319  1  0.53090800  0.14707500  0.23574100  1
  N  2323  1  0.50872100  0.18527900  0.23517600  1
  N  2329  1  0.52918200  0.12191900  0.73025300  1
  N  2332  1  0.50329400  0.14705600  0.72872700  1
  N  2336  1  0.52553000  0.18522900  0.72931700  1
  N  2342  1  0.50511000  0.76522300  0.08707500  1
  N  2345  1  0.53100600  0.76363100  0.11220000  1
  N  2349  1  0.50876500  0.76405600  0.15037600  1
  N  2355  1  0.52913300  0.26906800  0.08707500  1
  N  2358  1  0.50322500  0.27062100  0.11218600  1
  N  2362  1  0.52542800  0.27003900  0.15037900  1
  N  2368  1  0.50503300  0.26902400  0.87734300  1
  N  2371  1  0.53095200  0.27045900  0.85222900  1
  N  2375  1  0.50873600  0.26996700  0.81403900  1
  N  2381  1  0.52905900  0.76527300  0.87736400  1
  N  2384  1  0.50317100  0.76359300  0.85223500  1
  N  2388  1  0.52543000  0.76384000  0.81406600  1
  N  2394  1  0.76513200  0.91224800  0.49429000  1
  N  2397  1  0.76361700  0.88712000  0.46839200  1
  N  2401  1  0.76425700  0.84893900  0.49061800  1
  N  2407  1  0.26912100  0.91228800  0.47022100  1
  N  2410  1  0.27059700  0.88716100  0.49612300  1
  N  2414  1  0.27011300  0.84898300  0.47388800  1
  N  2420  1  0.26900400  0.12197100  0.49420600  1
  N  2423  1  0.27053800  0.14708700  0.46829700  1
  N  2427  1  0.27004700  0.18527300  0.49051700  1
  N  2433  1  0.76516500  0.12192100  0.47022200  1
  N  2436  1  0.76364300  0.14706300  0.49610900  1
  N  2440  1  0.76414700  0.18522900  0.47385500  1
  N  2446  1  0.91225100  0.50511700  0.23417100  1
  N  2449  1  0.88712500  0.53101500  0.23572700  1
  N  2453  1  0.84894700  0.50877700  0.23528200  1
  N  2459  1  0.91227700  0.52915600  0.73025500  1
  N  2462  1  0.88715500  0.50325500  0.72873900  1
  N  2466  1  0.84897100  0.52547300  0.72933300  1
  N  2472  1  0.12193100  0.50509300  0.73032600  1
  N  2475  1  0.14705800  0.53099100  0.72880200  1
  N  2479  1  0.18523600  0.50875500  0.72929600  1
  N  2485  1  0.12203200  0.52904900  0.23402300  1
  N  2488  1  0.14715400  0.50315600  0.23574700  1
  N  2492  1  0.18532700  0.52540900  0.23552800  1
  O  8  1  0.24008700  0.16193900  0.42262100  1
  O  15  1  0.29400300  0.07646500  0.33732500  1
  O  17  1  0.24589400  0.14115500  0.36166800  1
  O  18  1  0.28846700  0.13747900  0.35807300  1
  O  34  1  0.79398500  0.87218300  0.42292300  1
  O  41  1  0.74011600  0.95741700  0.33736000  1
  O  43  1  0.78852900  0.89289200  0.36187800  1
  O  44  1  0.74593800  0.89647400  0.35816300  1
  O  60  1  0.79404700  0.16198700  0.54170700  1
  O  67  1  0.74014900  0.07659300  0.62709400  1
  O  69  1  0.78840000  0.14123000  0.60269900  1
  O  70  1  0.74582200  0.13758000  0.60633700  1
  O  86  1  0.24023400  0.87222200  0.54170700  1
  O  93  1  0.29390300  0.95773500  0.62712400  1
  O  95  1  0.24584600  0.89297000  0.60270800  1
  O  96  1  0.28843500  0.89670600  0.60638400  1
  O  112  1  0.45774400  0.24030800  0.12714300  1
  O  119  1  0.37221800  0.29389200  0.04168400  1
  O  121  1  0.39670700  0.24570600  0.10638200  1
  O  122  1  0.39294700  0.28830600  0.10269600  1
  O  138  1  0.45747200  0.79417400  0.83737700  1
  O  145  1  0.37223300  0.74000500  0.92274300  1
  O  147  1  0.39654100  0.78836300  0.85821500  1
  O  148  1  0.39300500  0.74578700  0.86177600  1
  O  164  1  0.57666800  0.79402500  0.12710400  1
  O  171  1  0.66198800  0.74024100  0.04156500  1
  O  173  1  0.63763900  0.78827900  0.10633500  1
  O  174  1  0.64126100  0.74569300  0.10260500  1
  O  190  1  0.57661100  0.24003600  0.83738900  1
  O  197  1  0.66195200  0.29409500  0.92272500  1
  O  199  1  0.63757200  0.24582100  0.85817800  1
  O  200  1  0.64113700  0.28839500  0.86176700  1
  O  216  1  0.16197000  0.45743600  0.20511600  1
  O  223  1  0.07658500  0.37224600  0.25931500  1
  O  225  1  0.14109300  0.39652600  0.21096600  1
  O  226  1  0.13755200  0.39301700  0.25355600  1
  O  242  1  0.87220300  0.45774500  0.75906800  1
  O  249  1  0.95759100  0.37220500  0.70539300  1
  O  251  1  0.89292100  0.39671100  0.75357500  1
  O  252  1  0.89659900  0.39298200  0.71098300  1
  O  268  1  0.16196900  0.57663600  0.75913900  1
  O  275  1  0.07644300  0.66198400  0.70537700  1
  O  277  1  0.14119500  0.63761300  0.75343400  1
  O  278  1  0.13747000  0.64124300  0.71085400  1
  O  294  1  0.87222700  0.57664800  0.20529900  1
  O  301  1  0.95770600  0.66198700  0.25913900  1
  O  303  1  0.89298400  0.63762700  0.21102400  1
  O  304  1  0.89668400  0.64125700  0.25360400  1
  O  320  1  0.16198900  0.24019600  0.54174500  1
  O  327  1  0.07653300  0.29401900  0.62712100  1
  O  329  1  0.14121700  0.24582300  0.60273100  1
  O  330  1  0.13754000  0.28841000  0.60639300  1
  O  346  1  0.87225000  0.79400000  0.54177100  1
  O  353  1  0.95775100  0.74020200  0.62712100  1
  O  355  1  0.89302200  0.78827700  0.60274600  1
  O  356  1  0.89673100  0.74570700  0.60637300  1
  O  372  1  0.16197100  0.79415300  0.42283200  1
  O  379  1  0.07682600  0.73991100  0.33742700  1
  O  381  1  0.14116500  0.78847600  0.36186500  1
  O  382  1  0.13770000  0.74589000  0.35835100  1
  O  398  1  0.87221400  0.24005500  0.42273900  1
  O  405  1  0.95754300  0.29405500  0.33735500  1
  O  407  1  0.89297000  0.24580100  0.36176100  1
  O  408  1  0.89657700  0.28838900  0.35817300  1
  O  424  1  0.24018300  0.45758600  0.83733500  1
  O  431  1  0.29396100  0.37218800  0.92279800  1
  O  433  1  0.24584200  0.39658400  0.85806200  1
  O  434  1  0.28843400  0.39292000  0.86177600  1
  O  450  1  0.79405700  0.45764600  0.12710800  1
  O  457  1  0.74011100  0.37224600  0.04175800  1
  O  459  1  0.78841200  0.39667200  0.10631400  1
  O  460  1  0.74584000  0.39304700  0.10271500  1
  O  476  1  0.79400000  0.57658000  0.83734400  1
  O  483  1  0.74016700  0.66197000  0.92278300  1
  O  485  1  0.78836600  0.63756500  0.85812200  1
  O  486  1  0.74580200  0.64122600  0.86178600  1
  O  502  1  0.24023100  0.57658000  0.12709800  1
  O  509  1  0.29394200  0.66200700  0.04162500  1
  O  511  1  0.24586700  0.63757800  0.10635900  1
  O  512  1  0.28845000  0.64125700  0.10264500  1
  O  528  1  0.45786600  0.16202900  0.75908500  1
  O  535  1  0.37223800  0.07681400  0.70529200  1
  O  537  1  0.39680300  0.14132000  0.75373000  1
  O  538  1  0.39304100  0.13775500  0.71113300  1
  O  554  1  0.45751200  0.87221400  0.20535100  1
  O  561  1  0.37220300  0.95783600  0.25901800  1
  O  563  1  0.39653800  0.89300700  0.21102000  1
  O  564  1  0.39290400  0.89678100  0.25360800  1
  O  580  1  0.57639100  0.16199100  0.20536200  1
  O  587  1  0.66196400  0.07671700  0.25915900  1
  O  589  1  0.63742600  0.14127000  0.21084400  1
  O  590  1  0.64113800  0.13766500  0.25342600  1
  O  606  1  0.57651000  0.87224900  0.75927300  1
  O  613  1  0.66194000  0.95747000  0.70519000  1
  O  615  1  0.63749400  0.89300500  0.75357400  1
  O  616  1  0.64107100  0.89654800  0.71099300  1
  O  632  1  0.79802600  0.87677500  0.54013200  1
  O  639  1  0.73623700  0.95922900  0.62244900  1
  O  641  1  0.78817200  0.89539700  0.60157200  1
  O  642  1  0.74610800  0.89778700  0.60385300  1
  O  658  1  0.23623300  0.15742600  0.54010000  1
  O  665  1  0.29800800  0.07500600  0.62247500  1
  O  667  1  0.24612500  0.13882900  0.60153700  1
  O  668  1  0.28815100  0.13645300  0.60388400  1
  O  684  1  0.23632400  0.87686500  0.42436400  1
  O  691  1  0.29796600  0.95917300  0.34177000  1
  O  693  1  0.24618100  0.89540100  0.36290200  1
  O  694  1  0.28813500  0.89773700  0.36039800  1
  O  710  1  0.79796000  0.15733700  0.42433300  1
  O  717  1  0.73623800  0.07489300  0.34194200  1
  O  719  1  0.78809900  0.13870400  0.36290000  1
  O  720  1  0.74607500  0.13634000  0.36054300  1
  O  736  1  0.57495000  0.79798700  0.84197400  1
  O  743  1  0.65738600  0.73620300  0.92432300  1
  O  745  1  0.63639100  0.78808800  0.86055900  1
  O  746  1  0.63876900  0.74606700  0.86288300  1
  O  762  1  0.57498500  0.23624900  0.12261500  1
  O  769  1  0.65734600  0.29795200  0.04012900  1
  O  771  1  0.63643100  0.24610400  0.10402800  1
  O  772  1  0.63875900  0.28809500  0.10157500  1
  O  788  1  0.45913700  0.23630100  0.84179900  1
  O  795  1  0.37674600  0.29794400  0.92432800  1
  O  797  1  0.39770400  0.24616400  0.86040500  1
  O  798  1  0.39525100  0.28805700  0.86287000  1
  O  814  1  0.45922400  0.79797500  0.12253600  1
  O  821  1  0.37672700  0.73623800  0.04019400  1
  O  823  1  0.39776800  0.78808400  0.10400700  1
  O  824  1  0.39535700  0.74611400  0.10162300  1
  O  840  1  0.87680400  0.57499900  0.76310400  1
  O  847  1  0.95917400  0.65746600  0.70137700  1
  O  849  1  0.89533400  0.63646100  0.75322800  1
  O  850  1  0.89772900  0.63888800  0.71125800  1
  O  866  1  0.15748500  0.57495200  0.20132800  1
  O  873  1  0.07498400  0.65722000  0.26312000  1
  O  875  1  0.13881200  0.63637300  0.21120100  1
  O  876  1  0.13643200  0.63862700  0.25327900  1
  O  892  1  0.87678500  0.45923700  0.20140600  1
  O  899  1  0.95918600  0.37676600  0.26308400  1
  O  901  1  0.89537600  0.39779300  0.21126600  1
  O  902  1  0.89775200  0.39540100  0.25325600  1
  O  918  1  0.15740200  0.45920600  0.76310500  1
  O  925  1  0.07495900  0.37678400  0.70140300  1
  O  927  1  0.13881500  0.39776200  0.75322800  1
  O  928  1  0.13640900  0.39535700  0.71126400  1
  O  944  1  0.87675000  0.79794900  0.42432300  1
  O  951  1  0.95919700  0.73625800  0.34188700  1
  O  953  1  0.89530400  0.78805700  0.36287900  1
  O  954  1  0.89776400  0.74612600  0.36049900  1
  O  970  1  0.15734200  0.23621100  0.42438700  1
  O  977  1  0.07494000  0.29797700  0.34200000  1
  O  979  1  0.13870200  0.24604700  0.36294900  1
  O  980  1  0.13637400  0.28810600  0.36062600  1
  O  996  1  0.87679300  0.23625600  0.54016000  1
  O  1003  1  0.95920300  0.29797400  0.62259700  1
  O  1005  1  0.89539700  0.24613300  0.60159800  1
  O  1006  1  0.89775200  0.28811500  0.60403300  1
  O  1022  1  0.15744600  0.79797400  0.54019900  1
  O  1029  1  0.07504400  0.73623000  0.62262300  1
  O  1031  1  0.13887800  0.78810300  0.60165000  1
  O  1032  1  0.13649600  0.74613600  0.60408400  1
  O  1048  1  0.79799400  0.57503600  0.12249900  1
  O  1055  1  0.73621400  0.65748500  0.04014700  1
  O  1057  1  0.78809400  0.63648100  0.10393200  1
  O  1058  1  0.74610900  0.63891300  0.10159000  1
  O  1074  1  0.23621900  0.57494000  0.84190900  1
  O  1081  1  0.29796200  0.65732600  0.92433800  1
  O  1083  1  0.24606600  0.63638400  0.86051400  1
  O  1084  1  0.28808700  0.63873600  0.86289400  1
  O  1100  1  0.23630000  0.45921600  0.12239000  1
  O  1107  1  0.29799700  0.37668400  0.04007200  1
  O  1109  1  0.24615000  0.39777400  0.10379200  1
  O  1110  1  0.28817400  0.39530300  0.10151500  1
  O  1126  1  0.79795100  0.45919900  0.84181500  1
  O  1133  1  0.73630400  0.37682900  0.92434600  1
  O  1135  1  0.78809200  0.39775800  0.86040900  1
  O  1136  1  0.74612400  0.39540800  0.86289100  1
  O  1152  1  0.57491900  0.87682200  0.20136700  1
  O  1159  1  0.65733700  0.95924600  0.26308900  1
  O  1161  1  0.63636500  0.89542100  0.21120400  1
  O  1162  1  0.63870700  0.89781000  0.25324200  1
  O  1178  1  0.57503800  0.15734100  0.76312900  1
  O  1185  1  0.65741900  0.07494800  0.70133700  1
  O  1187  1  0.63648100  0.13873000  0.75326700  1
  O  1188  1  0.63883000  0.13639000  0.71122900  1
  O  1204  1  0.45913700  0.87689000  0.76304000  1
  O  1211  1  0.37667300  0.95929800  0.70135300  1
  O  1213  1  0.39770200  0.89554600  0.75323700  1
  O  1214  1  0.39523600  0.89785400  0.71124600  1
  O  1230  1  0.45914000  0.15754800  0.20137900  1
  O  1237  1  0.37677000  0.07504700  0.26306800  1
  O  1239  1  0.39768900  0.13899500  0.21125100  1
  O  1240  1  0.39527600  0.13651100  0.25317400  1
