# generated using pymatgen
data_H27(C17N2)2
_symmetry_space_group_name_H-M   'P 1'
_cell_length_a   35.24780000
_cell_length_b   50.23510000
_cell_length_c   92.29210000
_cell_angle_alpha   90.00000000
_cell_angle_beta   90.00000000
_cell_angle_gamma   90.08060000
_symmetry_Int_Tables_number   1
_chemical_formula_structural   H27(C17N2)2
_chemical_formula_sum   'H864 C1088 N128'
_cell_volume   163419.31470097
_cell_formula_units_Z   32
loop_
 _symmetry_equiv_pos_site_id
 _symmetry_equiv_pos_as_xyz
  1  'x, y, z'
loop_
 _atom_site_type_symbol
 _atom_site_label
 _atom_site_symmetry_multiplicity
 _atom_site_fract_x
 _atom_site_fract_y
 _atom_site_fract_z
 _atom_site_occupancy
  H  49  1  0.61814900  0.74988400  0.80391600  1
  H  50  1  0.65204300  0.74652900  0.82639400  1
  H  51  1  0.72209400  0.75773200  0.78150400  1
  H  52  1  0.75582000  0.75418200  0.80397000  1
  H  53  1  0.71623200  0.69613000  0.82048200  1
  H  54  1  0.74274500  0.65970300  0.83659400  1
  H  55  1  0.76363400  0.73126300  0.85601500  1
  H  56  1  0.78912900  0.76363600  0.87175300  1
  H  57  1  0.71767500  0.80336700  0.82130100  1
  H  58  1  0.74465300  0.83826800  0.83837200  1
  H  59  1  0.72453800  0.85353500  0.87138000  1
  H  60  1  0.73007100  0.90106200  0.87127200  1
  H  61  1  0.83830500  0.84693600  0.85764600  1
  H  62  1  0.84405600  0.89440600  0.85751600  1
  H  63  1  0.80347200  0.83509600  0.89214700  1
  H  64  1  0.82085500  0.79853000  0.90986100  1
  H  65  1  0.81063300  0.65664500  0.88891100  1
  H  66  1  0.82870800  0.69156900  0.90756600  1
  H  67  1  0.88270500  0.75216300  0.91109600  1
  H  68  1  0.89958400  0.74762500  0.93624900  1
  H  69  1  0.76841800  0.73545800  0.92141600  1
  H  70  1  0.78517500  0.73048800  0.94634000  1
  H  71  1  0.72463800  0.64166400  0.86970300  1
  H  72  1  0.73015900  0.59429400  0.87043100  1
  H  73  1  0.84339200  0.60027400  0.85563100  1
  H  74  1  0.83751900  0.64764200  0.85489000  1
  H  79  1  0.86602000  0.71785600  0.96063100  1
  H  80  1  0.76626600  0.94047900  0.86188500  1
  H  81  1  0.65635900  0.77178600  0.77084100  1
  H  82  1  0.76746800  0.55431700  0.86746700  1
  H  131  1  0.61845500  0.74483600  0.19087400  1
  H  132  1  0.65239200  0.74833100  0.16841400  1
  H  133  1  0.72228600  0.73614700  0.21325200  1
  H  134  1  0.75605900  0.73983600  0.19079900  1
  H  135  1  0.71744300  0.79830800  0.17459300  1
  H  136  1  0.74372800  0.83489300  0.15849700  1
  H  137  1  0.76304100  0.76355700  0.13863600  1
  H  138  1  0.78895100  0.73133800  0.12287400  1
  H  139  1  0.71796400  0.69110300  0.17335700  1
  H  140  1  0.74493600  0.65639300  0.15620600  1
  H  141  1  0.72477500  0.64125800  0.12309800  1
  H  142  1  0.73033700  0.59374300  0.12321900  1
  H  143  1  0.83839800  0.64812200  0.13699900  1
  H  144  1  0.84417300  0.60066500  0.13714800  1
  H  145  1  0.80221400  0.66003500  0.10224600  1
  H  146  1  0.81831100  0.69674000  0.08442400  1
  H  147  1  0.80857900  0.83849700  0.10562600  1
  H  148  1  0.82562900  0.80372000  0.08676400  1
  H  149  1  0.87811100  0.74276300  0.08137000  1
  H  150  1  0.89012100  0.74753800  0.05579700  1
  H  151  1  0.76232600  0.76000900  0.07434900  1
  H  152  1  0.77420400  0.76513700  0.04901800  1
  H  153  1  0.72386100  0.85316700  0.12573400  1
  H  154  1  0.72936900  0.90054900  0.12502100  1
  H  155  1  0.84363000  0.89467200  0.13860300  1
  H  156  1  0.83776800  0.84729400  0.13934000  1
  H  161  1  0.82879300  0.77756200  0.03105700  1
  H  162  1  0.76644400  0.55442400  0.13269100  1
  H  163  1  0.65649200  0.72244700  0.22392600  1
  H  164  1  0.76712700  0.94053000  0.12740700  1
  H  213  1  0.04588900  0.24886400  0.19094400  1
  H  214  1  0.01198900  0.24560600  0.16846700  1
  H  215  1  0.94226100  0.25976200  0.21316700  1
  H  216  1  0.90852800  0.25634400  0.19069800  1
  H  217  1  0.94491400  0.19697600  0.17503900  1
  H  218  1  0.91866500  0.16033000  0.15901700  1
  H  219  1  0.90313600  0.23130300  0.13828900  1
  H  220  1  0.87670300  0.26341800  0.12272200  1
  H  221  1  0.94887400  0.30410000  0.17276600  1
  H  222  1  0.92166800  0.33874600  0.15559300  1
  H  223  1  0.93534800  0.35236000  0.11893600  1
  H  224  1  0.92969900  0.39969900  0.11756400  1
  H  225  1  0.82995900  0.34801500  0.14046000  1
  H  226  1  0.82411900  0.39536900  0.13920400  1
  H  227  1  0.85634100  0.33471200  0.10294600  1
  H  228  1  0.83922100  0.29797400  0.08532000  1
  H  229  1  0.85699800  0.15615800  0.10555600  1
  H  230  1  0.83837500  0.19087500  0.08687000  1
  H  231  1  0.78054800  0.24918100  0.08394300  1
  H  232  1  0.76357100  0.24492400  0.05879000  1
  H  233  1  0.89576800  0.23760800  0.07316500  1
  H  234  1  0.87895600  0.23295500  0.04824100  1
  H  235  1  0.94138200  0.14085600  0.12800800  1
  H  236  1  0.93566500  0.09338600  0.12891600  1
  H  237  1  0.81919000  0.10094300  0.13898700  1
  H  238  1  0.82517500  0.14836800  0.13814700  1
  H  243  1  0.79632400  0.21838200  0.03415100  1
  H  244  1  0.89605800  0.44032100  0.12343400  1
  H  245  1  0.00809100  0.27215900  0.22397500  1
  H  246  1  0.89724900  0.05442900  0.13758600  1
  H  295  1  0.04547200  0.24633400  0.80369500  1
  H  296  1  0.01149800  0.24973000  0.82614200  1
  H  297  1  0.94198900  0.23446800  0.78148800  1
  H  298  1  0.90817800  0.23801800  0.80393100  1
  H  299  1  0.94389200  0.29785400  0.81935600  1
  H  300  1  0.91792500  0.33457600  0.83536500  1
  H  301  1  0.90341100  0.26377400  0.85640500  1
  H  302  1  0.87697500  0.23173500  0.87209500  1
  H  303  1  0.94829400  0.19077600  0.82196800  1
  H  304  1  0.92120900  0.15623600  0.83925800  1
  H  305  1  0.93509000  0.14282100  0.87604000  1
  H  306  1  0.92938100  0.09547200  0.87738700  1
  H  307  1  0.82992300  0.14703500  0.85436100  1
  H  308  1  0.82403900  0.09966900  0.85558300  1
  H  309  1  0.85780000  0.16055900  0.89220400  1
  H  310  1  0.84221600  0.19738800  0.90995500  1
  H  311  1  0.85897200  0.33908000  0.88926300  1
  H  312  1  0.84157200  0.30447200  0.90819800  1
  H  313  1  0.78571000  0.24486900  0.91321600  1
  H  314  1  0.77377500  0.24935600  0.93881200  1
  H  315  1  0.90234200  0.25888600  0.92046900  1
  H  316  1  0.89055900  0.26374200  0.94582500  1
  H  317  1  0.94191500  0.35433100  0.86607000  1
  H  318  1  0.93617600  0.40178600  0.86516100  1
  H  319  1  0.81914100  0.39399800  0.85608300  1
  H  320  1  0.82514500  0.34659100  0.85692400  1
  H  325  1  0.83572800  0.27755400  0.96371800  1
  H  326  1  0.89579600  0.05480800  0.87142800  1
  H  327  1  0.00775900  0.22243500  0.77070100  1
  H  328  1  0.89737600  0.44068100  0.85690200  1
  H  377  1  0.11304500  0.26724200  0.30898500  1
  H  378  1  0.15277200  0.26318300  0.32987000  1
  H  379  1  0.20357300  0.24172200  0.28241100  1
  H  380  1  0.24345900  0.23805100  0.30337700  1
  H  381  1  0.20805500  0.19592000  0.32239500  1
  H  382  1  0.23623000  0.15938200  0.33796900  1
  H  383  1  0.26866000  0.23091500  0.35494600  1
  H  384  1  0.29106700  0.26314600  0.37161600  1
  H  385  1  0.22045900  0.30303900  0.32105900  1
  H  386  1  0.24844300  0.33777700  0.33801400  1
  H  387  1  0.22556500  0.35288100  0.37115700  1
  H  388  1  0.23093900  0.40041100  0.37108500  1
  H  389  1  0.33990700  0.34646500  0.35810100  1
  H  390  1  0.34548800  0.39394900  0.35799200  1
  H  391  1  0.30300300  0.33433500  0.39250000  1
  H  392  1  0.32009900  0.29759100  0.41016200  1
  H  393  1  0.31424900  0.15615400  0.38808800  1
  H  394  1  0.33204000  0.19086500  0.40690000  1
  H  395  1  0.38303900  0.25273600  0.41131800  1
  H  396  1  0.39955100  0.24809800  0.43650600  1
  H  397  1  0.26946300  0.23288300  0.42112800  1
  H  398  1  0.28588400  0.22781700  0.44609000  1
  H  399  1  0.22630300  0.14148800  0.37054300  1
  H  400  1  0.23163700  0.09410400  0.37126000  1
  H  401  1  0.34276700  0.09965200  0.35424900  1
  H  402  1  0.33706800  0.14702600  0.35351500  1
  H  407  1  0.36499000  0.21639300  0.46074400  1
  H  408  1  0.26728400  0.43987100  0.36195200  1
  H  409  1  0.11345900  0.27381200  0.28150300  1
  H  410  1  0.26784900  0.05392300  0.36720100  1
  H  459  1  0.11328000  0.22662600  0.68581000  1
  H  460  1  0.15309000  0.23061200  0.66493900  1
  H  461  1  0.20389900  0.25208000  0.71240900  1
  H  462  1  0.24387000  0.25567200  0.69145600  1
  H  463  1  0.20878700  0.29784500  0.67258000  1
  H  464  1  0.23673500  0.33448300  0.65698700  1
  H  465  1  0.26860400  0.26307200  0.63978800  1
  H  466  1  0.29083200  0.23093700  0.62303000  1
  H  467  1  0.22081600  0.19073100  0.67368800  1
  H  468  1  0.24868700  0.15611300  0.65666600  1
  H  469  1  0.22565900  0.14103700  0.62343200  1
  H  470  1  0.23106700  0.09352000  0.62351100  1
  H  471  1  0.33990200  0.14772300  0.63660600  1
  H  472  1  0.34551100  0.10025200  0.63673200  1
  H  473  1  0.30159900  0.15983600  0.60198700  1
  H  474  1  0.31748000  0.19666900  0.58419600  1
  H  475  1  0.31247300  0.33804900  0.60639000  1
  H  476  1  0.32918600  0.30341500  0.58739800  1
  H  477  1  0.37842000  0.24128800  0.58117900  1
  H  478  1  0.38998100  0.24601500  0.55557500  1
  H  479  1  0.26342300  0.26148700  0.57466200  1
  H  480  1  0.27486800  0.26654800  0.54930300  1
  H  481  1  0.22564500  0.35248500  0.62469400  1
  H  482  1  0.23097000  0.39988400  0.62398300  1
  H  483  1  0.34306200  0.39445000  0.64003700  1
  H  484  1  0.33736500  0.34706900  0.64077500  1
  H  489  1  0.32871500  0.27730900  0.53099400  1
  H  490  1  0.26736400  0.05415100  0.63269900  1
  H  491  1  0.11358100  0.22014200  0.71331900  1
  H  492  1  0.26761600  0.44007900  0.62758500  1
  H  541  1  0.55210200  0.76653000  0.68571900  1
  H  542  1  0.51235200  0.76259500  0.66481900  1
  H  543  1  0.46045400  0.74325800  0.71239300  1
  H  544  1  0.42054500  0.73975500  0.69141600  1
  H  545  1  0.45421000  0.69653600  0.67311100  1
  H  546  1  0.42639500  0.65980100  0.65760600  1
  H  547  1  0.39808700  0.73102800  0.63931200  1
  H  548  1  0.37541600  0.76290400  0.62281300  1
  H  549  1  0.44660100  0.80384500  0.67301000  1
  H  550  1  0.41856200  0.83833100  0.65593800  1
  H  551  1  0.43523300  0.85174400  0.61910000  1
  H  552  1  0.42981100  0.89908700  0.61769600  1
  H  553  1  0.32890200  0.84756400  0.63995300  1
  H  554  1  0.32329600  0.89493200  0.63867500  1
  H  555  1  0.35757400  0.83400400  0.60249100  1
  H  556  1  0.34069600  0.79710000  0.58492500  1
  H  557  1  0.35380300  0.65558700  0.60629400  1
  H  558  1  0.33548200  0.69011400  0.58746400  1
  H  559  1  0.28067500  0.74979300  0.58372900  1
  H  560  1  0.26394500  0.74542700  0.55855300  1
  H  561  1  0.39539700  0.73501500  0.57334800  1
  H  562  1  0.37880100  0.73024500  0.54839700  1
  H  563  1  0.44057500  0.64057100  0.62690900  1
  H  564  1  0.43517000  0.59306600  0.62780300  1
  H  565  1  0.32033200  0.60031000  0.64037600  1
  H  566  1  0.32604300  0.64775400  0.63958800  1
  H  571  1  0.29758700  0.71697000  0.53401900  1
  H  572  1  0.39598200  0.93973600  0.62324700  1
  H  573  1  0.55134500  0.77399000  0.71325800  1
  H  574  1  0.39796200  0.55400800  0.63748600  1
  H  623  1  0.55181600  0.72787300  0.30896400  1
  H  624  1  0.51202900  0.73185500  0.32984500  1
  H  625  1  0.46004800  0.75038600  0.28220200  1
  H  626  1  0.42010000  0.75393400  0.30316500  1
  H  627  1  0.45313200  0.79755600  0.32123000  1
  H  628  1  0.42552100  0.83433100  0.33672300  1
  H  629  1  0.39847300  0.76318100  0.35544100  1
  H  630  1  0.37559200  0.73136400  0.37198200  1
  H  631  1  0.44616900  0.69023700  0.32172100  1
  H  632  1  0.41823300  0.65581800  0.33889200  1
  H  633  1  0.43509100  0.64257500  0.37581900  1
  H  634  1  0.42961800  0.59522400  0.37721000  1
  H  635  1  0.32890500  0.64660600  0.35486400  1
  H  636  1  0.32325700  0.59923000  0.35612200  1
  H  637  1  0.35908900  0.66036600  0.39260500  1
  H  638  1  0.34363500  0.69734200  0.41028900  1
  H  639  1  0.35570100  0.83875500  0.38857700  1
  H  640  1  0.33855100  0.80430100  0.40763200  1
  H  641  1  0.28576200  0.74358000  0.41341200  1
  H  642  1  0.27421000  0.74805100  0.43903200  1
  H  643  1  0.40184900  0.76030600  0.42023600  1
  H  644  1  0.39043000  0.76512800  0.44561400  1
  H  645  1  0.44111900  0.85377100  0.36720400  1
  H  646  1  0.43568900  0.90126100  0.36630400  1
  H  647  1  0.32015900  0.89377600  0.35469600  1
  H  648  1  0.32588700  0.84634700  0.35549100  1
  H  653  1  0.33614800  0.77741000  0.46380700  1
  H  654  1  0.39581200  0.55452600  0.37160100  1
  H  655  1  0.55099300  0.72004300  0.28142200  1
  H  656  1  0.39804400  0.94025000  0.35700900  1
  H  664  1  0.94296200  0.75937900  0.00701700  1
  H  665  1  0.92451600  0.73717300  0.01978900  1
  H  666  1  0.91372400  0.77160100  0.02087600  1
  H  668  1  0.90912600  0.76662500  0.96976200  1
  H  669  1  0.93703700  0.74851200  0.98202500  1
  H  670  1  0.92403700  0.78208100  0.98571000  1
  H  672  1  0.78651600  0.72166100  0.02482500  1
  H  673  1  0.77043700  0.70816900  0.00857100  1
  H  674  1  0.75833000  0.74134900  0.01338200  1
  H  676  1  0.77477900  0.74313100  0.97123800  1
  H  677  1  0.75316700  0.74913900  0.98783600  1
  H  678  1  0.76650400  0.71623100  0.98294200  1
  H  688  1  0.72135900  0.25910400  0.98775800  1
  H  689  1  0.73978800  0.23703000  0.97493800  1
  H  690  1  0.75053700  0.27149300  0.97390200  1
  H  692  1  0.75558800  0.26689500  0.02493500  1
  H  693  1  0.72744700  0.24855900  0.01281100  1
  H  694  1  0.74057600  0.28205700  0.00893700  1
  H  696  1  0.87756400  0.22150000  0.96984000  1
  H  697  1  0.89380600  0.20814300  0.98609200  1
  H  698  1  0.90588600  0.24131300  0.98120300  1
  H  700  1  0.88978200  0.24321200  0.02336700  1
  H  701  1  0.91126800  0.24907300  0.00673600  1
  H  702  1  0.89784700  0.21620300  0.01172500  1
  H  712  1  0.44323900  0.25922500  0.50709600  1
  H  713  1  0.42477200  0.23705100  0.51988300  1
  H  714  1  0.41378700  0.27145900  0.52088000  1
  H  716  1  0.41003700  0.26547300  0.46970900  1
  H  717  1  0.43771200  0.24773000  0.48219900  1
  H  718  1  0.42465300  0.28139900  0.48556900  1
  H  720  1  0.28659600  0.22162500  0.52477300  1
  H  721  1  0.27086800  0.20777200  0.50855700  1
  H  722  1  0.25853500  0.24101800  0.51314200  1
  H  724  1  0.27565400  0.24208200  0.47103100  1
  H  725  1  0.25377400  0.24849600  0.48754100  1
  H  726  1  0.26717400  0.21547700  0.48290500  1
  H  736  1  0.22149400  0.75890000  0.48770100  1
  H  737  1  0.23997200  0.73688600  0.47485800  1
  H  738  1  0.25083200  0.77133800  0.47391400  1
  H  740  1  0.25516400  0.76577900  0.52500100  1
  H  741  1  0.22726200  0.74776000  0.51266800  1
  H  742  1  0.24037500  0.78136900  0.50908700  1
  H  744  1  0.37792700  0.72153900  0.46987600  1
  H  745  1  0.39391100  0.70788500  0.48609400  1
  H  746  1  0.40611300  0.74112600  0.48139900  1
  H  748  1  0.38945700  0.74239200  0.52354000  1
  H  749  1  0.41115700  0.74860400  0.50698000  1
  H  750  1  0.39773800  0.71562800  0.51175600  1
  H  760  1  0.79673700  0.02264900  0.89835600  1
  H  761  1  0.79175500  0.04729600  0.88516500  1
  H  762  1  0.83634100  0.04189700  0.89358900  1
  H  764  1  0.80247300  0.95121500  0.89152600  1
  H  765  1  0.77352100  0.97933100  0.89364500  1
  H  766  1  0.82051300  0.97876900  0.90073400  1
  H  768  1  0.86682200  0.04314000  0.83933500  1
  H  769  1  0.84652900  0.01685500  0.82968200  1
  H  770  1  0.89298900  0.01385700  0.83697300  1
  H  772  1  0.84895500  0.94266600  0.84199000  1
  H  773  1  0.88374400  0.96637600  0.83806600  1
  H  774  1  0.83721400  0.96963400  0.83087500  1
  H  784  1  0.79709400  0.47218300  0.09637400  1
  H  785  1  0.79204500  0.44757800  0.10959100  1
  H  786  1  0.83667100  0.45302400  0.10119000  1
  H  788  1  0.80283400  0.54365300  0.10312200  1
  H  789  1  0.77387100  0.51548000  0.10101800  1
  H  790  1  0.82089700  0.51609200  0.09396000  1
  H  792  1  0.86690300  0.45205100  0.15546400  1
  H  793  1  0.84657200  0.47833300  0.16507400  1
  H  794  1  0.89306700  0.48139100  0.15781000  1
  H  796  1  0.84906000  0.55247900  0.15268400  1
  H  797  1  0.88383000  0.52885000  0.15665800  1
  H  798  1  0.83726400  0.52553000  0.16382000  1
  H  808  1  0.86790100  0.97186100  0.09978100  1
  H  809  1  0.87279300  0.94743600  0.11311400  1
  H  810  1  0.82829000  0.95269500  0.10460300  1
  H  812  1  0.86483300  0.04332900  0.10670100  1
  H  813  1  0.89266900  0.01463500  0.10480900  1
  H  814  1  0.84617800  0.01617400  0.09729500  1
  H  816  1  0.79654900  0.95232800  0.15868600  1
  H  817  1  0.81592600  0.97901000  0.16826800  1
  H  818  1  0.76977500  0.98146200  0.16063600  1
  H  820  1  0.81329400  0.05282700  0.15542500  1
  H  821  1  0.77866100  0.02897700  0.15926200  1
  H  822  1  0.82482700  0.02623600  0.16685100  1
  H  832  1  0.86838700  0.52312200  0.89493500  1
  H  833  1  0.87319400  0.54758800  0.88161300  1
  H  834  1  0.82874600  0.54221700  0.89016200  1
  H  836  1  0.86541400  0.45166900  0.88795100  1
  H  837  1  0.89319500  0.48044300  0.88983700  1
  H  838  1  0.84677300  0.47873300  0.89740700  1
  H  840  1  0.79661900  0.54263300  0.83611600  1
  H  841  1  0.81591700  0.51600700  0.82649600  1
  H  842  1  0.76982600  0.51345400  0.83418000  1
  H  844  1  0.81335100  0.44215600  0.83930600  1
  H  845  1  0.77870500  0.46595800  0.83552000  1
  H  846  1  0.82481000  0.46878400  0.82787700  1
  H  856  1  0.29705600  0.52204900  0.39858300  1
  H  857  1  0.29180800  0.54666400  0.38538500  1
  H  858  1  0.33646900  0.54147400  0.39379300  1
  H  860  1  0.30328900  0.45063900  0.39174200  1
  H  861  1  0.27414700  0.47865400  0.39386400  1
  H  862  1  0.32114000  0.47825000  0.40095700  1
  H  864  1  0.36677200  0.54281400  0.33952500  1
  H  865  1  0.34676500  0.51640200  0.32988700  1
  H  866  1  0.39326400  0.51367100  0.33717300  1
  H  868  1  0.34999600  0.44225200  0.34223400  1
  H  869  1  0.38450000  0.46614600  0.33828200  1
  H  870  1  0.33791900  0.46913000  0.33110500  1
  H  880  1  0.29730900  0.97195800  0.59617400  1
  H  881  1  0.29201200  0.94736600  0.60938500  1
  H  882  1  0.33670200  0.95262200  0.60099700  1
  H  884  1  0.30352500  0.04339600  0.60296300  1
  H  885  1  0.27438000  0.01532100  0.60084800  1
  H  886  1  0.32139800  0.01579500  0.59378000  1
  H  888  1  0.36682500  0.95147700  0.65528100  1
  H  889  1  0.34678200  0.97786900  0.66489000  1
  H  890  1  0.39330400  0.98068000  0.65762400  1
  H  892  1  0.35003000  0.05199800  0.65249300  1
  H  893  1  0.38453100  0.02818400  0.65647900  1
  H  894  1  0.33792400  0.02512000  0.66363600  1
  H  904  1  0.36836600  0.47147500  0.60005700  1
  H  905  1  0.37319200  0.44701500  0.61337300  1
  H  906  1  0.32871800  0.45231200  0.60484700  1
  H  908  1  0.36486200  0.54294400  0.60694800  1
  H  909  1  0.39289200  0.51434200  0.60504400  1
  H  910  1  0.34634800  0.51571900  0.59757100  1
  H  912  1  0.29695700  0.45182300  0.65893800  1
  H  913  1  0.31645100  0.47843700  0.66854300  1
  H  914  1  0.27028000  0.48098700  0.66093800  1
  H  916  1  0.31397700  0.55230900  0.65579200  1
  H  917  1  0.27926200  0.52850300  0.65960900  1
  H  918  1  0.32544400  0.52564200  0.66717100  1
  H  928  1  0.36874000  0.02270800  0.39462700  1
  H  929  1  0.37350100  0.04718700  0.38131400  1
  H  930  1  0.32906700  0.04179300  0.38986900  1
  H  932  1  0.36537000  0.95124400  0.38769700  1
  H  933  1  0.39333200  0.97993500  0.38958700  1
  H  934  1  0.34685000  0.97838800  0.39711200  1
  H  936  1  0.29699700  0.04225500  0.33580900  1
  H  937  1  0.31641700  0.01568100  0.32618200  1
  H  938  1  0.27029700  0.01304400  0.33383300  1
  H  940  1  0.31399400  0.94179800  0.33893100  1
  H  941  1  0.27926800  0.96554700  0.33514900  1
  H  942  1  0.32539900  0.96848400  0.32754000  1
  H  952  1  0.51999200  0.77055300  0.77577800  1
  H  953  1  0.56703400  0.77923900  0.77952800  1
  H  954  1  0.54971400  0.74705700  0.78393100  1
  H  956  1  0.48558500  0.76206100  0.73885000  1
  H  957  1  0.50090800  0.78395100  0.75237900  1
  H  958  1  0.48392800  0.75158000  0.75689300  1
  H  960  1  0.66903700  0.71907300  0.75833400  1
  H  961  1  0.67273700  0.73005100  0.74037600  1
  H  962  1  0.65280900  0.69842800  0.74449400  1
  H  964  1  0.58987200  0.72071500  0.71226400  1
  H  965  1  0.61594700  0.69903000  0.72312600  1
  H  966  1  0.63468600  0.73070200  0.71836000  1
  H  976  1  0.52018000  0.72339500  0.21887700  1
  H  977  1  0.56724700  0.71481200  0.21517400  1
  H  978  1  0.54994300  0.74695400  0.21075200  1
  H  980  1  0.48550000  0.73186900  0.25576500  1
  H  981  1  0.50090800  0.70999100  0.24225900  1
  H  982  1  0.48397900  0.74233000  0.23771700  1
  H  984  1  0.66910000  0.77517900  0.23646600  1
  H  985  1  0.67267700  0.76421000  0.25442700  1
  H  986  1  0.65278100  0.79579400  0.25029000  1
  H  988  1  0.58963100  0.77337700  0.28246000  1
  H  989  1  0.61577700  0.79511600  0.27162400  1
  H  990  1  0.63448200  0.76348000  0.27640300  1
  H  1000  1  0.14427200  0.27093400  0.21902300  1
  H  1001  1  0.09725100  0.27963400  0.21531800  1
  H  1002  1  0.11445800  0.24750500  0.21081600  1
  H  1004  1  0.17880200  0.26201800  0.25590400  1
  H  1005  1  0.16352500  0.28406500  0.24245700  1
  H  1006  1  0.18033700  0.25174200  0.23782500  1
  H  1008  1  0.99510300  0.21925700  0.23638700  1
  H  1009  1  0.99149500  0.23006800  0.25437500  1
  H  1010  1  0.01129100  0.19848700  0.25016500  1
  H  1012  1  0.07437600  0.22053800  0.28243600  1
  H  1013  1  0.04820100  0.19891900  0.27153400  1
  H  1014  1  0.02959000  0.23055400  0.27637000  1
  H  1024  1  0.14391800  0.22342100  0.77579500  1
  H  1025  1  0.09680000  0.21483900  0.77947200  1
  H  1026  1  0.11423900  0.24696300  0.78393000  1
  H  1028  1  0.17876800  0.23205300  0.73893300  1
  H  1029  1  0.16323200  0.21011100  0.75240500  1
  H  1030  1  0.18025800  0.24243400  0.75699600  1
  H  1032  1  0.99530100  0.27531300  0.75819700  1
  H  1033  1  0.99170100  0.26438500  0.74022700  1
  H  1034  1  0.01175100  0.29594900  0.74438900  1
  H  1036  1  0.07483000  0.27352900  0.71221700  1
  H  1037  1  0.04878600  0.29528700  0.72305200  1
  H  1038  1  0.02992500  0.26366100  0.71826900  1
  H  1089  1  0.36281400  0.67025800  0.80391600  1
  H  1090  1  0.39670800  0.66690300  0.82639400  1
  H  1091  1  0.46675900  0.67810600  0.78150400  1
  H  1092  1  0.50048500  0.67455600  0.80397000  1
  H  1093  1  0.46089700  0.61650400  0.82048200  1
  H  1094  1  0.48741000  0.58007700  0.83659400  1
  H  1095  1  0.50829900  0.65163700  0.85601500  1
  H  1096  1  0.53379400  0.68401000  0.87175300  1
  H  1097  1  0.46234000  0.72374100  0.82130100  1
  H  1098  1  0.48931800  0.75864200  0.83837200  1
  H  1099  1  0.46920300  0.77390900  0.87138000  1
  H  1100  1  0.47473600  0.82143600  0.87127200  1
  H  1101  1  0.58297000  0.76731000  0.85764600  1
  H  1102  1  0.58872100  0.81478000  0.85751600  1
  H  1103  1  0.54813700  0.75547000  0.89214700  1
  H  1104  1  0.56552000  0.71890400  0.90986100  1
  H  1105  1  0.55529800  0.57701900  0.88891100  1
  H  1106  1  0.57337300  0.61194300  0.90756600  1
  H  1107  1  0.62737000  0.67253700  0.91109600  1
  H  1108  1  0.64424900  0.66799900  0.93624900  1
  H  1109  1  0.51308300  0.65583200  0.92141600  1
  H  1110  1  0.52984000  0.65086200  0.94634000  1
  H  1111  1  0.46930300  0.56203800  0.86970300  1
  H  1112  1  0.47482400  0.51466800  0.87043100  1
  H  1113  1  0.58805700  0.52064800  0.85563100  1
  H  1114  1  0.58218400  0.56801600  0.85489000  1
  H  1119  1  0.61068500  0.63823000  0.96063100  1
  H  1120  1  0.51093100  0.86085300  0.86188500  1
  H  1121  1  0.40102400  0.69216000  0.77084100  1
  H  1122  1  0.51213300  0.47469100  0.86746700  1
  H  1171  1  0.36312000  0.66521000  0.19087400  1
  H  1172  1  0.39705700  0.66870500  0.16841400  1
  H  1173  1  0.46695100  0.65652100  0.21325200  1
  H  1174  1  0.50072400  0.66021000  0.19079900  1
  H  1175  1  0.46210800  0.71868200  0.17459300  1
  H  1176  1  0.48839300  0.75526700  0.15849700  1
  H  1177  1  0.50770600  0.68393100  0.13863600  1
  H  1178  1  0.53361600  0.65171200  0.12287400  1
  H  1179  1  0.46262900  0.61147700  0.17335700  1
  H  1180  1  0.48960100  0.57676700  0.15620600  1
  H  1181  1  0.46944000  0.56163200  0.12309800  1
  H  1182  1  0.47500200  0.51411700  0.12321900  1
  H  1183  1  0.58306300  0.56849600  0.13699900  1
  H  1184  1  0.58883800  0.52103900  0.13714800  1
  H  1185  1  0.54687900  0.58040900  0.10224600  1
  H  1186  1  0.56297600  0.61711400  0.08442400  1
  H  1187  1  0.55324400  0.75887100  0.10562600  1
  H  1188  1  0.57029400  0.72409400  0.08676400  1
  H  1189  1  0.62277600  0.66313700  0.08137000  1
  H  1190  1  0.63478600  0.66791200  0.05579700  1
  H  1191  1  0.50699100  0.68038300  0.07434900  1
  H  1192  1  0.51886900  0.68551100  0.04901800  1
  H  1193  1  0.46852600  0.77354100  0.12573400  1
  H  1194  1  0.47403400  0.82092300  0.12502100  1
  H  1195  1  0.58829500  0.81504600  0.13860300  1
  H  1196  1  0.58243300  0.76766800  0.13934000  1
  H  1201  1  0.57345800  0.69793600  0.03105700  1
  H  1202  1  0.51110900  0.47479800  0.13269100  1
  H  1203  1  0.40115700  0.64282100  0.22392600  1
  H  1204  1  0.51179200  0.86090400  0.12740700  1
  H  1253  1  0.79055400  0.16923800  0.19094400  1
  H  1254  1  0.75665400  0.16598000  0.16846700  1
  H  1255  1  0.68692600  0.18013600  0.21316700  1
  H  1256  1  0.65319300  0.17671800  0.19069800  1
  H  1257  1  0.68957900  0.11735000  0.17503900  1
  H  1258  1  0.66333000  0.08070400  0.15901700  1
  H  1259  1  0.64780100  0.15167700  0.13828900  1
  H  1260  1  0.62136800  0.18379200  0.12272200  1
  H  1261  1  0.69353900  0.22447400  0.17276600  1
  H  1262  1  0.66633300  0.25912000  0.15559300  1
  H  1263  1  0.68001300  0.27273400  0.11893600  1
  H  1264  1  0.67436400  0.32007300  0.11756400  1
  H  1265  1  0.57462400  0.26838900  0.14046000  1
  H  1266  1  0.56878400  0.31574300  0.13920400  1
  H  1267  1  0.60100600  0.25508600  0.10294600  1
  H  1268  1  0.58388600  0.21834800  0.08532000  1
  H  1269  1  0.60166300  0.07653200  0.10555600  1
  H  1270  1  0.58304000  0.11124900  0.08687000  1
  H  1271  1  0.52521300  0.16955500  0.08394300  1
  H  1272  1  0.50823600  0.16529800  0.05879000  1
  H  1273  1  0.64043300  0.15798200  0.07316500  1
  H  1274  1  0.62362100  0.15332900  0.04824100  1
  H  1275  1  0.68604700  0.06123000  0.12800800  1
  H  1276  1  0.68033000  0.01376000  0.12891600  1
  H  1277  1  0.56385500  0.02131700  0.13898700  1
  H  1278  1  0.56984000  0.06874200  0.13814700  1
  H  1283  1  0.54098900  0.13875600  0.03415100  1
  H  1284  1  0.64072300  0.36069500  0.12343400  1
  H  1285  1  0.75275600  0.19253300  0.22397500  1
  H  1286  1  0.64191400  0.97480340  0.13758600  1
  H  1335  1  0.79013700  0.16670800  0.80369500  1
  H  1336  1  0.75616300  0.17010400  0.82614200  1
  H  1337  1  0.68665400  0.15484200  0.78148800  1
  H  1338  1  0.65284300  0.15839200  0.80393100  1
  H  1339  1  0.68855700  0.21822800  0.81935600  1
  H  1340  1  0.66259000  0.25495000  0.83536500  1
  H  1341  1  0.64807600  0.18414800  0.85640500  1
  H  1342  1  0.62164000  0.15210900  0.87209500  1
  H  1343  1  0.69295900  0.11115000  0.82196800  1
  H  1344  1  0.66587400  0.07661000  0.83925800  1
  H  1345  1  0.67975500  0.06319500  0.87604000  1
  H  1346  1  0.67404600  0.01584600  0.87738700  1
  H  1347  1  0.57458800  0.06740900  0.85436100  1
  H  1348  1  0.56870400  0.02004300  0.85558300  1
  H  1349  1  0.60246500  0.08093300  0.89220400  1
  H  1350  1  0.58688100  0.11776200  0.90995500  1
  H  1351  1  0.60363700  0.25945400  0.88926300  1
  H  1352  1  0.58623700  0.22484600  0.90819800  1
  H  1353  1  0.53037500  0.16524300  0.91321600  1
  H  1354  1  0.51844000  0.16973000  0.93881200  1
  H  1355  1  0.64700700  0.17926000  0.92046900  1
  H  1356  1  0.63522400  0.18411600  0.94582500  1
  H  1357  1  0.68658000  0.27470500  0.86607000  1
  H  1358  1  0.68084100  0.32216000  0.86516100  1
  H  1359  1  0.56380600  0.31437200  0.85608300  1
  H  1360  1  0.56981000  0.26696500  0.85692400  1
  H  1365  1  0.58039300  0.19792800  0.96371800  1
  H  1366  1  0.64046100  0.97518240  0.87142800  1
  H  1367  1  0.75242400  0.14280900  0.77070100  1
  H  1368  1  0.64204100  0.36105500  0.85690200  1
  H  1417  1  0.85771000  0.18761600  0.30898500  1
  H  1418  1  0.89743700  0.18355700  0.32987000  1
  H  1419  1  0.94823790  0.16209600  0.28241100  1
  H  1420  1  0.98812390  0.15842500  0.30337700  1
  H  1421  1  0.95271990  0.11629400  0.32239500  1
  H  1422  1  0.98089490  0.07975600  0.33796900  1
  H  1423  1  0.01332500  0.15128900  0.35494600  1
  H  1424  1  0.03573200  0.18352000  0.37161600  1
  H  1425  1  0.96512390  0.22341300  0.32105900  1
  H  1426  1  0.99310792  0.25815100  0.33801400  1
  H  1427  1  0.97022990  0.27325500  0.37115700  1
  H  1428  1  0.97560390  0.32078500  0.37108500  1
  H  1429  1  0.08457200  0.26683900  0.35810100  1
  H  1430  1  0.09015300  0.31432300  0.35799200  1
  H  1431  1  0.04766800  0.25470900  0.39250000  1
  H  1432  1  0.06476400  0.21796500  0.41016200  1
  H  1433  1  0.05891400  0.07652800  0.38808800  1
  H  1434  1  0.07670500  0.11123900  0.40690000  1
  H  1435  1  0.12770400  0.17311000  0.41131800  1
  H  1436  1  0.14421600  0.16847200  0.43650600  1
  H  1437  1  0.01412800  0.15325700  0.42112800  1
  H  1438  1  0.03054900  0.14819100  0.44609000  1
  H  1439  1  0.97096790  0.06186200  0.37054300  1
  H  1440  1  0.97630190  0.01447800  0.37126000  1
  H  1441  1  0.08743200  0.02002600  0.35424900  1
  H  1442  1  0.08173300  0.06740000  0.35351500  1
  H  1447  1  0.10965500  0.13676700  0.46074400  1
  H  1448  1  0.01194900  0.36024500  0.36195200  1
  H  1449  1  0.85812400  0.19418600  0.28150300  1
  H  1450  1  0.01251400  0.97429740  0.36720100  1
  H  1499  1  0.85794500  0.14700000  0.68581000  1
  H  1500  1  0.89775500  0.15098600  0.66493900  1
  H  1501  1  0.94856390  0.17245400  0.71240900  1
  H  1502  1  0.98853490  0.17604600  0.69145600  1
  H  1503  1  0.95345190  0.21821900  0.67258000  1
  H  1504  1  0.98139990  0.25485700  0.65698700  1
  H  1505  1  0.01326900  0.18344600  0.63978800  1
  H  1506  1  0.03549700  0.15131100  0.62303000  1
  H  1507  1  0.96548090  0.11110500  0.67368800  1
  H  1508  1  0.99335192  0.07648700  0.65666600  1
  H  1509  1  0.97032390  0.06141100  0.62343200  1
  H  1510  1  0.97573190  0.01389400  0.62351100  1
  H  1511  1  0.08456700  0.06809700  0.63660600  1
  H  1512  1  0.09017600  0.02062600  0.63673200  1
  H  1513  1  0.04626400  0.08021000  0.60198700  1
  H  1514  1  0.06214500  0.11704300  0.58419600  1
  H  1515  1  0.05713800  0.25842300  0.60639000  1
  H  1516  1  0.07385100  0.22378900  0.58739800  1
  H  1517  1  0.12308500  0.16166200  0.58117900  1
  H  1518  1  0.13464600  0.16638900  0.55557500  1
  H  1519  1  0.00808800  0.18186100  0.57466200  1
  H  1520  1  0.01953300  0.18692200  0.54930300  1
  H  1521  1  0.97030990  0.27285900  0.62469400  1
  H  1522  1  0.97563490  0.32025800  0.62398300  1
  H  1523  1  0.08772700  0.31482400  0.64003700  1
  H  1524  1  0.08203000  0.26744300  0.64077500  1
  H  1529  1  0.07338000  0.19768300  0.53099400  1
  H  1530  1  0.01202900  0.97452540  0.63269900  1
  H  1531  1  0.85824600  0.14051600  0.71331900  1
  H  1532  1  0.01228100  0.36045300  0.62758500  1
  H  1581  1  0.29676700  0.68690400  0.68571900  1
  H  1582  1  0.25701700  0.68296900  0.66481900  1
  H  1583  1  0.20511900  0.66363200  0.71239300  1
  H  1584  1  0.16521000  0.66012900  0.69141600  1
  H  1585  1  0.19887500  0.61691000  0.67311100  1
  H  1586  1  0.17106000  0.58017500  0.65760600  1
  H  1587  1  0.14275200  0.65140200  0.63931200  1
  H  1588  1  0.12008100  0.68327800  0.62281300  1
  H  1589  1  0.19126600  0.72421900  0.67301000  1
  H  1590  1  0.16322700  0.75870500  0.65593800  1
  H  1591  1  0.17989800  0.77211800  0.61910000  1
  H  1592  1  0.17447600  0.81946100  0.61769600  1
  H  1593  1  0.07356700  0.76793800  0.63995300  1
  H  1594  1  0.06796100  0.81530600  0.63867500  1
  H  1595  1  0.10223900  0.75437800  0.60249100  1
  H  1596  1  0.08536100  0.71747400  0.58492500  1
  H  1597  1  0.09846800  0.57596100  0.60629400  1
  H  1598  1  0.08014700  0.61048800  0.58746400  1
  H  1599  1  0.02534000  0.67016700  0.58372900  1
  H  1600  1  0.00861000  0.66580100  0.55855300  1
  H  1601  1  0.14006200  0.65538900  0.57334800  1
  H  1602  1  0.12346600  0.65061900  0.54839700  1
  H  1603  1  0.18524000  0.56094500  0.62690900  1
  H  1604  1  0.17983500  0.51344000  0.62780300  1
  H  1605  1  0.06499700  0.52068400  0.64037600  1
  H  1606  1  0.07070800  0.56812800  0.63958800  1
  H  1611  1  0.04225200  0.63734400  0.53401900  1
  H  1612  1  0.14064700  0.86011000  0.62324700  1
  H  1613  1  0.29601000  0.69436400  0.71325800  1
  H  1614  1  0.14262700  0.47438200  0.63748600  1
  H  1663  1  0.29648100  0.64824700  0.30896400  1
  H  1664  1  0.25669400  0.65222900  0.32984500  1
  H  1665  1  0.20471300  0.67076000  0.28220200  1
  H  1666  1  0.16476500  0.67430800  0.30316500  1
  H  1667  1  0.19779700  0.71793000  0.32123000  1
  H  1668  1  0.17018600  0.75470500  0.33672300  1
  H  1669  1  0.14313800  0.68355500  0.35544100  1
  H  1670  1  0.12025700  0.65173800  0.37198200  1
  H  1671  1  0.19083400  0.61061100  0.32172100  1
  H  1672  1  0.16289800  0.57619200  0.33889200  1
  H  1673  1  0.17975600  0.56294900  0.37581900  1
  H  1674  1  0.17428300  0.51559800  0.37721000  1
  H  1675  1  0.07357000  0.56698000  0.35486400  1
  H  1676  1  0.06792200  0.51960400  0.35612200  1
  H  1677  1  0.10375400  0.58074000  0.39260500  1
  H  1678  1  0.08830000  0.61771600  0.41028900  1
  H  1679  1  0.10036600  0.75912900  0.38857700  1
  H  1680  1  0.08321600  0.72467500  0.40763200  1
  H  1681  1  0.03042700  0.66395400  0.41341200  1
  H  1682  1  0.01887500  0.66842500  0.43903200  1
  H  1683  1  0.14651400  0.68068000  0.42023600  1
  H  1684  1  0.13509500  0.68550200  0.44561400  1
  H  1685  1  0.18578400  0.77414500  0.36720400  1
  H  1686  1  0.18035400  0.82163500  0.36630400  1
  H  1687  1  0.06482400  0.81415000  0.35469600  1
  H  1688  1  0.07055200  0.76672100  0.35549100  1
  H  1693  1  0.08081300  0.69778400  0.46380700  1
  H  1694  1  0.14047700  0.47490000  0.37160100  1
  H  1695  1  0.29565800  0.64041700  0.28142200  1
  H  1696  1  0.14270900  0.86062400  0.35700900  1
  H  1704  1  0.68762700  0.67975300  0.00701700  1
  H  1705  1  0.66918100  0.65754700  0.01978900  1
  H  1706  1  0.65838900  0.69197500  0.02087600  1
  H  1708  1  0.65379100  0.68699900  0.96976200  1
  H  1709  1  0.68170200  0.66888600  0.98202500  1
  H  1710  1  0.66870200  0.70245500  0.98571000  1
  H  1712  1  0.53118100  0.64203500  0.02482500  1
  H  1713  1  0.51510200  0.62854300  0.00857100  1
  H  1714  1  0.50299500  0.66172300  0.01338200  1
  H  1716  1  0.51944400  0.66350500  0.97123800  1
  H  1717  1  0.49783200  0.66951300  0.98783600  1
  H  1718  1  0.51116900  0.63660500  0.98294200  1
  H  1728  1  0.46602400  0.17947800  0.98775800  1
  H  1729  1  0.48445300  0.15740400  0.97493800  1
  H  1730  1  0.49520200  0.19186700  0.97390200  1
  H  1732  1  0.50025300  0.18726900  0.02493500  1
  H  1733  1  0.47211200  0.16893300  0.01281100  1
  H  1734  1  0.48524100  0.20243100  0.00893700  1
  H  1736  1  0.62222900  0.14187400  0.96984000  1
  H  1737  1  0.63847100  0.12851700  0.98609200  1
  H  1738  1  0.65055100  0.16168700  0.98120300  1
  H  1740  1  0.63444700  0.16358600  0.02336700  1
  H  1741  1  0.65593300  0.16944700  0.00673600  1
  H  1742  1  0.64251200  0.13657700  0.01172500  1
  H  1752  1  0.18790400  0.17959900  0.50709600  1
  H  1753  1  0.16943700  0.15742500  0.51988300  1
  H  1754  1  0.15845200  0.19183300  0.52088000  1
  H  1756  1  0.15470200  0.18584700  0.46970900  1
  H  1757  1  0.18237700  0.16810400  0.48219900  1
  H  1758  1  0.16931800  0.20177300  0.48556900  1
  H  1760  1  0.03126100  0.14199900  0.52477300  1
  H  1761  1  0.01553300  0.12814600  0.50855700  1
  H  1762  1  0.00320000  0.16139200  0.51314200  1
  H  1764  1  0.02031900  0.16245600  0.47103100  1
  H  1765  1  0.99843892  0.16887000  0.48754100  1
  H  1766  1  0.01183900  0.13585100  0.48290500  1
  H  1776  1  0.96615890  0.67927400  0.48770100  1
  H  1777  1  0.98463690  0.65726000  0.47485800  1
  H  1778  1  0.99549692  0.69171200  0.47391400  1
  H  1780  1  0.99982892  0.68615300  0.52500100  1
  H  1781  1  0.97192690  0.66813400  0.51266800  1
  H  1782  1  0.98503990  0.70174300  0.50908700  1
  H  1784  1  0.12259200  0.64191300  0.46987600  1
  H  1785  1  0.13857600  0.62825900  0.48609400  1
  H  1786  1  0.15077800  0.66150000  0.48139900  1
  H  1788  1  0.13412200  0.66276600  0.52354000  1
  H  1789  1  0.15582200  0.66897800  0.50698000  1
  H  1790  1  0.14240300  0.63600200  0.51175600  1
  H  1800  1  0.54140200  0.94302340  0.89835600  1
  H  1801  1  0.53642000  0.96767040  0.88516500  1
  H  1802  1  0.58100600  0.96227140  0.89358900  1
  H  1804  1  0.54713800  0.87158900  0.89152600  1
  H  1805  1  0.51818600  0.89970500  0.89364500  1
  H  1806  1  0.56517800  0.89914300  0.90073400  1
  H  1808  1  0.61148700  0.96351440  0.83933500  1
  H  1809  1  0.59119400  0.93722940  0.82968200  1
  H  1810  1  0.63765400  0.93423140  0.83697300  1
  H  1812  1  0.59362000  0.86304000  0.84199000  1
  H  1813  1  0.62840900  0.88675000  0.83806600  1
  H  1814  1  0.58187900  0.89000800  0.83087500  1
  H  1824  1  0.54175900  0.39255700  0.09637400  1
  H  1825  1  0.53671000  0.36795200  0.10959100  1
  H  1826  1  0.58133600  0.37339800  0.10119000  1
  H  1828  1  0.54749900  0.46402700  0.10312200  1
  H  1829  1  0.51853600  0.43585400  0.10101800  1
  H  1830  1  0.56556200  0.43646600  0.09396000  1
  H  1832  1  0.61156800  0.37242500  0.15546400  1
  H  1833  1  0.59123700  0.39870700  0.16507400  1
  H  1834  1  0.63773200  0.40176500  0.15781000  1
  H  1836  1  0.59372500  0.47285300  0.15268400  1
  H  1837  1  0.62849500  0.44922400  0.15665800  1
  H  1838  1  0.58192900  0.44590400  0.16382000  1
  H  1848  1  0.61256600  0.89223500  0.09978100  1
  H  1849  1  0.61745800  0.86781000  0.11311400  1
  H  1850  1  0.57295500  0.87306900  0.10460300  1
  H  1852  1  0.60949800  0.96370340  0.10670100  1
  H  1853  1  0.63733400  0.93500940  0.10480900  1
  H  1854  1  0.59084300  0.93654840  0.09729500  1
  H  1856  1  0.54121400  0.87270200  0.15868600  1
  H  1857  1  0.56059100  0.89938400  0.16826800  1
  H  1858  1  0.51444000  0.90183640  0.16063600  1
  H  1860  1  0.55795900  0.97320140  0.15542500  1
  H  1861  1  0.52332600  0.94935140  0.15926200  1
  H  1862  1  0.56949200  0.94661040  0.16685100  1
  H  1872  1  0.61305200  0.44349600  0.89493500  1
  H  1873  1  0.61785900  0.46796200  0.88161300  1
  H  1874  1  0.57341100  0.46259100  0.89016200  1
  H  1876  1  0.61007900  0.37204300  0.88795100  1
  H  1877  1  0.63786000  0.40081700  0.88983700  1
  H  1878  1  0.59143800  0.39910700  0.89740700  1
  H  1880  1  0.54128400  0.46300700  0.83611600  1
  H  1881  1  0.56058200  0.43638100  0.82649600  1
  H  1882  1  0.51449100  0.43382800  0.83418000  1
  H  1884  1  0.55801600  0.36253000  0.83930600  1
  H  1885  1  0.52337000  0.38633200  0.83552000  1
  H  1886  1  0.56947500  0.38915800  0.82787700  1
  H  1896  1  0.04172100  0.44242300  0.39858300  1
  H  1897  1  0.03647300  0.46703800  0.38538500  1
  H  1898  1  0.08113400  0.46184800  0.39379300  1
  H  1900  1  0.04795400  0.37101300  0.39174200  1
  H  1901  1  0.01881200  0.39902800  0.39386400  1
  H  1902  1  0.06580500  0.39862400  0.40095700  1
  H  1904  1  0.11143700  0.46318800  0.33952500  1
  H  1905  1  0.09143000  0.43677600  0.32988700  1
  H  1906  1  0.13792900  0.43404500  0.33717300  1
  H  1908  1  0.09466100  0.36262600  0.34223400  1
  H  1909  1  0.12916500  0.38652000  0.33828200  1
  H  1910  1  0.08258400  0.38950400  0.33110500  1
  H  1920  1  0.04197400  0.89233200  0.59617400  1
  H  1921  1  0.03667700  0.86774000  0.60938500  1
  H  1922  1  0.08136700  0.87299600  0.60099700  1
  H  1924  1  0.04819000  0.96377040  0.60296300  1
  H  1925  1  0.01904500  0.93569540  0.60084800  1
  H  1926  1  0.06606300  0.93616940  0.59378000  1
  H  1928  1  0.11149000  0.87185100  0.65528100  1
  H  1929  1  0.09144700  0.89824300  0.66489000  1
  H  1930  1  0.13796900  0.90105440  0.65762400  1
  H  1932  1  0.09469500  0.97237240  0.65249300  1
  H  1933  1  0.12919600  0.94855840  0.65647900  1
  H  1934  1  0.08258900  0.94549440  0.66363600  1
  H  1944  1  0.11303100  0.39184900  0.60005700  1
  H  1945  1  0.11785700  0.36738900  0.61337300  1
  H  1946  1  0.07338300  0.37268600  0.60484700  1
  H  1948  1  0.10952700  0.46331800  0.60694800  1
  H  1949  1  0.13755700  0.43471600  0.60504400  1
  H  1950  1  0.09101300  0.43609300  0.59757100  1
  H  1952  1  0.04162200  0.37219700  0.65893800  1
  H  1953  1  0.06111600  0.39881100  0.66854300  1
  H  1954  1  0.01494500  0.40136100  0.66093800  1
  H  1956  1  0.05864200  0.47268300  0.65579200  1
  H  1957  1  0.02392700  0.44887700  0.65960900  1
  H  1958  1  0.07010900  0.44601600  0.66717100  1
  H  1968  1  0.11340500  0.94308240  0.39462700  1
  H  1969  1  0.11816600  0.96756140  0.38131400  1
  H  1970  1  0.07373200  0.96216740  0.38986900  1
  H  1972  1  0.11003500  0.87161800  0.38769700  1
  H  1973  1  0.13799700  0.90030940  0.38958700  1
  H  1974  1  0.09151500  0.89876200  0.39711200  1
  H  1976  1  0.04166200  0.96262940  0.33580900  1
  H  1977  1  0.06108200  0.93605540  0.32618200  1
  H  1978  1  0.01496200  0.93341840  0.33383300  1
  H  1980  1  0.05865900  0.86217200  0.33893100  1
  H  1981  1  0.02393300  0.88592100  0.33514900  1
  H  1982  1  0.07006400  0.88885800  0.32754000  1
  H  1992  1  0.26465700  0.69092700  0.77577800  1
  H  1993  1  0.31169900  0.69961300  0.77952800  1
  H  1994  1  0.29437900  0.66743100  0.78393100  1
  H  1996  1  0.23025000  0.68243500  0.73885000  1
  H  1997  1  0.24557300  0.70432500  0.75237900  1
  H  1998  1  0.22859300  0.67195400  0.75689300  1
  H  2000  1  0.41370200  0.63944700  0.75833400  1
  H  2001  1  0.41740200  0.65042500  0.74037600  1
  H  2002  1  0.39747400  0.61880200  0.74449400  1
  H  2004  1  0.33453700  0.64108900  0.71226400  1
  H  2005  1  0.36061200  0.61940400  0.72312600  1
  H  2006  1  0.37935100  0.65107600  0.71836000  1
  H  2016  1  0.26484500  0.64376900  0.21887700  1
  H  2017  1  0.31191200  0.63518600  0.21517400  1
  H  2018  1  0.29460800  0.66732800  0.21075200  1
  H  2020  1  0.23016500  0.65224300  0.25576500  1
  H  2021  1  0.24557300  0.63036500  0.24225900  1
  H  2022  1  0.22864400  0.66270400  0.23771700  1
  H  2024  1  0.41376500  0.69555300  0.23646600  1
  H  2025  1  0.41734200  0.68458400  0.25442700  1
  H  2026  1  0.39744600  0.71616800  0.25029000  1
  H  2028  1  0.33429600  0.69375100  0.28246000  1
  H  2029  1  0.36044200  0.71549000  0.27162400  1
  H  2030  1  0.37914700  0.68385400  0.27640300  1
  H  2040  1  0.88893700  0.19130800  0.21902300  1
  H  2041  1  0.84191600  0.20000800  0.21531800  1
  H  2042  1  0.85912300  0.16787900  0.21081600  1
  H  2044  1  0.92346690  0.18239200  0.25590400  1
  H  2045  1  0.90818990  0.20443900  0.24245700  1
  H  2046  1  0.92500190  0.17211600  0.23782500  1
  H  2048  1  0.73976800  0.13963100  0.23638700  1
  H  2049  1  0.73616000  0.15044200  0.25437500  1
  H  2050  1  0.75595600  0.11886100  0.25016500  1
  H  2052  1  0.81904100  0.14091200  0.28243600  1
  H  2053  1  0.79286600  0.11929300  0.27153400  1
  H  2054  1  0.77425500  0.15092800  0.27637000  1
  H  2064  1  0.88858300  0.14379500  0.77579500  1
  H  2065  1  0.84146500  0.13521300  0.77947200  1
  H  2066  1  0.85890400  0.16733700  0.78393000  1
  H  2068  1  0.92343290  0.15242700  0.73893300  1
  H  2069  1  0.90789690  0.13048500  0.75240500  1
  H  2070  1  0.92492290  0.16280800  0.75699600  1
  H  2072  1  0.73996600  0.19568700  0.75819700  1
  H  2073  1  0.73636600  0.18475900  0.74022700  1
  H  2074  1  0.75641600  0.21632300  0.74438900  1
  H  2076  1  0.81949500  0.19390300  0.71221700  1
  H  2077  1  0.79345100  0.21566100  0.72305200  1
  H  2078  1  0.77459000  0.18403500  0.71826900  1
  C  1  1  0.72938100  0.69941500  0.83019000  1
  C  2  1  0.74404200  0.67957300  0.83892000  1
  C  3  1  0.76024500  0.69147300  0.85112800  1
  C  5  1  0.73675600  0.72398300  0.83672800  1
  C  6  1  0.72717700  0.74925500  0.83074500  1
  C  7  1  0.73719300  0.77417300  0.83701600  1
  C  9  1  0.76074000  0.80507800  0.85216900  1
  C  10  1  0.74556800  0.81820400  0.84016300  1
  C  11  1  0.73055800  0.79923500  0.83096100  1
  C  12  1  0.77769800  0.81739800  0.86444100  1
  C  13  1  0.79086400  0.80335200  0.87685700  1
  C  15  1  0.80657700  0.77077600  0.89260800  1
  C  16  1  0.81171400  0.79528800  0.89950100  1
  C  17  1  0.80261900  0.81521900  0.88980100  1
  C  18  1  0.81357400  0.74549800  0.89903200  1
  C  19  1  0.80840000  0.72065400  0.89193100  1
  C  21  1  0.79258600  0.68982100  0.87542300  1
  C  22  1  0.80774400  0.67670600  0.88744900  1
  C  23  1  0.81714600  0.69566200  0.89765900  1
  C  24  1  0.77794900  0.67749200  0.86273000  1
  C  25  1  0.78029800  0.64910200  0.86195500  1
  C  26  1  0.81453100  0.63649600  0.85793700  1
  C  27  1  0.81793700  0.60855600  0.85845300  1
  C  28  1  0.78731700  0.59227400  0.86305700  1
  C  29  1  0.75300900  0.60515000  0.86693800  1
  C  30  1  0.74955200  0.63307100  0.86646100  1
  C  31  1  0.82391700  0.74469600  0.91397900  1
  C  32  1  0.86190300  0.74818900  0.91852600  1
  C  33  1  0.87177500  0.74546400  0.93326100  1
  C  34  1  0.84381200  0.73932300  0.94371900  1
  C  35  1  0.80587700  0.73579800  0.93913000  1
  C  36  1  0.79600400  0.73860300  0.92445600  1
  C  37  1  0.78085800  0.84578400  0.86448700  1
  C  38  1  0.74986600  0.86199400  0.86848900  1
  C  39  1  0.75323800  0.88995100  0.86842200  1
  C  40  1  0.78772700  0.90255700  0.86450500  1
  C  41  1  0.81876400  0.88614900  0.86061300  1
  C  42  1  0.81539900  0.85819400  0.86061300  1
  C  43  1  0.70711600  0.74977800  0.81727200  1
  C  44  1  0.66706000  0.74843700  0.81695600  1
  C  45  1  0.72683500  0.75288300  0.80404700  1
  C  46  1  0.70694000  0.75504100  0.79086000  1
  C  47  1  0.66683900  0.75381100  0.79049500  1
  C  48  1  0.64718300  0.75033800  0.80373600  1
  C  75  1  0.85332600  0.73487500  0.95801600  1
  C  76  1  0.78984700  0.93024500  0.86396800  1
  C  77  1  0.64776800  0.75734600  0.77747500  1
  C  78  1  0.79000300  0.56455300  0.86404600  1
  C  83  1  0.73005400  0.79513600  0.16477200  1
  C  84  1  0.74472600  0.81505300  0.15607600  1
  C  85  1  0.76034200  0.80328700  0.14372900  1
  C  87  1  0.73701200  0.77064000  0.15810500  1
  C  88  1  0.72746000  0.74530900  0.16404000  1
  C  89  1  0.73745000  0.72045800  0.15770300  1
  C  91  1  0.76099200  0.68971800  0.14247700  1
  C  92  1  0.74588400  0.67647300  0.15446700  1
  C  93  1  0.73088100  0.69534000  0.16371400  1
  C  94  1  0.77781400  0.67751200  0.13015300  1
  C  95  1  0.79062700  0.69165400  0.11770700  1
  C  97  1  0.80519400  0.72435900  0.10185900  1
  C  98  1  0.81004400  0.69989900  0.09489600  1
  C  99  1  0.80186300  0.67988300  0.10467700  1
  C  100  1  0.81137000  0.74970400  0.09537400  1
  C  101  1  0.80660000  0.77448700  0.10256900  1
  C  103  1  0.79165800  0.80518100  0.11925000  1
  C  104  1  0.80591200  0.81841700  0.10709300  1
  C  105  1  0.81478100  0.79954100  0.09678000  1
  C  106  1  0.77766100  0.81738800  0.13207200  1
  C  107  1  0.78004600  0.84577900  0.13288900  1
  C  108  1  0.81456900  0.85841900  0.13656200  1
  C  109  1  0.81796200  0.88636600  0.13605300  1
  C  110  1  0.78703700  0.90262000  0.13179600  1
  C  111  1  0.75245100  0.88971100  0.12825600  1
  C  112  1  0.74899000  0.86178400  0.12874300  1
  C  113  1  0.81907500  0.75069700  0.08019500  1
  C  114  1  0.85602100  0.74704500  0.07456800  1
  C  115  1  0.86303900  0.74986200  0.05959400  1
  C  116  1  0.83329700  0.75670900  0.05001800  1
  C  117  1  0.79635100  0.76013400  0.05566900  1
  C  118  1  0.78928900  0.75702200  0.07055300  1
  C  119  1  0.78102900  0.64913900  0.13006400  1
  C  120  1  0.75008500  0.63285700  0.12601900  1
  C  121  1  0.75347400  0.60490800  0.12609400  1
  C  122  1  0.78792300  0.59238300  0.13007200  1
  C  123  1  0.81892300  0.60886400  0.13399500  1
  C  124  1  0.81554000  0.63681100  0.13398600  1
  C  125  1  0.70742000  0.74465500  0.17751700  1
  C  126  1  0.66738300  0.74620000  0.17784100  1
  C  127  1  0.72709100  0.74125200  0.19072700  1
  C  128  1  0.70716700  0.73902300  0.20390700  1
  C  129  1  0.66708300  0.74045000  0.20428000  1
  C  130  1  0.64748100  0.74420500  0.19105200  1
  C  157  1  0.83908700  0.76088300  0.03539900  1
  C  158  1  0.79004300  0.56470100  0.13063300  1
  C  159  1  0.64796400  0.73689200  0.21729400  1
  C  160  1  0.78970800  0.93034400  0.13078700  1
  C  165  1  0.93290000  0.20005900  0.16510100  1
  C  166  1  0.91834100  0.18010100  0.15641200  1
  C  167  1  0.90384400  0.19171000  0.14382000  1
  C  169  1  0.92704500  0.22445100  0.15817500  1
  C  170  1  0.93705700  0.24978400  0.16400000  1
  C  171  1  0.92734700  0.27461700  0.15758300  1
  C  173  1  0.90344600  0.30526500  0.14238900  1
  C  174  1  0.91993800  0.31862900  0.15406800  1
  C  175  1  0.93502100  0.29979600  0.16332300  1
  C  176  1  0.88592400  0.31736700  0.13018200  1
  C  177  1  0.87199100  0.30314600  0.11793000  1
  C  179  1  0.85638400  0.27038700  0.10225000  1
  C  180  1  0.84937700  0.29483300  0.09554900  1
  C  181  1  0.85834000  0.31485200  0.10521900  1
  C  182  1  0.85035000  0.24503800  0.09575300  1
  C  183  1  0.85664300  0.22022700  0.10274300  1
  C  185  1  0.87293600  0.18957900  0.11926800  1
  C  186  1  0.85910100  0.17625800  0.10707100  1
  C  187  1  0.84931600  0.19511400  0.09686500  1
  C  188  1  0.88694600  0.17746600  0.13211400  1
  C  189  1  0.88392800  0.14910600  0.13314400  1
  C  190  1  0.84865600  0.13692900  0.13622300  1
  C  191  1  0.84514200  0.10899300  0.13660700  1
  C  192  1  0.87678300  0.09233600  0.13393400  1
  C  193  1  0.91207200  0.10467900  0.13091600  1
  C  194  1  0.91556800  0.13261300  0.13041900  1
  C  195  1  0.83976900  0.24423500  0.08083400  1
  C  196  1  0.80148400  0.24633100  0.07642100  1
  C  197  1  0.79157000  0.24379900  0.06168000  1
  C  198  1  0.81976200  0.23927900  0.05107000  1
  C  199  1  0.85800000  0.23714300  0.05554500  1
  C  200  1  0.86792200  0.23974000  0.07022600  1
  C  201  1  0.88334400  0.34576500  0.12993000  1
  C  202  1  0.91194500  0.36129800  0.12333500  1
  C  203  1  0.90843700  0.38919000  0.12252200  1
  C  204  1  0.87629100  0.40251300  0.12822600  1
  C  205  1  0.84784500  0.38671900  0.13489900  1
  C  206  1  0.85125300  0.35880400  0.13571200  1
  C  207  1  0.95706000  0.25046600  0.17748800  1
  C  208  1  0.99702100  0.24819100  0.17786600  1
  C  209  1  0.93743600  0.25442400  0.19066200  1
  C  210  1  0.95734600  0.25649800  0.20385200  1
  C  211  1  0.99736100  0.25434000  0.20428300  1
  C  212  1  0.01689700  0.25005400  0.19108800  1
  C  239  1  0.81019800  0.23497500  0.03674700  1
  C  240  1  0.87374800  0.43022400  0.12717600  1
  C  241  1  0.01649700  0.25771900  0.21731500  1
  C  242  1  0.87428700  0.06467800  0.13468200  1
  C  247  1  0.93225800  0.29484500  0.82936800  1
  C  248  1  0.91779400  0.31483500  0.83804000  1
  C  249  1  0.90375000  0.30331100  0.85073800  1
  C  251  1  0.92668800  0.27050800  0.83639600  1
  C  252  1  0.93661900  0.24514700  0.83061400  1
  C  253  1  0.92691300  0.22035400  0.83710100  1
  C  255  1  0.90312600  0.18979400  0.85240500  1
  C  256  1  0.91939600  0.17636300  0.84071300  1
  C  257  1  0.93447000  0.19514000  0.83140400  1
  C  258  1  0.88585800  0.17775600  0.86469500  1
  C  259  1  0.87248400  0.19203900  0.87700600  1
  C  261  1  0.85816800  0.22488400  0.89279600  1
  C  262  1  0.85153800  0.20047700  0.89960500  1
  C  263  1  0.85959100  0.18040300  0.88986000  1
  C  264  1  0.85295100  0.25027400  0.89933600  1
  C  265  1  0.85865800  0.27503100  0.89220300  1
  C  267  1  0.87385600  0.30557900  0.87545900  1
  C  268  1  0.86086100  0.31897300  0.88775600  1
  C  269  1  0.85182200  0.30017800  0.89810600  1
  C  270  1  0.88721600  0.31761500  0.86248500  1
  C  271  1  0.88417900  0.34596500  0.86141800  1
  C  272  1  0.84874400  0.35807500  0.85862700  1
  C  273  1  0.84522700  0.38600400  0.85824300  1
  C  274  1  0.87702100  0.40272500  0.86063500  1
  C  275  1  0.91246800  0.39044800  0.86336500  1
  C  276  1  0.91597700  0.36252100  0.86385800  1
  C  277  1  0.84514500  0.25122600  0.91450600  1
  C  278  1  0.80797200  0.24840200  0.92007000  1
  C  279  1  0.80100000  0.25103700  0.93505700  1
  C  280  1  0.83104300  0.25687100  0.94470300  1
  C  281  1  0.86819900  0.25947400  0.93911500  1
  C  282  1  0.87520000  0.25652300  0.92421900  1
  C  283  1  0.88317500  0.14935600  0.86499100  1
  C  284  1  0.91171500  0.13385400  0.87160900  1
  C  285  1  0.90817000  0.10595700  0.87240800  1
  C  286  1  0.87607700  0.09259200  0.86664600  1
  C  287  1  0.84771100  0.10835000  0.85993800  1
  C  288  1  0.85114900  0.13627400  0.85914500  1
  C  289  1  0.95662800  0.24439600  0.81712900  1
  C  290  1  0.99656900  0.24692600  0.81675000  1
  C  291  1  0.93707000  0.24011300  0.80396700  1
  C  292  1  0.95702700  0.23797300  0.79079200  1
  C  293  1  0.99702700  0.24035900  0.79036100  1
  C  294  1  0.01649100  0.24497100  0.80354400  1
  C  321  1  0.82539900  0.26090300  0.95933200  1
  C  322  1  0.87351900  0.06487200  0.86766700  1
  C  323  1  0.01622200  0.23689500  0.77734800  1
  C  324  1  0.87449700  0.43038200  0.85989800  1
  C  329  1  0.22432800  0.19921900  0.33138100  1
  C  330  1  0.23992700  0.17928000  0.33980200  1
  C  331  1  0.25987100  0.19114400  0.35118000  1
  C  333  1  0.23525100  0.22379400  0.33714800  1
  C  334  1  0.22573600  0.24912100  0.33120200  1
  C  335  1  0.23751200  0.27389200  0.33720600  1
  C  337  1  0.26225700  0.30460500  0.35218000  1
  C  338  1  0.24820200  0.31775900  0.33998700  1
  C  339  1  0.23255600  0.29891000  0.33086700  1
  C  340  1  0.27904700  0.31685600  0.36450400  1
  C  341  1  0.29154400  0.30274200  0.37699100  1
  C  343  1  0.30703400  0.27003200  0.39267900  1
  C  344  1  0.31135200  0.29445700  0.39974300  1
  C  345  1  0.30246100  0.31448600  0.39007300  1
  C  346  1  0.31450400  0.24470200  0.39895900  1
  C  347  1  0.30999900  0.22000200  0.39164800  1
  C  349  1  0.29446300  0.18937400  0.37499200  1
  C  350  1  0.31076200  0.17620300  0.38678200  1
  C  351  1  0.31991700  0.19502500  0.39709900  1
  C  352  1  0.27890200  0.17710300  0.36244600  1
  C  353  1  0.28086000  0.14870200  0.36166900  1
  C  354  1  0.31444800  0.13596900  0.35702900  1
  C  355  1  0.31777800  0.10802800  0.35755300  1
  C  356  1  0.28772300  0.09187000  0.36278500  1
  C  357  1  0.25404400  0.10486800  0.36729700  1
  C  358  1  0.25069300  0.13279500  0.36683300  1
  C  359  1  0.32462400  0.24365300  0.41393200  1
  C  360  1  0.36229200  0.24802800  0.41864400  1
  C  361  1  0.37195500  0.24525600  0.43339900  1
  C  362  1  0.34408900  0.23816000  0.44371400  1
  C  363  1  0.30647800  0.23374400  0.43897200  1
  C  364  1  0.29681800  0.23661100  0.42427800  1
  C  365  1  0.28220200  0.34522900  0.36461000  1
  C  366  1  0.25098800  0.36138400  0.36842300  1
  C  367  1  0.25426200  0.38934000  0.36837900  1
  C  368  1  0.28885500  0.40200100  0.36465400  1
  C  369  1  0.32011000  0.38564900  0.36095100  1
  C  370  1  0.31685600  0.35768700  0.36094300  1
  C  371  1  0.20184200  0.25001500  0.31864100  1
  C  372  1  0.16368600  0.25834400  0.31993500  1
  C  373  1  0.21582900  0.24380600  0.30468400  1
  C  374  1  0.19230400  0.24592700  0.29237100  1
  C  375  1  0.15423000  0.25461100  0.29363000  1
  C  376  1  0.14035700  0.26077400  0.30761900  1
  C  403  1  0.35340300  0.23374800  0.45803100  1
  C  404  1  0.29086300  0.42968900  0.36411200  1
  C  405  1  0.13101800  0.25828400  0.28160600  1
  C  406  1  0.29037000  0.06414900  0.36375600  1
  C  411  1  0.22481400  0.29460400  0.66352800  1
  C  412  1  0.24046300  0.31460000  0.65514100  1
  C  413  1  0.26001300  0.30281500  0.64365000  1
  C  415  1  0.23554900  0.27006900  0.65768700  1
  C  416  1  0.22609000  0.24469800  0.66361500  1
  C  417  1  0.23781300  0.21997400  0.65756800  1
  C  419  1  0.26245000  0.18936700  0.64253100  1
  C  420  1  0.24849200  0.17614100  0.65472800  1
  C  421  1  0.23291900  0.19492700  0.66388700  1
  C  422  1  0.27905800  0.17718600  0.63016000  1
  C  423  1  0.29121200  0.19135200  0.61763300  1
  C  425  1  0.30562700  0.22414600  0.60183000  1
  C  426  1  0.30962200  0.19974900  0.59472100  1
  C  427  1  0.30157900  0.17966300  0.60447800  1
  C  428  1  0.31233400  0.24952700  0.59547000  1
  C  429  1  0.30825400  0.27418700  0.60284800  1
  C  431  1  0.29361800  0.30473500  0.61964200  1
  C  432  1  0.30909400  0.31798600  0.60770800  1
  C  433  1  0.31770500  0.29920900  0.59730900  1
  C  434  1  0.27869800  0.31693100  0.63231500  1
  C  435  1  0.28068900  0.34533300  0.63310500  1
  C  436  1  0.31455300  0.35810100  0.63747000  1
  C  437  1  0.31787200  0.38604900  0.63694600  1
  C  438  1  0.28753200  0.40217500  0.63198700  1
  C  439  1  0.25359300  0.38913800  0.62774300  1
  C  440  1  0.25023400  0.36120600  0.62821900  1
  C  441  1  0.31981800  0.25075100  0.58027200  1
  C  442  1  0.35639900  0.24624200  0.57448200  1
  C  443  1  0.36314900  0.24902400  0.55948500  1
  C  444  1  0.33352700  0.25667500  0.55003200  1
  C  445  1  0.29695200  0.26099200  0.55585400  1
  C  446  1  0.29014000  0.25793000  0.57075900  1
  C  447  1  0.28224700  0.14882100  0.63003100  1
  C  448  1  0.25107100  0.13259400  0.62618900  1
  C  449  1  0.25436400  0.10464500  0.62623800  1
  C  450  1  0.28893400  0.09206700  0.63000600  1
  C  451  1  0.32016100  0.10849200  0.63373000  1
  C  452  1  0.31688800  0.13644600  0.63373300  1
  C  453  1  0.20222200  0.24371900  0.67618300  1
  C  454  1  0.16402400  0.23542100  0.67487900  1
  C  455  1  0.21622000  0.24991000  0.69014400  1
  C  456  1  0.19264400  0.24784000  0.70244800  1
  C  457  1  0.15451100  0.23922300  0.70117600  1
  C  458  1  0.14064100  0.23303900  0.68718500  1
  C  485  1  0.33906800  0.26067900  0.53537100  1
  C  486  1  0.29095700  0.06438300  0.63056100  1
  C  487  1  0.13119900  0.23567100  0.71318500  1
  C  488  1  0.29016500  0.42990100  0.63100400  1
  C  493  1  0.43882100  0.69971000  0.66389200  1
  C  494  1  0.42329400  0.67965500  0.65551800  1
  C  495  1  0.40483600  0.69129800  0.64372000  1
  C  497  1  0.42910500  0.72418900  0.65773500  1
  C  498  1  0.43892900  0.74960900  0.66352100  1
  C  499  1  0.42755000  0.77433400  0.65737200  1
  C  501  1  0.40258700  0.80482600  0.64233400  1
  C  502  1  0.41794900  0.81823700  0.65421900  1
  C  503  1  0.43357300  0.79950700  0.66340300  1
  C  504  1  0.38529200  0.81684700  0.63005700  1
  C  505  1  0.37201400  0.80256200  0.61772700  1
  C  507  1  0.35657500  0.76966700  0.60211100  1
  C  508  1  0.35041300  0.79405200  0.59522300  1
  C  509  1  0.35922200  0.81416600  0.60485900  1
  C  510  1  0.35005800  0.74425000  0.59576200  1
  C  511  1  0.35565600  0.71954800  0.60294800  1
  C  513  1  0.37167400  0.68907500  0.61961000  1
  C  514  1  0.35662300  0.67568300  0.60764500  1
  C  515  1  0.34706800  0.69442200  0.59734300  1
  C  516  1  0.38660000  0.67702300  0.63232400  1
  C  517  1  0.38398400  0.64865100  0.63335900  1
  C  518  1  0.34925000  0.63638300  0.63713600  1
  C  519  1  0.34587400  0.60843900  0.63748300  1
  C  520  1  0.37713200  0.59188200  0.63408000  1
  C  521  1  0.41188600  0.60430400  0.63035000  1
  C  522  1  0.41520000  0.63224900  0.62985800  1
  C  523  1  0.33964400  0.74321900  0.58082600  1
  C  524  1  0.30157600  0.74620100  0.57628800  1
  C  525  1  0.29180200  0.74361300  0.56153500  1
  C  526  1  0.31993500  0.73813100  0.55104100  1
  C  527  1  0.35794500  0.73507900  0.55563000  1
  C  528  1  0.36772200  0.73774600  0.57032300  1
  C  529  1  0.38271000  0.84523600  0.62975000  1
  C  530  1  0.41165900  0.86071900  0.62334300  1
  C  531  1  0.40828900  0.88861200  0.62251100  1
  C  532  1  0.37596400  0.90198700  0.62802500  1
  C  533  1  0.34716500  0.88624300  0.63451100  1
  C  534  1  0.35042200  0.85831900  0.63533100  1
  C  535  1  0.46271200  0.75060600  0.67610800  1
  C  536  1  0.50118600  0.75824000  0.67478400  1
  C  537  1  0.44838800  0.74503200  0.69009600  1
  C  538  1  0.47191600  0.74706000  0.70241500  1
  C  539  1  0.51033500  0.75500300  0.70111900  1
  C  540  1  0.52452900  0.76059400  0.68710200  1
  C  567  1  0.31050700  0.73389000  0.53670800  1
  C  568  1  0.37359500  0.92970300  0.62697600  1
  C  569  1  0.53360200  0.75853300  0.71313600  1
  C  570  1  0.37479800  0.56422900  0.63479700  1
  C  575  1  0.43811500  0.79441600  0.33054500  1
  C  576  1  0.42269600  0.81448900  0.33891400  1
  C  577  1  0.40470600  0.80289500  0.35084100  1
  C  579  1  0.42875300  0.76996100  0.33683300  1
  C  580  1  0.43857200  0.74451700  0.33110300  1
  C  581  1  0.42721500  0.71982000  0.33731600  1
  C  583  1  0.40235400  0.68938200  0.35244400  1
  C  584  1  0.41752900  0.67592600  0.34055000  1
  C  585  1  0.43314400  0.69462000  0.33132100  1
  C  586  1  0.38528600  0.67740300  0.36479000  1
  C  587  1  0.37251400  0.69173500  0.37717500  1
  C  589  1  0.35828300  0.72470200  0.39289600  1
  C  590  1  0.35252900  0.70034700  0.39987700  1
  C  591  1  0.36048500  0.68019000  0.39017100  1
  C  592  1  0.35250100  0.75015300  0.39929300  1
  C  593  1  0.35753100  0.77481000  0.39198700  1
  C  595  1  0.37251700  0.80520700  0.37513200  1
  C  596  1  0.35829400  0.81865100  0.38721700  1
  C  597  1  0.34944800  0.79996000  0.39764600  1
  C  598  1  0.38681500  0.81720500  0.36229000  1
  C  599  1  0.38417400  0.84556800  0.36122800  1
  C  600  1  0.34923800  0.85776600  0.35773100  1
  C  601  1  0.34586200  0.88570300  0.35737900  1
  C  602  1  0.37731100  0.90233000  0.36050400  1
  C  603  1  0.41226400  0.88997600  0.36395800  1
  C  604  1  0.41558900  0.86203700  0.36445200  1
  C  605  1  0.34488900  0.75133800  0.41447700  1
  C  606  1  0.30799300  0.74774400  0.42017700  1
  C  607  1  0.30125000  0.75036300  0.43518100  1
  C  608  1  0.33122600  0.75694000  0.44471900  1
  C  609  1  0.36810200  0.76035400  0.43898900  1
  C  610  1  0.37489100  0.75743100  0.42407700  1
  C  611  1  0.38262500  0.64901400  0.36513600  1
  C  612  1  0.41153500  0.63356800  0.37155400  1
  C  613  1  0.40813000  0.60566900  0.37238100  1
  C  614  1  0.37583300  0.59224900  0.36683000  1
  C  615  1  0.34709100  0.60795400  0.36031900  1
  C  616  1  0.35037600  0.63588200  0.35951000  1
  C  617  1  0.46232600  0.74347500  0.31851300  1
  C  618  1  0.50084500  0.73604800  0.31986600  1
  C  619  1  0.44797100  0.74880600  0.30450400  1
  C  620  1  0.47153000  0.74677700  0.29219700  1
  C  621  1  0.50998900  0.73902700  0.29352300  1
  C  622  1  0.52420600  0.73365900  0.30755800  1
  C  649  1  0.32577900  0.76080600  0.45938100  1
  C  650  1  0.37345000  0.56452700  0.36786000  1
  C  651  1  0.53329300  0.73549100  0.28152300  1
  C  652  1  0.37495400  0.92998200  0.35979000  1
  C  657  1  0.84539800  0.74854100  0.98222800  1
  C  658  1  0.88038000  0.75356400  0.98950800  1
  C  659  1  0.88238300  0.75032000  0.00487800  1
  C  660  1  0.84931900  0.74246200  0.01263500  1
  C  661  1  0.81473900  0.73665300  0.00531900  1
  C  662  1  0.81234500  0.74080700  0.99006700  1
  C  663  1  0.91791900  0.75493900  0.01345800  1
  C  667  1  0.91428500  0.76315700  0.98123700  1
  C  671  1  0.78086400  0.72648700  0.01352400  1
  C  675  1  0.77490200  0.73712900  0.98255200  1
  C  681  1  0.81903500  0.24838500  0.01248300  1
  C  682  1  0.78405300  0.25345300  0.00521900  1
  C  683  1  0.78195600  0.25020400  0.98984900  1
  C  684  1  0.81495900  0.24238300  0.98206500  1
  C  685  1  0.84955100  0.23657700  0.98935600  1
  C  686  1  0.85203300  0.24072000  0.00460700  1
  C  687  1  0.74638700  0.25477700  0.98129400  1
  C  691  1  0.75028100  0.26320300  0.01349000  1
  C  695  1  0.88334000  0.22641400  0.98112200  1
  C  699  1  0.88953300  0.23710400  0.01207500  1
  C  705  1  0.34603500  0.24788600  0.48216700  1
  C  706  1  0.38092600  0.25299500  0.48949200  1
  C  707  1  0.38272700  0.24997900  0.50488100  1
  C  708  1  0.34957900  0.24220700  0.51261400  1
  C  709  1  0.31510300  0.23628000  0.50525200  1
  C  710  1  0.31290100  0.24021000  0.48997400  1
  C  711  1  0.41815100  0.25475400  0.51350500  1
  C  715  1  0.41497900  0.26235100  0.48122800  1
  C  719  1  0.28112900  0.22621000  0.51342900  1
  C  723  1  0.27558800  0.23636300  0.48239000  1
  C  729  1  0.31889000  0.74780300  0.51253400  1
  C  730  1  0.28397200  0.75291400  0.50524000  1
  C  731  1  0.28204800  0.74988200  0.48985300  1
  C  732  1  0.31513700  0.74217300  0.48208700  1
  C  733  1  0.34965800  0.73629100  0.48941200  1
  C  734  1  0.35197300  0.74023300  0.50468400  1
  C  735  1  0.24656500  0.75457500  0.48126400  1
  C  739  1  0.25005200  0.76240800  0.51351300  1
  C  743  1  0.38354400  0.72624800  0.48119500  1
  C  747  1  0.38937700  0.73651200  0.51220900  1
  C  753  1  0.82646900  0.96943200  0.86575800  1
  C  754  1  0.81703200  0.98548100  0.87797800  1
  C  755  1  0.82217700  0.01367400  0.87720800  1
  C  756  1  0.83864900  0.02516400  0.86457100  1
  C  757  1  0.84842800  0.00911700  0.85241900  1
  C  758  1  0.84263900  0.98098300  0.85307500  1
  C  759  1  0.81108000  0.03210400  0.88928500  1
  C  763  1  0.80260300  0.97288800  0.89162900  1
  C  767  1  0.86452200  0.02153300  0.83895700  1
  C  771  1  0.85360500  0.96389900  0.84039900  1
  C  777  1  0.82668700  0.52558100  0.12893000  1
  C  778  1  0.81730700  0.50946800  0.11672200  1
  C  779  1  0.82244000  0.48128700  0.11752700  1
  C  780  1  0.83885300  0.46987500  0.13018800  1
  C  781  1  0.84857900  0.48598700  0.14233000  1
  C  782  1  0.84279600  0.51410900  0.14163700  1
  C  783  1  0.81139300  0.46278700  0.10546500  1
  C  787  1  0.80294800  0.52198100  0.10304600  1
  C  791  1  0.86460700  0.47365300  0.15581700  1
  C  795  1  0.85370200  0.53126100  0.15430200  1
  C  801  1  0.83785700  0.02557800  0.13212900  1
  C  802  1  0.84795100  0.00933000  0.12006700  1
  C  803  1  0.84230200  0.98118300  0.12086600  1
  C  804  1  0.82520500  0.96991200  0.13344200  1
  C  805  1  0.81498800  0.98615100  0.14546600  1
  C  806  1  0.82078700  0.01427200  0.14470300  1
  C  807  1  0.85351600  0.96256100  0.10888900  1
  C  811  1  0.86374900  0.02166600  0.10656800  1
  C  815  1  0.79844900  0.97395800  0.15890700  1
  C  819  1  0.80888800  0.03160400  0.15715400  1
  C  825  1  0.83814200  0.46941500  0.86258100  1
  C  826  1  0.84833400  0.48565800  0.87464000  1
  C  827  1  0.84266000  0.51379400  0.87386700  1
  C  828  1  0.82546800  0.52505800  0.86131800  1
  C  829  1  0.81515900  0.50882300  0.84929500  1
  C  830  1  0.82096200  0.48071000  0.85003400  1
  C  831  1  0.85394700  0.53241400  0.88584500  1
  C  835  1  0.86427700  0.47332800  0.88810900  1
  C  839  1  0.79851500  0.52100900  0.83588000  1
  C  843  1  0.80894700  0.46337600  0.83759200  1
  C  849  1  0.32721200  0.46895200  0.36598400  1
  C  850  1  0.31762200  0.48496100  0.37820100  1
  C  851  1  0.32251600  0.51317400  0.37742600  1
  C  852  1  0.33885500  0.52471900  0.36477900  1
  C  853  1  0.34877300  0.50871500  0.35262700  1
  C  854  1  0.34326400  0.48055700  0.35329500  1
  C  855  1  0.31128400  0.53156400  0.38950300  1
  C  859  1  0.30327200  0.47231300  0.39184900  1
  C  863  1  0.36471500  0.52119600  0.33915700  1
  C  867  1  0.35439600  0.46350700  0.34062600  1
  C  873  1  0.32733600  0.02519500  0.62875000  1
  C  874  1  0.31779800  0.00913700  0.61653900  1
  C  875  1  0.32269200  0.98093700  0.61733700  1
  C  876  1  0.33898800  0.96945200  0.62999900  1
  C  877  1  0.34886100  0.98550700  0.64214500  1
  C  878  1  0.34335200  0.01365100  0.64145500  1
  C  879  1  0.31150300  0.96249400  0.60526700  1
  C  883  1  0.30350200  0.02172200  0.60287400  1
  C  887  1  0.36476300  0.97309300  0.65563200  1
  C  891  1  0.35443300  0.03075600  0.65411700  1
  C  897  1  0.33827600  0.52512900  0.63242600  1
  C  898  1  0.34830500  0.50890900  0.62034400  1
  C  899  1  0.34270800  0.48075800  0.62113600  1
  C  900  1  0.32563400  0.46946400  0.63370900  1
  C  901  1  0.31545200  0.48567200  0.64574900  1
  C  902  1  0.32128200  0.51379100  0.64500800  1
  C  903  1  0.35393900  0.46215900  0.60915100  1
  C  907  1  0.36393700  0.52127800  0.60682600  1
  C  911  1  0.29892600  0.47344900  0.65918600  1
  C  915  1  0.30949100  0.53108600  0.65748900  1
  C  921  1  0.33850000  0.96901900  0.36226600  1
  C  922  1  0.34861100  0.98525100  0.37434100  1
  C  923  1  0.34298300  0.01339000  0.37356400  1
  C  924  1  0.32582700  0.02465800  0.36101000  1
  C  925  1  0.31557100  0.00843600  0.34897600  1
  C  926  1  0.32140400  0.98032700  0.34970600  1
  C  927  1  0.35427100  0.03200200  0.38554500  1
  C  931  1  0.36438300  0.97290500  0.38783400  1
  C  935  1  0.29895700  0.02063200  0.33555800  1
  C  939  1  0.30951100  0.96301300  0.33723800  1
  C  945  1  0.55600900  0.74254800  0.73557900  1
  C  946  1  0.54045900  0.75262200  0.74873900  1
  C  947  1  0.56306500  0.75261800  0.76160400  1
  C  948  1  0.60072100  0.74237600  0.76114700  1
  C  949  1  0.61574300  0.73136400  0.74813000  1
  C  950  1  0.59329600  0.73159500  0.73522700  1
  C  951  1  0.54884500  0.76296100  0.77587300  1
  C  955  1  0.50064400  0.76305700  0.74913500  1
  C  959  1  0.65460000  0.71917200  0.74791500  1
  C  963  1  0.60903400  0.71997300  0.72149700  1
  C  969  1  0.55590700  0.75150000  0.25910700  1
  C  970  1  0.54044800  0.74139000  0.24593300  1
  C  971  1  0.56314700  0.74142900  0.23309200  1
  C  972  1  0.60080000  0.75174400  0.23358600  1
  C  973  1  0.61573800  0.76278600  0.24661600  1
  C  974  1  0.59320000  0.76251500  0.25949800  1
  C  975  1  0.54902700  0.73105000  0.21881000  1
  C  979  1  0.50063000  0.73088600  0.24549700  1
  C  983  1  0.65459400  0.77505300  0.24687100  1
  C  987  1  0.60885200  0.77416200  0.27324400  1
  C  993  1  0.10830100  0.24250200  0.25915500  1
  C  994  1  0.12384600  0.25270900  0.24601600  1
  C  995  1  0.10118900  0.25284000  0.23316400  1
  C  996  1  0.06349300  0.24259100  0.23360800  1
  C  997  1  0.04847100  0.23145900  0.24660100  1
  C  998  1  0.07096000  0.23157000  0.25949500  1
  C  999  1  0.11539700  0.26332900  0.21891900  1
  C  1003  1  0.16370600  0.26313600  0.24563000  1
  C  1007  1  0.00956900  0.21926100  0.24680000  1
  C  1011  1  0.05519700  0.21985000  0.27320500  1
  C  1017  1  0.10843800  0.25166300  0.73557600  1
  C  1018  1  0.12381400  0.24151600  0.74875000  1
  C  1019  1  0.10107300  0.24150900  0.76157900  1
  C  1020  1  0.06346400  0.25183400  0.76108000  1
  C  1021  1  0.04861800  0.26291700  0.74805200  1
  C  1022  1  0.07118700  0.26267200  0.73517900  1
  C  1023  1  0.11510200  0.23108400  0.77585700  1
  C  1027  1  0.16359300  0.23102100  0.74919300  1
  C  1031  1  0.00982400  0.27520300  0.74779500  1
  C  1035  1  0.05560600  0.27432800  0.72143200  1
  C  1041  1  0.47404600  0.61978900  0.83019000  1
  C  1042  1  0.48870700  0.59994700  0.83892000  1
  C  1043  1  0.50491000  0.61184700  0.85112800  1
  C  1045  1  0.48142100  0.64435700  0.83672800  1
  C  1046  1  0.47184200  0.66962900  0.83074500  1
  C  1047  1  0.48185800  0.69454700  0.83701600  1
  C  1049  1  0.50540500  0.72545200  0.85216900  1
  C  1050  1  0.49023300  0.73857800  0.84016300  1
  C  1051  1  0.47522300  0.71960900  0.83096100  1
  C  1052  1  0.52236300  0.73777200  0.86444100  1
  C  1053  1  0.53552900  0.72372600  0.87685700  1
  C  1055  1  0.55124200  0.69115000  0.89260800  1
  C  1056  1  0.55637900  0.71566200  0.89950100  1
  C  1057  1  0.54728400  0.73559300  0.88980100  1
  C  1058  1  0.55823900  0.66587200  0.89903200  1
  C  1059  1  0.55306500  0.64102800  0.89193100  1
  C  1061  1  0.53725100  0.61019500  0.87542300  1
  C  1062  1  0.55240900  0.59708000  0.88744900  1
  C  1063  1  0.56181100  0.61603600  0.89765900  1
  C  1064  1  0.52261400  0.59786600  0.86273000  1
  C  1065  1  0.52496300  0.56947600  0.86195500  1
  C  1066  1  0.55919600  0.55687000  0.85793700  1
  C  1067  1  0.56260200  0.52893000  0.85845300  1
  C  1068  1  0.53198200  0.51264800  0.86305700  1
  C  1069  1  0.49767400  0.52552400  0.86693800  1
  C  1070  1  0.49421700  0.55344500  0.86646100  1
  C  1071  1  0.56858200  0.66507000  0.91397900  1
  C  1072  1  0.60656800  0.66856300  0.91852600  1
  C  1073  1  0.61644000  0.66583800  0.93326100  1
  C  1074  1  0.58847700  0.65969700  0.94371900  1
  C  1075  1  0.55054200  0.65617200  0.93913000  1
  C  1076  1  0.54066900  0.65897700  0.92445600  1
  C  1077  1  0.52552300  0.76615800  0.86448700  1
  C  1078  1  0.49453100  0.78236800  0.86848900  1
  C  1079  1  0.49790300  0.81032500  0.86842200  1
  C  1080  1  0.53239200  0.82293100  0.86450500  1
  C  1081  1  0.56342900  0.80652300  0.86061300  1
  C  1082  1  0.56006400  0.77856800  0.86061300  1
  C  1083  1  0.45178100  0.67015200  0.81727200  1
  C  1084  1  0.41172500  0.66881100  0.81695600  1
  C  1085  1  0.47150000  0.67325700  0.80404700  1
  C  1086  1  0.45160500  0.67541500  0.79086000  1
  C  1087  1  0.41150400  0.67418500  0.79049500  1
  C  1088  1  0.39184800  0.67071200  0.80373600  1
  C  1115  1  0.59799100  0.65524900  0.95801600  1
  C  1116  1  0.53451200  0.85061900  0.86396800  1
  C  1117  1  0.39243300  0.67772000  0.77747500  1
  C  1118  1  0.53466800  0.48492700  0.86404600  1
  C  1123  1  0.47471900  0.71551000  0.16477200  1
  C  1124  1  0.48939100  0.73542700  0.15607600  1
  C  1125  1  0.50500700  0.72366100  0.14372900  1
  C  1127  1  0.48167700  0.69101400  0.15810500  1
  C  1128  1  0.47212500  0.66568300  0.16404000  1
  C  1129  1  0.48211500  0.64083200  0.15770300  1
  C  1131  1  0.50565700  0.61009200  0.14247700  1
  C  1132  1  0.49054900  0.59684700  0.15446700  1
  C  1133  1  0.47554600  0.61571400  0.16371400  1
  C  1134  1  0.52247900  0.59788600  0.13015300  1
  C  1135  1  0.53529200  0.61202800  0.11770700  1
  C  1137  1  0.54985900  0.64473300  0.10185900  1
  C  1138  1  0.55470900  0.62027300  0.09489600  1
  C  1139  1  0.54652800  0.60025700  0.10467700  1
  C  1140  1  0.55603500  0.67007800  0.09537400  1
  C  1141  1  0.55126500  0.69486100  0.10256900  1
  C  1143  1  0.53632300  0.72555500  0.11925000  1
  C  1144  1  0.55057700  0.73879100  0.10709300  1
  C  1145  1  0.55944600  0.71991500  0.09678000  1
  C  1146  1  0.52232600  0.73776200  0.13207200  1
  C  1147  1  0.52471100  0.76615300  0.13288900  1
  C  1148  1  0.55923400  0.77879300  0.13656200  1
  C  1149  1  0.56262700  0.80674000  0.13605300  1
  C  1150  1  0.53170200  0.82299400  0.13179600  1
  C  1151  1  0.49711600  0.81008500  0.12825600  1
  C  1152  1  0.49365500  0.78215800  0.12874300  1
  C  1153  1  0.56374000  0.67107100  0.08019500  1
  C  1154  1  0.60068600  0.66741900  0.07456800  1
  C  1155  1  0.60770400  0.67023600  0.05959400  1
  C  1156  1  0.57796200  0.67708300  0.05001800  1
  C  1157  1  0.54101600  0.68050800  0.05566900  1
  C  1158  1  0.53395400  0.67739600  0.07055300  1
  C  1159  1  0.52569400  0.56951300  0.13006400  1
  C  1160  1  0.49475000  0.55323100  0.12601900  1
  C  1161  1  0.49813900  0.52528200  0.12609400  1
  C  1162  1  0.53258800  0.51275700  0.13007200  1
  C  1163  1  0.56358800  0.52923800  0.13399500  1
  C  1164  1  0.56020500  0.55718500  0.13398600  1
  C  1165  1  0.45208500  0.66502900  0.17751700  1
  C  1166  1  0.41204800  0.66657400  0.17784100  1
  C  1167  1  0.47175600  0.66162600  0.19072700  1
  C  1168  1  0.45183200  0.65939700  0.20390700  1
  C  1169  1  0.41174800  0.66082400  0.20428000  1
  C  1170  1  0.39214600  0.66457900  0.19105200  1
  C  1197  1  0.58375200  0.68125700  0.03539900  1
  C  1198  1  0.53470800  0.48507500  0.13063300  1
  C  1199  1  0.39262900  0.65726600  0.21729400  1
  C  1200  1  0.53437300  0.85071800  0.13078700  1
  C  1205  1  0.67756500  0.12043300  0.16510100  1
  C  1206  1  0.66300600  0.10047500  0.15641200  1
  C  1207  1  0.64850900  0.11208400  0.14382000  1
  C  1209  1  0.67171000  0.14482500  0.15817500  1
  C  1210  1  0.68172200  0.17015800  0.16400000  1
  C  1211  1  0.67201200  0.19499100  0.15758300  1
  C  1213  1  0.64811100  0.22563900  0.14238900  1
  C  1214  1  0.66460300  0.23900300  0.15406800  1
  C  1215  1  0.67968600  0.22017000  0.16332300  1
  C  1216  1  0.63058900  0.23774100  0.13018200  1
  C  1217  1  0.61665600  0.22352000  0.11793000  1
  C  1219  1  0.60104900  0.19076100  0.10225000  1
  C  1220  1  0.59404200  0.21520700  0.09554900  1
  C  1221  1  0.60300500  0.23522600  0.10521900  1
  C  1222  1  0.59501500  0.16541200  0.09575300  1
  C  1223  1  0.60130800  0.14060100  0.10274300  1
  C  1225  1  0.61760100  0.10995300  0.11926800  1
  C  1226  1  0.60376600  0.09663200  0.10707100  1
  C  1227  1  0.59398100  0.11548800  0.09686500  1
  C  1228  1  0.63161100  0.09784000  0.13211400  1
  C  1229  1  0.62859300  0.06948000  0.13314400  1
  C  1230  1  0.59332100  0.05730300  0.13622300  1
  C  1231  1  0.58980700  0.02936700  0.13660700  1
  C  1232  1  0.62144800  0.01271000  0.13393400  1
  C  1233  1  0.65673700  0.02505300  0.13091600  1
  C  1234  1  0.66023300  0.05298700  0.13041900  1
  C  1235  1  0.58443400  0.16460900  0.08083400  1
  C  1236  1  0.54614900  0.16670500  0.07642100  1
  C  1237  1  0.53623500  0.16417300  0.06168000  1
  C  1238  1  0.56442700  0.15965300  0.05107000  1
  C  1239  1  0.60266500  0.15751700  0.05554500  1
  C  1240  1  0.61258700  0.16011400  0.07022600  1
  C  1241  1  0.62800900  0.26613900  0.12993000  1
  C  1242  1  0.65661000  0.28167200  0.12333500  1
  C  1243  1  0.65310200  0.30956400  0.12252200  1
  C  1244  1  0.62095600  0.32288700  0.12822600  1
  C  1245  1  0.59251000  0.30709300  0.13489900  1
  C  1246  1  0.59591800  0.27917800  0.13571200  1
  C  1247  1  0.70172500  0.17084000  0.17748800  1
  C  1248  1  0.74168600  0.16856500  0.17786600  1
  C  1249  1  0.68210100  0.17479800  0.19066200  1
  C  1250  1  0.70201100  0.17687200  0.20385200  1
  C  1251  1  0.74202600  0.17471400  0.20428300  1
  C  1252  1  0.76156200  0.17042800  0.19108800  1
  C  1279  1  0.55486300  0.15534900  0.03674700  1
  C  1280  1  0.61841300  0.35059800  0.12717600  1
  C  1281  1  0.76116200  0.17809300  0.21731500  1
  C  1282  1  0.61895200  0.98505240  0.13468200  1
  C  1287  1  0.67692300  0.21521900  0.82936800  1
  C  1288  1  0.66245900  0.23520900  0.83804000  1
  C  1289  1  0.64841500  0.22368500  0.85073800  1
  C  1291  1  0.67135300  0.19088200  0.83639600  1
  C  1292  1  0.68128400  0.16552100  0.83061400  1
  C  1293  1  0.67157800  0.14072800  0.83710100  1
  C  1295  1  0.64779100  0.11016800  0.85240500  1
  C  1296  1  0.66406100  0.09673700  0.84071300  1
  C  1297  1  0.67913500  0.11551400  0.83140400  1
  C  1298  1  0.63052300  0.09813000  0.86469500  1
  C  1299  1  0.61714900  0.11241300  0.87700600  1
  C  1301  1  0.60283300  0.14525800  0.89279600  1
  C  1302  1  0.59620300  0.12085100  0.89960500  1
  C  1303  1  0.60425600  0.10077700  0.88986000  1
  C  1304  1  0.59761600  0.17064800  0.89933600  1
  C  1305  1  0.60332300  0.19540500  0.89220300  1
  C  1307  1  0.61852100  0.22595300  0.87545900  1
  C  1308  1  0.60552600  0.23934700  0.88775600  1
  C  1309  1  0.59648700  0.22055200  0.89810600  1
  C  1310  1  0.63188100  0.23798900  0.86248500  1
  C  1311  1  0.62884400  0.26633900  0.86141800  1
  C  1312  1  0.59340900  0.27844900  0.85862700  1
  C  1313  1  0.58989200  0.30637800  0.85824300  1
  C  1314  1  0.62168600  0.32309900  0.86063500  1
  C  1315  1  0.65713300  0.31082200  0.86336500  1
  C  1316  1  0.66064200  0.28289500  0.86385800  1
  C  1317  1  0.58981000  0.17160000  0.91450600  1
  C  1318  1  0.55263700  0.16877600  0.92007000  1
  C  1319  1  0.54566500  0.17141100  0.93505700  1
  C  1320  1  0.57570800  0.17724500  0.94470300  1
  C  1321  1  0.61286400  0.17984800  0.93911500  1
  C  1322  1  0.61986500  0.17689700  0.92421900  1
  C  1323  1  0.62784000  0.06973000  0.86499100  1
  C  1324  1  0.65638000  0.05422800  0.87160900  1
  C  1325  1  0.65283500  0.02633100  0.87240800  1
  C  1326  1  0.62074200  0.01296600  0.86664600  1
  C  1327  1  0.59237600  0.02872400  0.85993800  1
  C  1328  1  0.59581400  0.05664800  0.85914500  1
  C  1329  1  0.70129300  0.16477000  0.81712900  1
  C  1330  1  0.74123400  0.16730000  0.81675000  1
  C  1331  1  0.68173500  0.16048700  0.80396700  1
  C  1332  1  0.70169200  0.15834700  0.79079200  1
  C  1333  1  0.74169200  0.16073300  0.79036100  1
  C  1334  1  0.76115600  0.16534500  0.80354400  1
  C  1361  1  0.57006400  0.18127700  0.95933200  1
  C  1362  1  0.61818400  0.98524640  0.86766700  1
  C  1363  1  0.76088700  0.15726900  0.77734800  1
  C  1364  1  0.61916200  0.35075600  0.85989800  1
  C  1369  1  0.96899290  0.11959300  0.33138100  1
  C  1370  1  0.98459190  0.09965400  0.33980200  1
  C  1371  1  0.00453600  0.11151800  0.35118000  1
  C  1373  1  0.97991590  0.14416800  0.33714800  1
  C  1374  1  0.97040090  0.16949500  0.33120200  1
  C  1375  1  0.98217690  0.19426600  0.33720600  1
  C  1377  1  0.00692200  0.22497900  0.35218000  1
  C  1378  1  0.99286692  0.23813300  0.33998700  1
  C  1379  1  0.97722090  0.21928400  0.33086700  1
  C  1380  1  0.02371200  0.23723000  0.36450400  1
  C  1381  1  0.03620900  0.22311600  0.37699100  1
  C  1383  1  0.05169900  0.19040600  0.39267900  1
  C  1384  1  0.05601700  0.21483100  0.39974300  1
  C  1385  1  0.04712600  0.23486000  0.39007300  1
  C  1386  1  0.05916900  0.16507600  0.39895900  1
  C  1387  1  0.05466400  0.14037600  0.39164800  1
  C  1389  1  0.03912800  0.10974800  0.37499200  1
  C  1390  1  0.05542700  0.09657700  0.38678200  1
  C  1391  1  0.06458200  0.11539900  0.39709900  1
  C  1392  1  0.02356700  0.09747700  0.36244600  1
  C  1393  1  0.02552500  0.06907600  0.36166900  1
  C  1394  1  0.05911300  0.05634300  0.35702900  1
  C  1395  1  0.06244300  0.02840200  0.35755300  1
  C  1396  1  0.03238800  0.01224400  0.36278500  1
  C  1397  1  0.99870892  0.02524200  0.36729700  1
  C  1398  1  0.99535792  0.05316900  0.36683300  1
  C  1399  1  0.06928900  0.16402700  0.41393200  1
  C  1400  1  0.10695700  0.16840200  0.41864400  1
  C  1401  1  0.11662000  0.16563000  0.43339900  1
  C  1402  1  0.08875400  0.15853400  0.44371400  1
  C  1403  1  0.05114300  0.15411800  0.43897200  1
  C  1404  1  0.04148300  0.15698500  0.42427800  1
  C  1405  1  0.02686700  0.26560300  0.36461000  1
  C  1406  1  0.99565292  0.28175800  0.36842300  1
  C  1407  1  0.99892692  0.30971400  0.36837900  1
  C  1408  1  0.03352000  0.32237500  0.36465400  1
  C  1409  1  0.06477500  0.30602300  0.36095100  1
  C  1410  1  0.06152100  0.27806100  0.36094300  1
  C  1411  1  0.94650690  0.17038900  0.31864100  1
  C  1412  1  0.90835090  0.17871800  0.31993500  1
  C  1413  1  0.96049390  0.16418000  0.30468400  1
  C  1414  1  0.93696890  0.16630100  0.29237100  1
  C  1415  1  0.89889500  0.17498500  0.29363000  1
  C  1416  1  0.88502200  0.18114800  0.30761900  1
  C  1443  1  0.09806800  0.15412200  0.45803100  1
  C  1444  1  0.03552800  0.35006300  0.36411200  1
  C  1445  1  0.87568300  0.17865800  0.28160600  1
  C  1446  1  0.03503500  0.98452340  0.36375600  1
  C  1451  1  0.96947890  0.21497800  0.66352800  1
  C  1452  1  0.98512790  0.23497400  0.65514100  1
  C  1453  1  0.00467800  0.22318900  0.64365000  1
  C  1455  1  0.98021390  0.19044300  0.65768700  1
  C  1456  1  0.97075490  0.16507200  0.66361500  1
  C  1457  1  0.98247790  0.14034800  0.65756800  1
  C  1459  1  0.00711500  0.10974100  0.64253100  1
  C  1460  1  0.99315692  0.09651500  0.65472800  1
  C  1461  1  0.97758390  0.11530100  0.66388700  1
  C  1462  1  0.02372300  0.09756000  0.63016000  1
  C  1463  1  0.03587700  0.11172600  0.61763300  1
  C  1465  1  0.05029200  0.14452000  0.60183000  1
  C  1466  1  0.05428700  0.12012300  0.59472100  1
  C  1467  1  0.04624400  0.10003700  0.60447800  1
  C  1468  1  0.05699900  0.16990100  0.59547000  1
  C  1469  1  0.05291900  0.19456100  0.60284800  1
  C  1471  1  0.03828300  0.22510900  0.61964200  1
  C  1472  1  0.05375900  0.23836000  0.60770800  1
  C  1473  1  0.06237000  0.21958300  0.59730900  1
  C  1474  1  0.02336300  0.23730500  0.63231500  1
  C  1475  1  0.02535400  0.26570700  0.63310500  1
  C  1476  1  0.05921800  0.27847500  0.63747000  1
  C  1477  1  0.06253700  0.30642300  0.63694600  1
  C  1478  1  0.03219700  0.32254900  0.63198700  1
  C  1479  1  0.99825792  0.30951200  0.62774300  1
  C  1480  1  0.99489892  0.28158000  0.62821900  1
  C  1481  1  0.06448300  0.17112500  0.58027200  1
  C  1482  1  0.10106400  0.16661600  0.57448200  1
  C  1483  1  0.10781400  0.16939800  0.55948500  1
  C  1484  1  0.07819200  0.17704900  0.55003200  1
  C  1485  1  0.04161700  0.18136600  0.55585400  1
  C  1486  1  0.03480500  0.17830400  0.57075900  1
  C  1487  1  0.02691200  0.06919500  0.63003100  1
  C  1488  1  0.99573592  0.05296800  0.62618900  1
  C  1489  1  0.99902892  0.02501900  0.62623800  1
  C  1490  1  0.03359900  0.01244100  0.63000600  1
  C  1491  1  0.06482600  0.02886600  0.63373000  1
  C  1492  1  0.06155300  0.05682000  0.63373300  1
  C  1493  1  0.94688690  0.16409300  0.67618300  1
  C  1494  1  0.90868890  0.15579500  0.67487900  1
  C  1495  1  0.96088490  0.17028400  0.69014400  1
  C  1496  1  0.93730890  0.16821400  0.70244800  1
  C  1497  1  0.89917600  0.15959700  0.70117600  1
  C  1498  1  0.88530600  0.15341300  0.68718500  1
  C  1525  1  0.08373300  0.18105300  0.53537100  1
  C  1526  1  0.03562200  0.98475740  0.63056100  1
  C  1527  1  0.87586400  0.15604500  0.71318500  1
  C  1528  1  0.03483000  0.35027500  0.63100400  1
  C  1533  1  0.18348600  0.62008400  0.66389200  1
  C  1534  1  0.16795900  0.60002900  0.65551800  1
  C  1535  1  0.14950100  0.61167200  0.64372000  1
  C  1537  1  0.17377000  0.64456300  0.65773500  1
  C  1538  1  0.18359400  0.66998300  0.66352100  1
  C  1539  1  0.17221500  0.69470800  0.65737200  1
  C  1541  1  0.14725200  0.72520000  0.64233400  1
  C  1542  1  0.16261400  0.73861100  0.65421900  1
  C  1543  1  0.17823800  0.71988100  0.66340300  1
  C  1544  1  0.12995700  0.73722100  0.63005700  1
  C  1545  1  0.11667900  0.72293600  0.61772700  1
  C  1547  1  0.10124000  0.69004100  0.60211100  1
  C  1548  1  0.09507800  0.71442600  0.59522300  1
  C  1549  1  0.10388700  0.73454000  0.60485900  1
  C  1550  1  0.09472300  0.66462400  0.59576200  1
  C  1551  1  0.10032100  0.63992200  0.60294800  1
  C  1553  1  0.11633900  0.60944900  0.61961000  1
  C  1554  1  0.10128800  0.59605700  0.60764500  1
  C  1555  1  0.09173300  0.61479600  0.59734300  1
  C  1556  1  0.13126500  0.59739700  0.63232400  1
  C  1557  1  0.12864900  0.56902500  0.63335900  1
  C  1558  1  0.09391500  0.55675700  0.63713600  1
  C  1559  1  0.09053900  0.52881300  0.63748300  1
  C  1560  1  0.12179700  0.51225600  0.63408000  1
  C  1561  1  0.15655100  0.52467800  0.63035000  1
  C  1562  1  0.15986500  0.55262300  0.62985800  1
  C  1563  1  0.08430900  0.66359300  0.58082600  1
  C  1564  1  0.04624100  0.66657500  0.57628800  1
  C  1565  1  0.03646700  0.66398700  0.56153500  1
  C  1566  1  0.06460000  0.65850500  0.55104100  1
  C  1567  1  0.10261000  0.65545300  0.55563000  1
  C  1568  1  0.11238700  0.65812000  0.57032300  1
  C  1569  1  0.12737500  0.76561000  0.62975000  1
  C  1570  1  0.15632400  0.78109300  0.62334300  1
  C  1571  1  0.15295400  0.80898600  0.62251100  1
  C  1572  1  0.12062900  0.82236100  0.62802500  1
  C  1573  1  0.09183000  0.80661700  0.63451100  1
  C  1574  1  0.09508700  0.77869300  0.63533100  1
  C  1575  1  0.20737700  0.67098000  0.67610800  1
  C  1576  1  0.24585100  0.67861400  0.67478400  1
  C  1577  1  0.19305300  0.66540600  0.69009600  1
  C  1578  1  0.21658100  0.66743400  0.70241500  1
  C  1579  1  0.25500000  0.67537700  0.70111900  1
  C  1580  1  0.26919400  0.68096800  0.68710200  1
  C  1607  1  0.05517200  0.65426400  0.53670800  1
  C  1608  1  0.11826000  0.85007700  0.62697600  1
  C  1609  1  0.27826700  0.67890700  0.71313600  1
  C  1610  1  0.11946300  0.48460300  0.63479700  1
  C  1615  1  0.18278000  0.71479000  0.33054500  1
  C  1616  1  0.16736100  0.73486300  0.33891400  1
  C  1617  1  0.14937100  0.72326900  0.35084100  1
  C  1619  1  0.17341800  0.69033500  0.33683300  1
  C  1620  1  0.18323700  0.66489100  0.33110300  1
  C  1621  1  0.17188000  0.64019400  0.33731600  1
  C  1623  1  0.14701900  0.60975600  0.35244400  1
  C  1624  1  0.16219400  0.59630000  0.34055000  1
  C  1625  1  0.17780900  0.61499400  0.33132100  1
  C  1626  1  0.12995100  0.59777700  0.36479000  1
  C  1627  1  0.11717900  0.61210900  0.37717500  1
  C  1629  1  0.10294800  0.64507600  0.39289600  1
  C  1630  1  0.09719400  0.62072100  0.39987700  1
  C  1631  1  0.10515000  0.60056400  0.39017100  1
  C  1632  1  0.09716600  0.67052700  0.39929300  1
  C  1633  1  0.10219600  0.69518400  0.39198700  1
  C  1635  1  0.11718200  0.72558100  0.37513200  1
  C  1636  1  0.10295900  0.73902500  0.38721700  1
  C  1637  1  0.09411300  0.72033400  0.39764600  1
  C  1638  1  0.13148000  0.73757900  0.36229000  1
  C  1639  1  0.12883900  0.76594200  0.36122800  1
  C  1640  1  0.09390300  0.77814000  0.35773100  1
  C  1641  1  0.09052700  0.80607700  0.35737900  1
  C  1642  1  0.12197600  0.82270400  0.36050400  1
  C  1643  1  0.15692900  0.81035000  0.36395800  1
  C  1644  1  0.16025400  0.78241100  0.36445200  1
  C  1645  1  0.08955400  0.67171200  0.41447700  1
  C  1646  1  0.05265800  0.66811800  0.42017700  1
  C  1647  1  0.04591500  0.67073700  0.43518100  1
  C  1648  1  0.07589100  0.67731400  0.44471900  1
  C  1649  1  0.11276700  0.68072800  0.43898900  1
  C  1650  1  0.11955600  0.67780500  0.42407700  1
  C  1651  1  0.12729000  0.56938800  0.36513600  1
  C  1652  1  0.15620000  0.55394200  0.37155400  1
  C  1653  1  0.15279500  0.52604300  0.37238100  1
  C  1654  1  0.12049800  0.51262300  0.36683000  1
  C  1655  1  0.09175600  0.52832800  0.36031900  1
  C  1656  1  0.09504100  0.55625600  0.35951000  1
  C  1657  1  0.20699100  0.66384900  0.31851300  1
  C  1658  1  0.24551000  0.65642200  0.31986600  1
  C  1659  1  0.19263600  0.66918000  0.30450400  1
  C  1660  1  0.21619500  0.66715100  0.29219700  1
  C  1661  1  0.25465400  0.65940100  0.29352300  1
  C  1662  1  0.26887100  0.65403300  0.30755800  1
  C  1689  1  0.07044400  0.68118000  0.45938100  1
  C  1690  1  0.11811500  0.48490100  0.36786000  1
  C  1691  1  0.27795800  0.65586500  0.28152300  1
  C  1692  1  0.11961900  0.85035600  0.35979000  1
  C  1697  1  0.59006300  0.66891500  0.98222800  1
  C  1698  1  0.62504500  0.67393800  0.98950800  1
  C  1699  1  0.62704800  0.67069400  0.00487800  1
  C  1700  1  0.59398400  0.66283600  0.01263500  1
  C  1701  1  0.55940400  0.65702700  0.00531900  1
  C  1702  1  0.55701000  0.66118100  0.99006700  1
  C  1703  1  0.66258400  0.67531300  0.01345800  1
  C  1707  1  0.65895000  0.68353100  0.98123700  1
  C  1711  1  0.52552900  0.64686100  0.01352400  1
  C  1715  1  0.51956700  0.65750300  0.98255200  1
  C  1721  1  0.56370000  0.16875900  0.01248300  1
  C  1722  1  0.52871800  0.17382700  0.00521900  1
  C  1723  1  0.52662100  0.17057800  0.98984900  1
  C  1724  1  0.55962400  0.16275700  0.98206500  1
  C  1725  1  0.59421600  0.15695100  0.98935600  1
  C  1726  1  0.59669800  0.16109400  0.00460700  1
  C  1727  1  0.49105200  0.17515100  0.98129400  1
  C  1731  1  0.49494600  0.18357700  0.01349000  1
  C  1735  1  0.62800500  0.14678800  0.98112200  1
  C  1739  1  0.63419800  0.15747800  0.01207500  1
  C  1745  1  0.09070000  0.16826000  0.48216700  1
  C  1746  1  0.12559100  0.17336900  0.48949200  1
  C  1747  1  0.12739200  0.17035300  0.50488100  1
  C  1748  1  0.09424400  0.16258100  0.51261400  1
  C  1749  1  0.05976800  0.15665400  0.50525200  1
  C  1750  1  0.05756600  0.16058400  0.48997400  1
  C  1751  1  0.16281600  0.17512800  0.51350500  1
  C  1755  1  0.15964400  0.18272500  0.48122800  1
  C  1759  1  0.02579400  0.14658400  0.51342900  1
  C  1763  1  0.02025300  0.15673700  0.48239000  1
  C  1769  1  0.06355500  0.66817700  0.51253400  1
  C  1770  1  0.02863700  0.67328800  0.50524000  1
  C  1771  1  0.02671300  0.67025600  0.48985300  1
  C  1772  1  0.05980200  0.66254700  0.48208700  1
  C  1773  1  0.09432300  0.65666500  0.48941200  1
  C  1774  1  0.09663800  0.66060700  0.50468400  1
  C  1775  1  0.99122992  0.67494900  0.48126400  1
  C  1779  1  0.99471692  0.68278200  0.51351300  1
  C  1783  1  0.12820900  0.64662200  0.48119500  1
  C  1787  1  0.13404200  0.65688600  0.51220900  1
  C  1793  1  0.57113400  0.88980600  0.86575800  1
  C  1794  1  0.56169700  0.90585540  0.87797800  1
  C  1795  1  0.56684200  0.93404840  0.87720800  1
  C  1796  1  0.58331400  0.94553840  0.86457100  1
  C  1797  1  0.59309300  0.92949140  0.85241900  1
  C  1798  1  0.58730400  0.90135740  0.85307500  1
  C  1799  1  0.55574500  0.95247840  0.88928500  1
  C  1803  1  0.54726800  0.89326200  0.89162900  1
  C  1807  1  0.60918700  0.94190740  0.83895700  1
  C  1811  1  0.59827000  0.88427300  0.84039900  1
  C  1817  1  0.57135200  0.44595500  0.12893000  1
  C  1818  1  0.56197200  0.42984200  0.11672200  1
  C  1819  1  0.56710500  0.40166100  0.11752700  1
  C  1820  1  0.58351800  0.39024900  0.13018800  1
  C  1821  1  0.59324400  0.40636100  0.14233000  1
  C  1822  1  0.58746100  0.43448300  0.14163700  1
  C  1823  1  0.55605800  0.38316100  0.10546500  1
  C  1827  1  0.54761300  0.44235500  0.10304600  1
  C  1831  1  0.60927200  0.39402700  0.15581700  1
  C  1835  1  0.59836700  0.45163500  0.15430200  1
  C  1841  1  0.58252200  0.94595240  0.13212900  1
  C  1842  1  0.59261600  0.92970440  0.12006700  1
  C  1843  1  0.58696700  0.90155740  0.12086600  1
  C  1844  1  0.56987000  0.89028600  0.13344200  1
  C  1845  1  0.55965300  0.90652540  0.14546600  1
  C  1846  1  0.56545200  0.93464640  0.14470300  1
  C  1847  1  0.59818100  0.88293500  0.10888900  1
  C  1851  1  0.60841400  0.94204040  0.10656800  1
  C  1855  1  0.54311400  0.89433200  0.15890700  1
  C  1859  1  0.55355300  0.95197840  0.15715400  1
  C  1865  1  0.58280700  0.38978900  0.86258100  1
  C  1866  1  0.59299900  0.40603200  0.87464000  1
  C  1867  1  0.58732500  0.43416800  0.87386700  1
  C  1868  1  0.57013300  0.44543200  0.86131800  1
  C  1869  1  0.55982400  0.42919700  0.84929500  1
  C  1870  1  0.56562700  0.40108400  0.85003400  1
  C  1871  1  0.59861200  0.45278800  0.88584500  1
  C  1875  1  0.60894200  0.39370200  0.88810900  1
  C  1879  1  0.54318000  0.44138300  0.83588000  1
  C  1883  1  0.55361200  0.38375000  0.83759200  1
  C  1889  1  0.07187700  0.38932600  0.36598400  1
  C  1890  1  0.06228700  0.40533500  0.37820100  1
  C  1891  1  0.06718100  0.43354800  0.37742600  1
  C  1892  1  0.08352000  0.44509300  0.36477900  1
  C  1893  1  0.09343800  0.42908900  0.35262700  1
  C  1894  1  0.08792900  0.40093100  0.35329500  1
  C  1895  1  0.05594900  0.45193800  0.38950300  1
  C  1899  1  0.04793700  0.39268700  0.39184900  1
  C  1903  1  0.10938000  0.44157000  0.33915700  1
  C  1907  1  0.09906100  0.38388100  0.34062600  1
  C  1913  1  0.07200100  0.94556940  0.62875000  1
  C  1914  1  0.06246300  0.92951140  0.61653900  1
  C  1915  1  0.06735700  0.90131140  0.61733700  1
  C  1916  1  0.08365300  0.88982600  0.62999900  1
  C  1917  1  0.09352600  0.90588140  0.64214500  1
  C  1918  1  0.08801700  0.93402540  0.64145500  1
  C  1919  1  0.05616800  0.88286800  0.60526700  1
  C  1923  1  0.04816700  0.94209640  0.60287400  1
  C  1927  1  0.10942800  0.89346700  0.65563200  1
  C  1931  1  0.09909800  0.95113040  0.65411700  1
  C  1937  1  0.08294100  0.44550300  0.63242600  1
  C  1938  1  0.09297000  0.42928300  0.62034400  1
  C  1939  1  0.08737300  0.40113200  0.62113600  1
  C  1940  1  0.07029900  0.38983800  0.63370900  1
  C  1941  1  0.06011700  0.40604600  0.64574900  1
  C  1942  1  0.06594700  0.43416500  0.64500800  1
  C  1943  1  0.09860400  0.38253300  0.60915100  1
  C  1947  1  0.10860200  0.44165200  0.60682600  1
  C  1951  1  0.04359100  0.39382300  0.65918600  1
  C  1955  1  0.05415600  0.45146000  0.65748900  1
  C  1961  1  0.08316500  0.88939300  0.36226600  1
  C  1962  1  0.09327600  0.90562540  0.37434100  1
  C  1963  1  0.08764800  0.93376440  0.37356400  1
  C  1964  1  0.07049200  0.94503240  0.36101000  1
  C  1965  1  0.06023600  0.92881040  0.34897600  1
  C  1966  1  0.06606900  0.90070140  0.34970600  1
  C  1967  1  0.09893600  0.95237640  0.38554500  1
  C  1971  1  0.10904800  0.89327900  0.38783400  1
  C  1975  1  0.04362200  0.94100640  0.33555800  1
  C  1979  1  0.05417600  0.88338700  0.33723800  1
  C  1985  1  0.30067400  0.66292200  0.73557900  1
  C  1986  1  0.28512400  0.67299600  0.74873900  1
  C  1987  1  0.30773000  0.67299200  0.76160400  1
  C  1988  1  0.34538600  0.66275000  0.76114700  1
  C  1989  1  0.36040800  0.65173800  0.74813000  1
  C  1990  1  0.33796100  0.65196900  0.73522700  1
  C  1991  1  0.29351000  0.68333500  0.77587300  1
  C  1995  1  0.24530900  0.68343100  0.74913500  1
  C  1999  1  0.39926500  0.63954600  0.74791500  1
  C  2003  1  0.35369900  0.64034700  0.72149700  1
  C  2009  1  0.30057200  0.67187400  0.25910700  1
  C  2010  1  0.28511300  0.66176400  0.24593300  1
  C  2011  1  0.30781200  0.66180300  0.23309200  1
  C  2012  1  0.34546500  0.67211800  0.23358600  1
  C  2013  1  0.36040300  0.68316000  0.24661600  1
  C  2014  1  0.33786500  0.68288900  0.25949800  1
  C  2015  1  0.29369200  0.65142400  0.21881000  1
  C  2019  1  0.24529500  0.65126000  0.24549700  1
  C  2023  1  0.39925900  0.69542700  0.24687100  1
  C  2027  1  0.35351700  0.69453600  0.27324400  1
  C  2033  1  0.85296600  0.16287600  0.25915500  1
  C  2034  1  0.86851100  0.17308300  0.24601600  1
  C  2035  1  0.84585400  0.17321400  0.23316400  1
  C  2036  1  0.80815800  0.16296500  0.23360800  1
  C  2037  1  0.79313600  0.15183300  0.24660100  1
  C  2038  1  0.81562500  0.15194400  0.25949500  1
  C  2039  1  0.86006200  0.18370300  0.21891900  1
  C  2043  1  0.90837090  0.18351000  0.24563000  1
  C  2047  1  0.75423400  0.13963500  0.24680000  1
  C  2051  1  0.79986200  0.14022400  0.27320500  1
  C  2057  1  0.85310300  0.17203700  0.73557600  1
  C  2058  1  0.86847900  0.16189000  0.74875000  1
  C  2059  1  0.84573800  0.16188300  0.76157900  1
  C  2060  1  0.80812900  0.17220800  0.76108000  1
  C  2061  1  0.79328300  0.18329100  0.74805200  1
  C  2062  1  0.81585200  0.18304600  0.73517900  1
  C  2063  1  0.85976700  0.15145800  0.77585700  1
  C  2067  1  0.90825790  0.15139500  0.74919300  1
  C  2071  1  0.75448900  0.19557700  0.74779500  1
  C  2075  1  0.80027100  0.19470200  0.72143200  1
  N  4  1  0.75506800  0.71803700  0.84925200  1
  N  8  1  0.75509300  0.77878900  0.84974600  1
  N  14  1  0.79415500  0.77676000  0.87908200  1
  N  20  1  0.79380100  0.71608100  0.87861600  1
  N  86  1  0.75497000  0.77671100  0.14552000  1
  N  90  1  0.75532700  0.71597500  0.14495800  1
  N  96  1  0.79381700  0.71826400  0.11550800  1
  N  102  1  0.79292700  0.77893400  0.11603400  1
  N  168  1  0.90980300  0.21826700  0.14545700  1
  N  172  1  0.90855700  0.27900400  0.14502400  1
  N  178  1  0.86964900  0.27651500  0.11564200  1
  N  184  1  0.87070800  0.21583500  0.11615700  1
  N  250  1  0.90978000  0.27676200  0.84916300  1
  N  254  1  0.90826300  0.21604200  0.84970300  1
  N  260  1  0.87030600  0.21868200  0.87926200  1
  N  266  1  0.87173400  0.27934000  0.87863500  1
  N  332  1  0.25644100  0.21776500  0.34898900  1
  N  336  1  0.25535500  0.27840300  0.34995800  1
  N  342  1  0.29510500  0.27614500  0.37910500  1
  N  348  1  0.29482100  0.21555400  0.37841200  1
  N  414  1  0.25650100  0.27617900  0.64579200  1
  N  418  1  0.25555900  0.21554500  0.64479100  1
  N  424  1  0.29473000  0.21795800  0.61552300  1
  N  430  1  0.29396100  0.27855500  0.61623100  1
  N  496  1  0.40885600  0.71795200  0.64568100  1
  N  500  1  0.40890700  0.77863300  0.64477200  1
  N  506  1  0.36932800  0.77591800  0.61555800  1
  N  512  1  0.37034100  0.71527100  0.61627700  1
  N  578  1  0.40882500  0.77623800  0.34895100  1
  N  582  1  0.40868100  0.71556900  0.34994900  1
  N  588  1  0.36992900  0.71838700  0.37931400  1
  N  594  1  0.37126500  0.77902400  0.37850400  1
  N  679  1  0.84220600  0.75117200  0.96788100  1
  N  680  1  0.84965200  0.74165000  0.02712500  1
  N  703  1  0.82233800  0.25085700  0.02683900  1
  N  704  1  0.81459800  0.24166200  0.96757300  1
  N  727  1  0.34307100  0.25047700  0.46780700  1
  N  728  1  0.34983100  0.24147400  0.52711300  1
  N  751  1  0.32199700  0.75020600  0.52690000  1
  N  752  1  0.31484800  0.74155400  0.46759100  1
  N  775  1  0.82103200  0.94305900  0.86614000  1
  N  776  1  0.84370000  0.05160100  0.86400100  1
  N  799  1  0.82125000  0.55194200  0.12851600  1
  N  800  1  0.84389800  0.44345000  0.13079000  1
  N  823  1  0.84354400  0.05191700  0.13165800  1
  N  824  1  0.81996600  0.94349100  0.13403800  1
  N  847  1  0.84383500  0.44308800  0.86303400  1
  N  848  1  0.82022300  0.55147100  0.86074100  1
  N  871  1  0.32194900  0.44256900  0.36637000  1
  N  872  1  0.34370100  0.55117000  0.36420800  1
  N  895  1  0.32206200  0.05156600  0.62834500  1
  N  896  1  0.34382800  0.94301300  0.63059200  1
  N  919  1  0.34392500  0.55146900  0.63198100  1
  N  920  1  0.32039400  0.44304700  0.63429200  1
  N  943  1  0.34415200  0.94269000  0.36270700  1
  N  944  1  0.32057900  0.05106700  0.36043600  1
  N  967  1  0.53425200  0.74174900  0.72368200  1
  N  968  1  0.62078700  0.74166100  0.77349600  1
  N  991  1  0.53406700  0.75228100  0.27098100  1
  N  992  1  0.62094600  0.75250800  0.22125600  1
  N  1015  1  0.13009600  0.24154600  0.27104000  1
  N  1016  1  0.04337800  0.24197400  0.22126500  1
  N  1039  1  0.13030800  0.25250100  0.72370900  1
  N  1040  1  0.04326700  0.25255600  0.77340100  1
  N  1044  1  0.49973300  0.63841100  0.84925200  1
  N  1048  1  0.49975800  0.69916300  0.84974600  1
  N  1054  1  0.53882000  0.69713400  0.87908200  1
  N  1060  1  0.53846600  0.63645500  0.87861600  1
  N  1126  1  0.49963500  0.69708500  0.14552000  1
  N  1130  1  0.49999200  0.63634900  0.14495800  1
  N  1136  1  0.53848200  0.63863800  0.11550800  1
  N  1142  1  0.53759200  0.69930800  0.11603400  1
  N  1208  1  0.65446800  0.13864100  0.14545700  1
  N  1212  1  0.65322200  0.19937800  0.14502400  1
  N  1218  1  0.61431400  0.19688900  0.11564200  1
  N  1224  1  0.61537300  0.13620900  0.11615700  1
  N  1290  1  0.65444500  0.19713600  0.84916300  1
  N  1294  1  0.65292800  0.13641600  0.84970300  1
  N  1300  1  0.61497100  0.13905600  0.87926200  1
  N  1306  1  0.61639900  0.19971400  0.87863500  1
  N  1372  1  0.00110600  0.13813900  0.34898900  1
  N  1376  1  0.00002000  0.19877700  0.34995800  1
  N  1382  1  0.03977000  0.19651900  0.37910500  1
  N  1388  1  0.03948600  0.13592800  0.37841200  1
  N  1454  1  0.00116600  0.19655300  0.64579200  1
  N  1458  1  0.00022400  0.13591900  0.64479100  1
  N  1464  1  0.03939500  0.13833200  0.61552300  1
  N  1470  1  0.03862600  0.19892900  0.61623100  1
  N  1536  1  0.15352100  0.63832600  0.64568100  1
  N  1540  1  0.15357200  0.69900700  0.64477200  1
  N  1546  1  0.11399300  0.69629200  0.61555800  1
  N  1552  1  0.11500600  0.63564500  0.61627700  1
  N  1618  1  0.15349000  0.69661200  0.34895100  1
  N  1622  1  0.15334600  0.63594300  0.34994900  1
  N  1628  1  0.11459400  0.63876100  0.37931400  1
  N  1634  1  0.11593000  0.69939800  0.37850400  1
  N  1719  1  0.58687100  0.67154600  0.96788100  1
  N  1720  1  0.59431700  0.66202400  0.02712500  1
  N  1743  1  0.56700300  0.17123100  0.02683900  1
  N  1744  1  0.55926300  0.16203600  0.96757300  1
  N  1767  1  0.08773600  0.17085100  0.46780700  1
  N  1768  1  0.09449600  0.16184800  0.52711300  1
  N  1791  1  0.06666200  0.67058000  0.52690000  1
  N  1792  1  0.05951300  0.66192800  0.46759100  1
  N  1815  1  0.56569700  0.86343300  0.86614000  1
  N  1816  1  0.58836500  0.97197540  0.86400100  1
  N  1839  1  0.56591500  0.47231600  0.12851600  1
  N  1840  1  0.58856300  0.36382400  0.13079000  1
  N  1863  1  0.58820900  0.97229140  0.13165800  1
  N  1864  1  0.56463100  0.86386500  0.13403800  1
  N  1887  1  0.58850000  0.36346200  0.86303400  1
  N  1888  1  0.56488800  0.47184500  0.86074100  1
  N  1911  1  0.06661400  0.36294300  0.36637000  1
  N  1912  1  0.08836600  0.47154400  0.36420800  1
  N  1935  1  0.06672700  0.97194040  0.62834500  1
  N  1936  1  0.08849300  0.86338700  0.63059200  1
  N  1959  1  0.08859000  0.47184300  0.63198100  1
  N  1960  1  0.06505900  0.36342100  0.63429200  1
  N  1983  1  0.08881700  0.86306400  0.36270700  1
  N  1984  1  0.06524400  0.97144140  0.36043600  1
  N  2007  1  0.27891700  0.66212300  0.72368200  1
  N  2008  1  0.36545200  0.66203500  0.77349600  1
  N  2031  1  0.27873200  0.67265500  0.27098100  1
  N  2032  1  0.36561100  0.67288200  0.22125600  1
  N  2055  1  0.87476100  0.16192000  0.27104000  1
  N  2056  1  0.78804300  0.16234800  0.22126500  1
  N  2079  1  0.87497300  0.17287500  0.72370900  1
  N  2080  1  0.78793200  0.17293000  0.77340100  1
