# generated using pymatgen
data_SiH20C34(N2O)2
_symmetry_space_group_name_H-M   'P 1'
_cell_length_a   54.44310000
_cell_length_b   54.49480000
_cell_length_c   54.49480000
_cell_angle_alpha   89.97900000
_cell_angle_beta   90.03340000
_cell_angle_gamma   89.97890000
_symmetry_Int_Tables_number   1
_chemical_formula_structural   SiH20C34(N2O)2
_chemical_formula_sum   'Si24 H480 C816 N96 O48'
_cell_volume   161678.71159158
_cell_formula_units_Z   24
loop_
 _symmetry_equiv_pos_site_id
 _symmetry_equiv_pos_as_xyz
  1  'x, y, z'
loop_
 _atom_site_type_symbol
 _atom_site_label
 _atom_site_symmetry_multiplicity
 _atom_site_fract_x
 _atom_site_fract_y
 _atom_site_fract_z
 _atom_site_occupancy
  Si  7  1  0.99917100  0.37577300  0.14022400  1
  Si  48  1  0.99688200  0.61835600  0.14487800  1
  Si  89  1  0.99670500  0.37562400  0.76290200  1
  Si  130  1  0.00133600  0.61962600  0.76081000  1
  Si  171  1  0.18815500  0.00134400  0.33189900  1
  Si  212  1  0.18817500  0.99725800  0.57454600  1
  Si  253  1  0.80653000  0.99725300  0.33271600  1
  Si  294  1  0.80879500  0.99975100  0.57453500  1
  Si  335  1  0.37458400  0.18622400  0.95457100  1
  Si  376  1  0.61821200  0.19037800  0.95006600  1
  Si  417  1  0.37598200  0.80956100  0.95181300  1
  Si  458  1  0.61915800  0.80697800  0.95475100  1
  Si  499  1  0.37778800  0.00033900  0.76263900  1
  Si  540  1  0.61969000  0.99558700  0.76426900  1
  Si  581  1  0.37692400  0.99572100  0.14354800  1
  Si  622  1  0.62001900  0.00210100  0.14055700  1
  Si  663  1  0.00115300  0.18856200  0.57252600  1
  Si  704  1  0.99517800  0.18771800  0.33085700  1
  Si  745  1  0.99601700  0.80853800  0.57183400  1
  Si  786  1  0.00020100  0.81058800  0.33092300  1
  Si  827  1  0.18850300  0.37760700  0.94958400  1
  Si  868  1  0.18703800  0.61987000  0.95596200  1
  Si  909  1  0.80783500  0.37798700  0.95334900  1
  Si  950  1  0.81104800  0.62020100  0.94949800  1
  H  26  1  0.92988300  0.40817600  0.09632500  1
  H  27  1  0.96432200  0.41189000  0.12250800  1
  H  28  1  0.94344400  0.33222500  0.08893800  1
  H  29  1  0.97773600  0.33566300  0.11554900  1
  H  30  1  0.03305900  0.33628800  0.12793400  1
  H  31  1  0.06574400  0.33467100  0.09888200  1
  H  32  1  0.04688800  0.40546600  0.07365700  1
  H  33  1  0.01473500  0.40760500  0.10283900  1
  H  34  1  0.04148500  0.40499800  0.15135300  1
  H  35  1  0.04611400  0.44222500  0.17254400  1
  H  36  1  0.97020700  0.44250500  0.18887500  1
  H  37  1  0.96584300  0.40423700  0.16893400  1
  H  38  1  0.96068500  0.34856000  0.16378200  1
  H  39  1  0.03767900  0.35831300  0.17058700  1
  H  40  1  0.03790800  0.33126600  0.20483400  1
  H  41  1  0.96124200  0.32156200  0.19788100  1
  H  67  1  0.06631800  0.58787400  0.10035800  1
  H  68  1  0.03309400  0.58362300  0.12772400  1
  H  69  1  0.04894900  0.66284600  0.09063000  1
  H  70  1  0.01537700  0.65861400  0.11778900  1
  H  71  1  0.96168400  0.65603600  0.13193500  1
  H  72  1  0.92970300  0.65669100  0.10219100  1
  H  73  1  0.94887900  0.58509800  0.07974900  1
  H  74  1  0.98097300  0.58419900  0.10931300  1
  H  75  1  0.96079600  0.58057800  0.15447000  1
  H  76  1  0.96413500  0.54270300  0.17517000  1
  H  77  1  0.03599500  0.56088300  0.19789000  1
  H  78  1  0.03318800  0.59872800  0.17649300  1
  H  79  1  0.03342600  0.65064700  0.16510900  1
  H  80  1  0.95830700  0.63325800  0.17622800  1
  H  81  1  0.95686300  0.66168500  0.20939200  1
  H  82  1  0.03169600  0.67880300  0.19818800  1
  H  108  1  0.06631300  0.40754800  0.80659400  1
  H  109  1  0.03207800  0.41141000  0.78029600  1
  H  110  1  0.05172900  0.33189000  0.81493400  1
  H  111  1  0.01750600  0.33551900  0.78828200  1
  H  112  1  0.96115800  0.33682400  0.77266600  1
  H  113  1  0.92821800  0.33486800  0.80144300  1
  H  114  1  0.94968400  0.40329000  0.83074000  1
  H  115  1  0.98210600  0.40578700  0.80192400  1
  H  116  1  0.95473900  0.40625800  0.75375600  1
  H  117  1  0.95040600  0.44400400  0.73355800  1
  H  118  1  0.02573400  0.44272800  0.71478500  1
  H  119  1  0.02972700  0.40389800  0.73372800  1
  H  120  1  0.03449200  0.34562900  0.74118600  1
  H  121  1  0.95900100  0.36137800  0.73010600  1
  H  122  1  0.95897100  0.33557700  0.69500000  1
  H  123  1  0.03392200  0.31928100  0.70677500  1
  H  149  1  0.93127400  0.58964700  0.80479000  1
  H  150  1  0.96441800  0.58525100  0.77741300  1
  H  151  1  0.95063400  0.66379800  0.81663900  1
  H  152  1  0.98414100  0.65941500  0.78940900  1
  H  153  1  0.03798800  0.65668000  0.77148600  1
  H  154  1  0.07038900  0.65755900  0.80081700  1
  H  155  1  0.04965100  0.58739100  0.82618900  1
  H  156  1  0.01709700  0.58630800  0.79715700  1
  H  157  1  0.03682000  0.58101600  0.75183500  1
  H  158  1  0.03305500  0.54320200  0.73110800  1
  H  159  1  0.96172900  0.56260800  0.70770600  1
  H  160  1  0.96497300  0.60044600  0.72904500  1
  H  161  1  0.96521500  0.65406700  0.74304900  1
  H  162  1  0.03829600  0.63247800  0.72685600  1
  H  163  1  0.03840700  0.65953000  0.69259400  1
  H  164  1  0.96590600  0.68142600  0.70942500  1
  H  190  1  0.14099600  0.93463000  0.36448800  1
  H  191  1  0.16763500  0.96856800  0.36819800  1
  H  192  1  0.13851100  0.94471200  0.28764000  1
  H  193  1  0.16507600  0.97885000  0.29125200  1
  H  194  1  0.17665700  0.03342600  0.29093600  1
  H  195  1  0.14769600  0.06614900  0.28732100  1
  H  196  1  0.12276200  0.05218800  0.35932400  1
  H  197  1  0.15138100  0.01955700  0.36318900  1
  H  198  1  0.19986600  0.04340600  0.36130000  1
  H  199  1  0.22053700  0.04746700  0.39895400  1
  H  200  1  0.23455500  0.97114500  0.39964500  1
  H  201  1  0.21508500  0.96729700  0.36110000  1
  H  202  1  0.21147000  0.96264000  0.30461400  1
  H  203  1  0.21975900  0.03922000  0.31571100  1
  H  204  1  0.25495300  0.03894900  0.29001100  1
  H  205  1  0.24600600  0.96283500  0.27829600  1
  H  231  1  0.14795100  0.07029300  0.54606100  1
  H  232  1  0.17468100  0.03659400  0.54136300  1
  H  233  1  0.13097100  0.04716400  0.61806100  1
  H  234  1  0.15806900  0.01335300  0.61364000  1
  H  235  1  0.17835400  0.95796800  0.60928200  1
  H  236  1  0.14908000  0.92569000  0.60855500  1
  H  237  1  0.12029600  0.95300200  0.54200200  1
  H  238  1  0.14990100  0.98488000  0.54207000  1
  H  239  1  0.19533200  0.96250200  0.53498500  1
  H  240  1  0.21705900  0.96578100  0.49771300  1
  H  241  1  0.24414500  0.03516400  0.51899600  1
  H  242  1  0.22202000  0.03232100  0.55645300  1
  H  243  1  0.20575000  0.03193300  0.61046500  1
  H  244  1  0.22203300  0.95975900  0.58621900  1
  H  245  1  0.25648300  0.95872800  0.61307300  1
  H  246  1  0.23978100  0.03041900  0.63736100  1
  H  272  1  0.85633300  0.06158200  0.36582900  1
  H  273  1  0.82935200  0.02782400  0.36922200  1
  H  274  1  0.85448800  0.05551800  0.28855800  1
  H  275  1  0.82757000  0.02160700  0.29184200  1
  H  276  1  0.82275900  0.96808400  0.29153000  1
  H  277  1  0.85213800  0.93570200  0.28891600  1
  H  278  1  0.86899100  0.94467700  0.36399400  1
  H  279  1  0.83979000  0.97687700  0.36689500  1
  H  280  1  0.79070100  0.95540300  0.36007800  1
  H  281  1  0.76988800  0.95166500  0.39781200  1
  H  282  1  0.76219600  0.02879900  0.40123100  1
  H  283  1  0.78185700  0.03246800  0.36276500  1
  H  284  1  0.78068900  0.03580300  0.30820900  1
  H  285  1  0.77883700  0.95811600  0.31220200  1
  H  286  1  0.74523600  0.95766500  0.28433300  1
  H  287  1  0.74737700  0.03505500  0.28015900  1
  H  313  1  0.84874800  0.92691000  0.54514400  1
  H  314  1  0.82201700  0.96073900  0.54085500  1
  H  315  1  0.86600900  0.94923100  0.61733200  1
  H  316  1  0.83891100  0.98308700  0.61335700  1
  H  317  1  0.81993800  0.03802300  0.60999700  1
  H  318  1  0.84936300  0.07013500  0.60930700  1
  H  319  1  0.87624800  0.04431000  0.54144200  1
  H  320  1  0.84642300  0.01261900  0.54147900  1
  H  321  1  0.80110900  0.03517700  0.53566400  1
  H  322  1  0.77908200  0.03247400  0.49849100  1
  H  323  1  0.75230100  0.96269500  0.51885700  1
  H  324  1  0.77478900  0.96494300  0.55619000  1
  H  325  1  0.79060000  0.96415100  0.60915000  1
  H  326  1  0.77616200  0.03773700  0.58815700  1
  H  327  1  0.74303900  0.03914000  0.61666800  1
  H  328  1  0.75753400  0.96583400  0.63730600  1
  H  354  1  0.40677400  0.14323400  0.88473900  1
  H  355  1  0.41052100  0.16923100  0.91919600  1
  H  356  1  0.33106800  0.13452200  0.89916400  1
  H  357  1  0.33454100  0.16096800  0.93354000  1
  H  358  1  0.33547400  0.17584900  0.98954700  1
  H  359  1  0.33347600  0.14694300  0.02236300  1
  H  360  1  0.40262000  0.11858000  0.00176600  1
  H  361  1  0.40511900  0.14749700  0.96940600  1
  H  362  1  0.40513000  0.19544000  0.99654800  1
  H  363  1  0.44255900  0.21622400  0.00102100  1
  H  364  1  0.44107300  0.23533200  0.92582600  1
  H  365  1  0.40257000  0.21577100  0.92169500  1
  H  366  1  0.34520700  0.20858300  0.91671600  1
  H  367  1  0.35978800  0.21834700  0.99256000  1
  H  368  1  0.33427700  0.25370400  0.99266900  1
  H  369  1  0.31926500  0.24338600  0.91730900  1
  H  395  1  0.58868700  0.14632800  0.02018300  1
  H  396  1  0.58400400  0.17354100  0.98694900  1
  H  397  1  0.66317200  0.13551900  0.00122600  1
  H  398  1  0.65850400  0.16259700  0.96761900  1
  H  399  1  0.65537700  0.17936100  0.91368700  1
  H  400  1  0.65628900  0.14987800  0.88149300  1
  H  401  1  0.58600000  0.12470000  0.90222900  1
  H  402  1  0.58488600  0.15389800  0.93459000  1
  H  403  1  0.57945800  0.19904900  0.91466500  1
  H  404  1  0.54154500  0.21965800  0.91839600  1
  H  405  1  0.56103100  0.24344400  0.98949800  1
  H  406  1  0.59896300  0.22218600  0.98629600  1
  H  407  1  0.65225100  0.20924700  0.98590800  1
  H  408  1  0.63081700  0.22367400  0.91244600  1
  H  409  1  0.65748300  0.25823100  0.91170900  1
  H  410  1  0.67912600  0.24327500  0.98466400  1
  H  436  1  0.40807100  0.85360700  0.02101900  1
  H  437  1  0.41196500  0.82750700  0.98663300  1
  H  438  1  0.33194100  0.86029200  0.00763000  1
  H  439  1  0.33560500  0.83385100  0.97330900  1
  H  440  1  0.33667800  0.82185100  0.91766200  1
  H  441  1  0.33522200  0.85099500  0.88506900  1
  H  442  1  0.40572800  0.87654200  0.90472600  1
  H  443  1  0.40775000  0.84720500  0.93672800  1
  H  444  1  0.40550600  0.79870400  0.90966400  1
  H  445  1  0.44306200  0.77797500  0.90522700  1
  H  446  1  0.44314700  0.76150500  0.98104900  1
  H  447  1  0.40455000  0.78095500  0.98520400  1
  H  448  1  0.34835800  0.78585300  0.98992000  1
  H  449  1  0.35890800  0.77928900  0.91309800  1
  H  450  1  0.33163100  0.74522000  0.91246100  1
  H  451  1  0.32112300  0.75196700  0.98895800  1
  H  477  1  0.58830500  0.85114100  0.88521100  1
  H  478  1  0.58424200  0.82386200  0.91852000  1
  H  479  1  0.66322700  0.86155100  0.90266200  1
  H  480  1  0.65918000  0.83447700  0.93631500  1
  H  481  1  0.65685100  0.81979700  0.98999300  1
  H  482  1  0.65747500  0.84943600  0.02201000  1
  H  483  1  0.58581900  0.87196000  0.00284000  1
  H  484  1  0.58494700  0.84249300  0.97071600  1
  H  485  1  0.58125400  0.79732300  0.99073100  1
  H  486  1  0.54345700  0.77639800  0.98734500  1
  H  487  1  0.56199900  0.75362900  0.91568900  1
  H  488  1  0.59973900  0.77522800  0.91853000  1
  H  489  1  0.65166200  0.78720400  0.91813700  1
  H  490  1  0.63421800  0.77538600  0.99307100  1
  H  491  1  0.66275500  0.74225800  0.99427600  1
  H  492  1  0.67994500  0.75418900  0.91964000  1
  H  518  1  0.40933400  0.94634700  0.82399800  1
  H  519  1  0.41275600  0.97822000  0.79460200  1
  H  520  1  0.33323000  0.94113000  0.80981500  1
  H  521  1  0.33651400  0.97289600  0.78023200  1
  H  522  1  0.33610600  0.02534100  0.78228200  1
  H  523  1  0.33266100  0.05985000  0.80884000  1
  H  524  1  0.40991400  0.06408700  0.81343500  1
  H  525  1  0.41359700  0.03000600  0.78677800  1
  H  526  1  0.40190600  0.03809000  0.73609200  1
  H  527  1  0.44001800  0.03928700  0.71512500  1
  H  528  1  0.44969700  0.96346500  0.72819800  1
  H  529  1  0.41141500  0.96200900  0.74868800  1
  H  530  1  0.36009900  0.95956600  0.73571900  1
  H  531  1  0.35091400  0.03678700  0.73594700  1
  H  532  1  0.32329600  0.03352500  0.70255700  1
  H  533  1  0.33258100  0.95649700  0.70215500  1
  H  559  1  0.58438000  0.06153200  0.81062200  1
  H  560  1  0.58245200  0.02911600  0.78202800  1
  H  561  1  0.65972400  0.04686900  0.82238600  1
  H  562  1  0.65778300  0.01409900  0.79417300  1
  H  563  1  0.65927400  0.96121600  0.77411900  1
  H  564  1  0.66167000  0.92706200  0.80126100  1
  H  565  1  0.58963300  0.94143800  0.82591500  1
  H  566  1  0.58700200  0.97564700  0.79905200  1
  H  567  1  0.58377700  0.95793900  0.75310600  1
  H  568  1  0.54619600  0.95986300  0.73181600  1
  H  569  1  0.56123600  0.03294200  0.71092600  1
  H  570  1  0.59849600  0.03170200  0.73347300  1
  H  571  1  0.64997900  0.03584100  0.74810800  1
  H  572  1  0.63739800  0.96140500  0.72960500  1
  H  573  1  0.66651800  0.96461900  0.69759700  1
  H  574  1  0.67859600  0.03903100  0.71591400  1
  H  600  1  0.40776200  0.05171100  0.08364600  1
  H  601  1  0.41179000  0.01960100  0.11264900  1
  H  602  1  0.33118200  0.05366800  0.09595100  1
  H  603  1  0.33507400  0.02156500  0.12509600  1
  H  604  1  0.33551900  0.96868100  0.12572100  1
  H  605  1  0.33264800  0.93412700  0.09909500  1
  H  606  1  0.40970600  0.93407500  0.09078700  1
  H  607  1  0.41283900  0.96823000  0.11744400  1
  H  608  1  0.40248200  0.95771300  0.16852000  1
  H  609  1  0.44085100  0.95689300  0.18896800  1
  H  610  1  0.44806600  0.03340900  0.17858500  1
  H  611  1  0.40937500  0.03447300  0.15880500  1
  H  612  1  0.35746400  0.03640000  0.16945500  1
  H  613  1  0.35247700  0.95883200  0.17170800  1
  H  614  1  0.32551100  0.96167400  0.20572600  1
  H  615  1  0.33050100  0.03904600  0.20345200  1
  H  641  1  0.58493400  0.93602800  0.09424400  1
  H  642  1  0.58297400  0.96836000  0.12288300  1
  H  643  1  0.66028200  0.95066300  0.08266400  1
  H  644  1  0.65831500  0.98337200  0.11098300  1
  H  645  1  0.65953200  0.03663800  0.13127500  1
  H  646  1  0.66220300  0.07064700  0.10397400  1
  H  647  1  0.59073400  0.05567300  0.07798100  1
  H  648  1  0.58784200  0.02156800  0.10497100  1
  H  649  1  0.58348100  0.03954600  0.15056200  1
  H  650  1  0.54576500  0.03761100  0.17162800  1
  H  651  1  0.56151500  0.96509900  0.19398200  1
  H  652  1  0.59895000  0.96633900  0.17172700  1
  H  653  1  0.65150400  0.96272000  0.15691100  1
  H  654  1  0.63603400  0.03658900  0.17564400  1
  H  655  1  0.66433700  0.03397400  0.20852400  1
  H  656  1  0.67952800  0.96024700  0.18979800  1
  H  682  1  0.95034300  0.12570100  0.53907700  1
  H  683  1  0.98222000  0.15523200  0.53734300  1
  H  684  1  0.93803500  0.14305600  0.61360500  1
  H  685  1  0.96994300  0.17258100  0.61205800  1
  H  686  1  0.02311800  0.16607100  0.61418500  1
  H  687  1  0.05733800  0.13917700  0.61841300  1
  H  688  1  0.06768800  0.14022200  0.54169000  1
  H  689  1  0.03375700  0.16703400  0.53722700  1
  H  690  1  0.03871800  0.21645200  0.54952900  1
  H  691  1  0.04022400  0.23756300  0.51147600  1
  H  692  1  0.96498300  0.22244100  0.50001600  1
  H  693  1  0.96324900  0.20158300  0.53803100  1
  H  694  1  0.96081600  0.21668500  0.58939200  1
  H  695  1  0.03775000  0.21351900  0.60087400  1
  H  696  1  0.03493400  0.24713600  0.62826200  1
  H  697  1  0.95819100  0.25026900  0.61696900  1
  H  723  1  0.06385800  0.14172300  0.36140900  1
  H  724  1  0.03126500  0.16993900  0.36572500  1
  H  725  1  0.04415700  0.13005900  0.28729700  1
  H  726  1  0.01131000  0.15810800  0.29155100  1
  H  727  1  0.95838700  0.17928200  0.29308700  1
  H  728  1  0.92401300  0.15234200  0.29192500  1
  H  729  1  0.94302500  0.12488100  0.36181200  1
  H  730  1  0.97731500  0.15169400  0.36329500  1
  H  731  1  0.95866200  0.19796300  0.36806600  1
  H  732  1  0.96135100  0.21905000  0.40561800  1
  H  733  1  0.03400600  0.24038100  0.38905900  1
  H  734  1  0.03194800  0.21819100  0.35160400  1
  H  735  1  0.03424500  0.20424900  0.29931700  1
  H  736  1  0.96046800  0.22308700  0.31528100  1
  H  737  1  0.96267700  0.25550600  0.28641600  1
  H  738  1  0.03642500  0.23674300  0.27102400  1
  H  764  1  0.04598600  0.87249600  0.53928800  1
  H  765  1  0.01396900  0.84310100  0.53741100  1
  H  766  1  0.06022300  0.85265800  0.61287800  1
  H  767  1  0.02819000  0.82330900  0.61121200  1
  H  768  1  0.97471300  0.83210900  0.61310800  1
  H  769  1  0.94035100  0.85878700  0.61721600  1
  H  770  1  0.92828900  0.85526600  0.54080700  1
  H  771  1  0.96230300  0.82858800  0.53648200  1
  H  772  1  0.95922300  0.77921200  0.54956600  1
  H  773  1  0.95778300  0.75796700  0.51157500  1
  H  774  1  0.03207900  0.77613300  0.49858100  1
  H  775  1  0.03375500  0.79716700  0.53649100  1
  H  776  1  0.03613700  0.77942700  0.58727400  1
  H  777  1  0.95985400  0.78466700  0.60186100  1
  H  778  1  0.96302300  0.75137800  0.62960500  1
  H  779  1  0.03910300  0.74609800  0.61513600  1
  H  805  1  0.93273900  0.85691700  0.36346200  1
  H  806  1  0.96503400  0.82819400  0.36670600  1
  H  807  1  0.95089700  0.86933400  0.28909900  1
  H  808  1  0.98341500  0.84072300  0.29224800  1
  H  809  1  0.03609300  0.81921400  0.29240600  1
  H  810  1  0.07057200  0.84599700  0.29068600  1
  H  811  1  0.05355800  0.87268800  0.36134400  1
  H  812  1  0.01911300  0.84609400  0.36334800  1
  H  813  1  0.03728000  0.79986600  0.36752500  1
  H  814  1  0.03513100  0.77829200  0.40484600  1
  H  815  1  0.96223900  0.75718200  0.38898600  1
  H  816  1  0.96371000  0.77997100  0.35186800  1
  H  817  1  0.96054600  0.79451600  0.29977500  1
  H  818  1  0.03445500  0.77525000  0.31471400  1
  H  819  1  0.03148200  0.74256000  0.28636300  1
  H  820  1  0.95757800  0.76163900  0.27196700  1
  H  846  1  0.12892400  0.40941800  0.00544200  1
  H  847  1  0.15819800  0.41300700  0.97352200  1
  H  848  1  0.13989000  0.33269500  0.00721500  1
  H  849  1  0.16932300  0.33614600  0.97533300  1
  H  850  1  0.17059700  0.33603500  0.92288600  1
  H  851  1  0.14382800  0.33291300  0.88842800  1
  H  852  1  0.13556800  0.40990600  0.88772300  1
  H  853  1  0.16233200  0.41328500  0.92182700  1
  H  854  1  0.21322800  0.40292600  0.91124400  1
  H  855  1  0.23408200  0.44103100  0.91021300  1
  H  856  1  0.22466500  0.44832300  0.98683100  1
  H  857  1  0.20447500  0.40990000  0.98810100  1
  H  858  1  0.21407700  0.35791700  0.99049600  1
  H  859  1  0.21670200  0.35293500  0.91294900  1
  H  860  1  0.25032300  0.32549500  0.91598600  1
  H  861  1  0.24775700  0.33052400  0.99334800  1
  H  887  1  0.14105300  0.58537200  0.88931200  1
  H  888  1  0.16936100  0.58306200  0.92197400  1
  H  889  1  0.12948700  0.66057300  0.90439600  1
  H  890  1  0.15744100  0.65824700  0.93742900  1
  H  891  1  0.17745200  0.65913200  0.99067800  1
  H  892  1  0.15024200  0.66140400  0.02477700  1
  H  893  1  0.12477100  0.58989800  0.00948000  1
  H  894  1  0.15170100  0.58739900  0.97530600  1
  H  895  1  0.19751400  0.58339400  0.99330400  1
  H  896  1  0.21863800  0.54573600  0.99116800  1
  H  897  1  0.24038900  0.56158600  0.91851800  1
  H  898  1  0.21808500  0.59895100  0.91997200  1
  H  899  1  0.20354900  0.65087800  0.91638100  1
  H  900  1  0.22187400  0.63644800  0.99056800  1
  H  901  1  0.25437800  0.66514100  0.98796900  1
  H  902  1  0.23614000  0.67915100  0.91385900  1
  H  928  1  0.86961300  0.40814400  0.89913700  1
  H  929  1  0.84065100  0.41210900  0.93133600  1
  H  930  1  0.85346100  0.33254100  0.89355300  1
  H  931  1  0.82432500  0.33636600  0.92566800  1
  H  932  1  0.82761900  0.33656300  0.97862500  1
  H  933  1  0.85402100  0.33339200  0.01333700  1
  H  934  1  0.85831700  0.41060900  0.01715000  1
  H  935  1  0.83179400  0.41401600  0.98290600  1
  H  936  1  0.78081800  0.40214500  0.99064800  1
  H  937  1  0.76018400  0.44042500  0.99168500  1
  H  938  1  0.77470000  0.45040800  0.91617300  1
  H  939  1  0.79485600  0.41194200  0.91486100  1
  H  940  1  0.78021800  0.36089600  0.91287400  1
  H  941  1  0.78131700  0.35116900  0.99003500  1
  H  942  1  0.74740200  0.32414000  0.98697300  1
  H  943  1  0.74620700  0.33392500  0.91002000  1
  H  969  1  0.85764900  0.58442000  0.01509500  1
  H  970  1  0.82885500  0.58277400  0.98278500  1
  H  971  1  0.86929000  0.65981100  0.00102600  1
  H  972  1  0.84085400  0.65816600  0.96837100  1
  H  973  1  0.82065800  0.66003300  0.91541500  1
  H  974  1  0.84788200  0.66282600  0.88134600  1
  H  975  1  0.87302400  0.59090000  0.89529800  1
  H  976  1  0.84611400  0.58788600  0.92943900  1
  H  977  1  0.80025500  0.58449900  0.91156200  1
  H  978  1  0.77893000  0.54696100  0.91306500  1
  H  979  1  0.75749000  0.56152300  0.98607200  1
  H  980  1  0.78010800  0.59872800  0.98527300  1
  H  981  1  0.79476400  0.65036500  0.98979700  1
  H  982  1  0.77619600  0.63767500  0.91536600  1
  H  983  1  0.74364500  0.66620300  0.91874600  1
  H  984  1  0.76206300  0.67844700  0.99312000  1
  H  991  1  0.04135800  0.48344400  0.16899300  1
  H  994  1  0.96828600  0.53144400  0.22721100  1
  H  1001  1  0.95551000  0.48495200  0.73662800  1
  H  1004  1  0.02941300  0.53259100  0.67881500  1
  H  1011  1  0.21635100  0.04290600  0.44020300  1
  H  1014  1  0.27065600  0.96714500  0.48916400  1
  H  1021  1  0.77760500  0.95590400  0.43925100  1
  H  1024  1  0.72587300  0.03159900  0.49092200  1
  H  1031  1  0.48358100  0.21431600  0.99630000  1
  H  1034  1  0.53049200  0.27196100  0.92211700  1
  H  1041  1  0.48423100  0.78207600  0.91023000  1
  H  1044  1  0.53273800  0.72432600  0.98368800  1
  H  1051  1  0.48236500  0.03657900  0.73150300  1
  H  1054  1  0.53635600  0.96155300  0.68122800  1
  H  1061  1  0.48258600  0.96040400  0.17332100  1
  H  1064  1  0.53626700  0.03650400  0.22227800  1
  H  1071  1  0.03817900  0.22032100  0.46877100  1
  H  1074  1  0.96352100  0.27033600  0.41419300  1
  H  1081  1  0.95894200  0.77625400  0.46872200  1
  H  1084  1  0.03375500  0.72729400  0.41312200  1
  H  1091  1  0.21905900  0.48296000  0.91387800  1
  H  1094  1  0.26942300  0.53579200  0.98967200  1
  H  1101  1  0.77732100  0.48250500  0.98943300  1
  H  1104  1  0.72842100  0.53758000  0.91422500  1
  H  1111  1  0.02587700  0.25310400  0.23214100  1
  H  1114  1  0.97561000  0.34448600  0.24527500  1
  H  1121  1  0.96658100  0.74346600  0.23363100  1
  H  1124  1  0.02002100  0.65349400  0.24663600  1
  H  1131  1  0.96313300  0.26048500  0.66240200  1
  H  1134  1  0.02903700  0.34245300  0.66026800  1
  H  1141  1  0.03611700  0.73608300  0.66062100  1
  H  1144  1  0.96722300  0.65658100  0.66270300  1
  H  1151  1  0.28644600  0.03210700  0.21502200  1
  H  1154  1  0.29290300  0.97120800  0.30028400  1
  H  1161  1  0.28859400  0.96067300  0.69070400  1
  H  1164  1  0.28635300  0.02860000  0.61026400  1
  H  1171  1  0.71874100  0.97155700  0.20697000  1
  H  1174  1  0.70058200  0.01828400  0.29952900  1
  H  1181  1  0.71767100  0.03078400  0.69894500  1
  H  1184  1  0.70906600  0.97530400  0.60976600  1
  H  1191  1  0.25910000  0.28670000  0.98695800  1
  H  1194  1  0.34347500  0.28983700  0.92451200  1
  H  1201  1  0.73474100  0.28965900  0.91455800  1
  H  1204  1  0.65353700  0.28997200  0.98158900  1
  H  1211  1  0.25291600  0.71826500  0.92395900  1
  H  1214  1  0.34404600  0.70472200  0.97522500  1
  H  1221  1  0.74442700  0.71741200  0.98456000  1
  H  1224  1  0.65440700  0.70590900  0.93081000  1
  H  1231  1  0.09623300  0.33587000  0.02001700  1
  H  1234  1  0.09523600  0.40474900  0.09917200  1
  H  1241  1  0.90667100  0.65277200  0.02041800  1
  H  1244  1  0.89850900  0.58909700  0.10390800  1
  H  1251  1  0.89796000  0.33401700  0.88122100  1
  H  1254  1  0.90179600  0.40587000  0.80440700  1
  H  1261  1  0.09263900  0.65434000  0.88395700  1
  H  1264  1  0.10024600  0.59032600  0.80067200  1
  H  1271  1  0.06313600  0.09167100  0.29452900  1
  H  1274  1  0.15252500  0.10157200  0.34930800  1
  H  1281  1  0.07221500  0.89661100  0.61288400  1
  H  1284  1  0.14077600  0.90494900  0.53368900  1
  H  1291  1  0.93288700  0.90815100  0.29763600  1
  H  1294  1  0.84339100  0.89656900  0.35198600  1
  H  1301  1  0.92600000  0.09927600  0.61266200  1
  H  1304  1  0.85580500  0.09264400  0.53472200  1
  H  1311  1  0.33361700  0.06690800  0.05240600  1
  H  1314  1  0.40344300  0.14535300  0.05004500  1
  H  1321  1  0.65309100  0.06680900  0.85939900  1
  H  1324  1  0.58903600  0.15015300  0.85154900  1
  H  1331  1  0.33567000  0.92939900  0.85432000  1
  H  1334  1  0.40656700  0.85168600  0.85683600  1
  H  1341  1  0.65352600  0.93106400  0.04541300  1
  H  1344  1  0.58982100  0.84756000  0.05301800  1
  H  1351  1  0.34227700  0.09350800  0.88340100  1
  H  1354  1  0.39150000  0.10926300  0.79210100  1
  H  1361  1  0.65677800  0.89947000  0.88331000  1
  H  1364  1  0.59634800  0.89283300  0.79717300  1
  H  1371  1  0.34169900  0.90130600  0.02345700  1
  H  1374  1  0.39456400  0.88826500  0.11350900  1
  H  1381  1  0.65685900  0.09760100  0.02079800  1
  H  1384  1  0.59786900  0.10440400  0.10788700  1
  H  1391  1  0.09164400  0.06499500  0.60524300  1
  H  1394  1  0.11115200  0.16030300  0.56582600  1
  H  1401  1  0.89475400  0.07219300  0.29304300  1
  H  1404  1  0.89481800  0.15221100  0.36146600  1
  H  1411  1  0.90553100  0.93202300  0.60362100  1
  H  1414  1  0.88541400  0.83627900  0.56512200  1
  H  1421  1  0.09911300  0.92693600  0.29295100  1
  H  1424  1  0.10187200  0.84461500  0.35862700  1
  H  1431  1  0.06798200  0.34193500  0.85556800  1
  H  1434  1  0.15835400  0.39361500  0.84182700  1
  H  1441  1  0.06798800  0.65663900  0.05251600  1
  H  1444  1  0.15409500  0.59599500  0.05809400  1
  H  1451  1  0.92833000  0.34325500  0.04747100  1
  H  1454  1  0.83684800  0.39312800  0.06210000  1
  H  1461  1  0.93089600  0.65719500  0.85435300  1
  H  1464  1  0.84344800  0.59877900  0.84664600  1
  C  1  1  0.99958700  0.32407100  0.20462900  1
  C  2  1  0.02162200  0.33462200  0.19605000  1
  C  3  1  0.02140100  0.35043300  0.17570600  1
  C  4  1  0.99939400  0.35510200  0.16260300  1
  C  5  1  0.97730600  0.34476200  0.17165400  1
  C  6  1  0.97743400  0.32923400  0.19221500  1
  C  8  1  0.00263500  0.40183600  0.15581700  1
  C  9  1  0.98288600  0.41217200  0.16916500  1
  C  10  1  0.98559700  0.43471600  0.18144800  1
  C  11  1  0.00844500  0.44718500  0.18195000  1
  C  12  1  0.02889600  0.43484400  0.17166400  1
  C  13  1  0.02607100  0.41268200  0.15884100  1
  C  14  1  0.02131700  0.37265000  0.11938700  1
  C  15  1  0.97395300  0.37394100  0.12297200  1
  C  16  1  0.95975100  0.39472500  0.11652800  1
  C  17  1  0.93938400  0.39258600  0.10079300  1
  C  18  1  0.93294600  0.36977100  0.09022000  1
  C  19  1  0.94747900  0.34909000  0.09611100  1
  C  20  1  0.96766800  0.35116600  0.11207500  1
  C  21  1  0.03593400  0.35126600  0.11703100  1
  C  22  1  0.05501900  0.35007700  0.09962200  1
  C  23  1  0.06000800  0.37026100  0.08414400  1
  C  24  1  0.04436400  0.39089800  0.08525000  1
  C  25  1  0.02524200  0.39200500  0.10246000  1
  C  42  1  0.99415400  0.67272400  0.20684500  1
  C  43  1  0.97291800  0.65970300  0.19982600  1
  C  44  1  0.97386000  0.64306500  0.18017500  1
  C  45  1  0.99563500  0.64003300  0.16623500  1
  C  46  1  0.01686600  0.65314300  0.17357400  1
  C  47  1  0.01609700  0.66941100  0.19350800  1
  C  49  1  0.99719700  0.59303000  0.16202000  1
  C  50  1  0.01808400  0.58753400  0.17657600  1
  C  51  1  0.01971600  0.56531400  0.18958700  1
  C  52  1  0.00010100  0.54834000  0.18935200  1
  C  53  1  0.97832500  0.55490900  0.17680200  1
  C  54  1  0.97676400  0.57706100  0.16368000  1
  C  55  1  0.97371200  0.61940400  0.12492300  1
  C  56  1  0.02133300  0.62095700  0.12667100  1
  C  57  1  0.03646200  0.60070100  0.12073400  1
  C  58  1  0.05620100  0.60320100  0.10430400  1
  C  59  1  0.06139800  0.62586900  0.09267500  1
  C  60  1  0.04593300  0.64599200  0.09827100  1
  C  61  1  0.02612500  0.64350900  0.11464500  1
  C  62  1  0.95888600  0.64055700  0.12173200  1
  C  63  1  0.94019600  0.64119500  0.10389400  1
  C  64  1  0.93571600  0.62063400  0.08881200  1
  C  65  1  0.95109600  0.59991000  0.09108800  1
  C  66  1  0.97008000  0.59951200  0.10855400  1
  C  83  1  0.99653100  0.32529100  0.69726400  1
  C  84  1  0.97487800  0.33733300  0.70486700  1
  C  85  1  0.97497100  0.35248300  0.72570800  1
  C  86  1  0.99647700  0.35541900  0.74008700  1
  C  87  1  0.01814400  0.34336200  0.73225700  1
  C  88  1  0.01806600  0.32823100  0.71141800  1
  C  90  1  0.99332600  0.40212000  0.74796100  1
  C  91  1  0.01289500  0.41227600  0.73421500  1
  C  92  1  0.01039600  0.43519500  0.72256600  1
  C  93  1  0.98788500  0.44828600  0.72308200  1
  C  94  1  0.96746900  0.43622400  0.73375200  1
  C  95  1  0.97012500  0.41371200  0.74600300  1
  C  96  1  0.97439300  0.37203800  0.78348000  1
  C  97  1  0.02185700  0.37361300  0.78028500  1
  C  98  1  0.03636300  0.39424600  0.78649300  1
  C  99  1  0.05665500  0.39201600  0.80230700  1
  C  100  1  0.06278200  0.36926200  0.81323000  1
  C  101  1  0.04794900  0.34873300  0.80756800  1
  C  102  1  0.02779300  0.35091200  0.79155800  1
  C  103  1  0.95886200  0.35120400  0.78446400  1
  C  104  1  0.93959200  0.34981100  0.80166000  1
  C  105  1  0.93531100  0.36926700  0.81822800  1
  C  106  1  0.95176100  0.38928000  0.81839700  1
  C  107  1  0.97104400  0.39058500  0.80139700  1
  C  124  1  0.00206100  0.67274700  0.69757300  1
  C  125  1  0.02312600  0.65886300  0.70350700  1
  C  126  1  0.02299100  0.64299200  0.72382300  1
  C  127  1  0.00213200  0.64121200  0.73929200  1
  C  128  1  0.98119500  0.65544100  0.73333000  1
  C  129  1  0.98129300  0.67123000  0.71299400  1
  C  131  1  0.00073000  0.59415400  0.74387100  1
  C  132  1  0.97989200  0.58899400  0.72911700  1
  C  133  1  0.97798500  0.56675400  0.71619300  1
  C  134  1  0.99732300  0.54946300  0.71661300  1
  C  135  1  0.01905200  0.55562700  0.72943100  1
  C  136  1  0.02087300  0.57777500  0.74250200  1
  C  137  1  0.02496800  0.62076900  0.78020800  1
  C  138  1  0.97719800  0.62220800  0.77946900  1
  C  139  1  0.96154100  0.60220800  0.78487500  1
  C  140  1  0.94183900  0.60478500  0.80133100  1
  C  141  1  0.93716700  0.62727100  0.81350700  1
  C  142  1  0.95324700  0.64707700  0.80857800  1
  C  143  1  0.97303400  0.64450500  0.79218400  1
  C  144  1  0.04049500  0.64154300  0.78227100  1
  C  145  1  0.05946100  0.64231400  0.79982300  1
  C  146  1  0.06356100  0.62222400  0.81564600  1
  C  147  1  0.04764900  0.60183900  0.81433800  1
  C  148  1  0.02839300  0.60133900  0.79718400  1
  C  165  1  0.25407400  0.00081700  0.28199900  1
  C  166  1  0.24568900  0.02283800  0.29276000  1
  C  167  1  0.22478600  0.02292600  0.30782400  1
  C  168  1  0.21109400  0.00118400  0.31185700  1
  C  169  1  0.21985600  0.97909600  0.30134400  1
  C  170  1  0.24076300  0.97899900  0.28628200  1
  C  172  1  0.20324000  0.00447700  0.35831300  1
  C  173  1  0.21577900  0.98435400  0.36894500  1
  C  174  1  0.22778400  0.98674400  0.39168100  1
  C  175  1  0.22877900  0.00958100  0.40410800  1
  C  176  1  0.21925700  0.03028600  0.39158200  1
  C  177  1  0.20674600  0.02781000  0.36917800  1
  C  178  1  0.16794500  0.02391000  0.32790500  1
  C  179  1  0.17041700  0.97650700  0.32997100  1
  C  180  1  0.16247200  0.96339900  0.35092500  1
  C  181  1  0.14645500  0.94328400  0.34874000  1
  C  182  1  0.13715100  0.93582600  0.32564000  1
  C  183  1  0.14454700  0.94939500  0.30477000  1
  C  184  1  0.16056400  0.96951900  0.30693400  1
  C  185  1  0.16579100  0.03732000  0.30571700  1
  C  186  1  0.14851700  0.05642900  0.30337000  1
  C  187  1  0.13308800  0.06261800  0.32321800  1
  C  188  1  0.13421600  0.04849800  0.34488800  1
  C  189  1  0.15113100  0.02918700  0.34703800  1
  C  206  1  0.25150600  0.99458000  0.62744900  1
  C  207  1  0.24549400  0.97397400  0.61300100  1
  C  208  1  0.22505400  0.97464800  0.59728400  1
  C  209  1  0.20955200  0.99554900  0.59625700  1
  C  210  1  0.21551100  0.01594000  0.61122100  1
  C  211  1  0.23603700  0.01535500  0.62678600  1
  C  213  1  0.20524400  0.99768000  0.54914000  1
  C  214  1  0.22123700  0.01773300  0.54463700  1
  C  215  1  0.23465100  0.01937300  0.52265900  1
  C  216  1  0.23349200  0.00041300  0.50503100  1
  C  217  1  0.21927800  0.97939900  0.51045200  1
  C  218  1  0.20562700  0.97793200  0.53226900  1
  C  219  1  0.16817800  0.97411400  0.57505500  1
  C  220  1  0.17020000  0.02189700  0.57741100  1
  C  221  1  0.16642200  0.03880100  0.55803800  1
  C  222  1  0.15039100  0.05883300  0.56075100  1
  C  223  1  0.13691800  0.06240700  0.58265000  1
  C  224  1  0.14021200  0.04524400  0.60184400  1
  C  225  1  0.15644500  0.02532000  0.59922900  1
  C  226  1  0.16684700  0.95691700  0.59451500  1
  C  227  1  0.14927700  0.93797600  0.59434800  1
  C  228  1  0.13246900  0.93561900  0.57473200  1
  C  229  1  0.13290100  0.95346400  0.55593200  1
  C  230  1  0.15034600  0.97243700  0.55616300  1
  C  247  1  0.74306400  0.99630400  0.27976100  1
  C  248  1  0.75281100  0.97418600  0.28908300  1
  C  249  1  0.77278800  0.97454600  0.30538500  1
  C  250  1  0.78434600  0.99692100  0.31184100  1
  C  251  1  0.77392500  0.01906800  0.30305800  1
  C  252  1  0.75382900  0.01875100  0.28691000  1
  C  254  1  0.79048700  0.99455000  0.35857400  1
  C  255  1  0.77970700  0.01524800  0.36995600  1
  C  256  1  0.76751400  0.01300300  0.39259500  1
  C  257  1  0.76477500  0.98988100  0.40419600  1
  C  258  1  0.77239400  0.96891000  0.39088100  1
  C  259  1  0.78489200  0.97117300  0.36844800  1
  C  260  1  0.82701100  0.97476200  0.32987500  1
  C  261  1  0.82421300  0.02211700  0.33084400  1
  C  262  1  0.83365300  0.03387100  0.35198800  1
  C  263  1  0.84984600  0.05386600  0.34998200  1
  C  264  1  0.85798100  0.06240400  0.32682400  1
  C  265  1  0.84924700  0.05005500  0.30571700  1
  C  266  1  0.83298000  0.03010800  0.30770400  1
  C  267  1  0.83187900  0.96308500  0.30715900  1
  C  268  1  0.84943500  0.94418300  0.30544600  1
  C  269  1  0.86261100  0.93653100  0.32641300  1
  C  270  1  0.85900800  0.94918800  0.34871200  1
  C  271  1  0.84174900  0.96825900  0.35031200  1
  C  288  1  0.74728800  0.00262100  0.62951100  1
  C  289  1  0.75334600  0.02347500  0.61546800  1
  C  290  1  0.77297900  0.02255900  0.59877800  1
  C  291  1  0.78776700  0.00123600  0.59658100  1
  C  292  1  0.78148500  0.98044900  0.61088200  1
  C  293  1  0.76159800  0.98117100  0.62723800  1
  C  295  1  0.79140800  0.99974300  0.54932400  1
  C  296  1  0.77546600  0.97970600  0.54458000  1
  C  297  1  0.76186000  0.97840700  0.52267500  1
  C  298  1  0.76278300  0.99767800  0.50536500  1
  C  299  1  0.77704800  0.01860600  0.51100100  1
  C  300  1  0.79081900  0.01977600  0.53277900  1
  C  301  1  0.82900800  0.02273000  0.57509500  1
  C  302  1  0.82669800  0.97502000  0.57703100  1
  C  303  1  0.83037000  0.95833200  0.55746800  1
  C  304  1  0.84637700  0.93823200  0.55993800  1
  C  305  1  0.85993700  0.93442800  0.58176000  1
  C  306  1  0.85671000  0.95134900  0.60116000  1
  C  307  1  0.84048000  0.97130200  0.59880400  1
  C  308  1  0.83101500  0.03940000  0.59494500  1
  C  309  1  0.84871500  0.05822100  0.59480700  1
  C  310  1  0.86502700  0.06097600  0.57484500  1
  C  311  1  0.86399900  0.04358100  0.55566200  1
  C  312  1  0.84642100  0.02472000  0.55586400  1
  C  329  1  0.32467100  0.25213400  0.95492900  1
  C  330  1  0.33620300  0.24404700  0.97667600  1
  C  331  1  0.35115500  0.22305200  0.97653700  1
  C  332  1  0.35429200  0.20897800  0.95489100  1
  C  333  1  0.34269900  0.21726700  0.93314200  1
  C  334  1  0.32782600  0.23831300  0.93324800  1
  C  336  1  0.40098000  0.20133400  0.95800800  1
  C  337  1  0.41094300  0.21532000  0.93852000  1
  C  338  1  0.43365900  0.22735000  0.94111000  1
  C  339  1  0.44672100  0.22698000  0.96363100  1
  C  340  1  0.43481400  0.21597900  0.98395600  1
  C  341  1  0.41250200  0.20336600  0.98121800  1
  C  342  1  0.37103200  0.16551900  0.97676400  1
  C  343  1  0.37266900  0.16903300  0.92933800  1
  C  344  1  0.39337200  0.16301600  0.91483700  1
  C  345  1  0.39121900  0.14737600  0.89443700  1
  C  346  1  0.36848000  0.13647200  0.88821500  1
  C  347  1  0.34788500  0.14193300  0.90303100  1
  C  348  1  0.34997400  0.15779700  0.92327500  1
  C  349  1  0.34998800  0.16421700  0.99199500  1
  C  350  1  0.34856600  0.14693500  0.01117800  1
  C  351  1  0.36820300  0.13060300  0.01566700  1
  C  352  1  0.38845300  0.13073500  0.99950300  1
  C  353  1  0.38976800  0.14779500  0.98027300  1
  C  370  1  0.67050500  0.25418800  0.94821900  1
  C  371  1  0.65684000  0.24764700  0.92721700  1
  C  372  1  0.64122800  0.22714700  0.92771600  1
  C  373  1  0.63957300  0.21208100  0.94887000  1
  C  374  1  0.65361300  0.21864100  0.96974000  1
  C  375  1  0.66907700  0.23922100  0.96931200  1
  C  377  1  0.59263100  0.20718700  0.95066300  1
  C  378  1  0.58744300  0.22198000  0.97143200  1
  C  379  1  0.56518300  0.23491500  0.97328900  1
  C  380  1  0.54784800  0.23437300  0.95399300  1
  C  381  1  0.55402600  0.22150800  0.93232500  1
  C  382  1  0.57620900  0.20844400  0.93055300  1
  C  383  1  0.61939400  0.17076200  0.92667000  1
  C  384  1  0.62108200  0.17199400  0.97436200  1
  C  385  1  0.60108500  0.16635800  0.98994400  1
  C  386  1  0.60383600  0.15000200  0.00970000  1
  C  387  1  0.62650400  0.13815400  0.01449000  1
  C  388  1  0.64633500  0.14335900  0.99852700  1
  C  389  1  0.64359300  0.15966300  0.97869100  1
  C  390  1  0.64023200  0.16856800  0.91123500  1
  C  391  1  0.64102200  0.15092800  0.89239300  1
  C  392  1  0.62090000  0.13512700  0.88834900  1
  C  393  1  0.60047500  0.13652700  0.90420300  1
  C  394  1  0.59995400  0.15377700  0.92333900  1
  C  411  1  0.32400500  0.74533500  0.95065700  1
  C  412  1  0.33487600  0.75391300  0.92879300  1
  C  413  1  0.35084300  0.77413600  0.92926300  1
  C  414  1  0.35536300  0.78713100  0.95133600  1
  C  415  1  0.34470900  0.77806200  0.97325000  1
  C  416  1  0.32902600  0.75762500  0.97288300  1
  C  418  1  0.40217100  0.79410200  0.94844600  1
  C  419  1  0.41257800  0.78083500  0.96821900  1
  C  420  1  0.43533100  0.76885500  0.96563300  1
  C  421  1  0.44795800  0.76858400  0.94288800  1
  C  422  1  0.43556700  0.77871900  0.92238900  1
  C  423  1  0.41319500  0.79125300  0.92509300  1
  C  424  1  0.37291700  0.83051200  0.92976500  1
  C  425  1  0.37397500  0.82670000  0.97706200  1
  C  426  1  0.39473300  0.83331500  0.99123000  1
  C  427  1  0.39247500  0.84899400  0.01159300  1
  C  428  1  0.36955500  0.85937200  0.01808300  1
  C  429  1  0.34889500  0.85330300  0.00357700  1
  C  430  1  0.35109800  0.83741800  0.98336700  1
  C  431  1  0.35164000  0.83283000  0.91496600  1
  C  432  1  0.35054800  0.85029100  0.89592700  1
  C  433  1  0.37070500  0.86589700  0.89118400  1
  C  434  1  0.39119900  0.86484800  0.90704000  1
  C  435  1  0.39223200  0.84755000  0.92608400  1
  C  452  1  0.67386500  0.74518000  0.95706900  1
  C  453  1  0.66079100  0.75198800  0.97832400  1
  C  454  1  0.64407400  0.77161200  0.97751900  1
  C  455  1  0.64099800  0.78572800  0.95586500  1
  C  456  1  0.65416900  0.77860600  0.93461900  1
  C  457  1  0.67053700  0.75872200  0.93525800  1
  C  459  1  0.59388200  0.78972900  0.95443900  1
  C  460  1  0.58852300  0.77508300  0.93360800  1
  C  461  1  0.56633300  0.76200900  0.93193300  1
  C  462  1  0.54928100  0.76220600  0.95147000  1
  C  463  1  0.55570700  0.77487800  0.97318800  1
  C  464  1  0.57782700  0.78806600  0.97479500  1
  C  465  1  0.62018700  0.82684600  0.97796500  1
  C  466  1  0.62157800  0.82527100  0.93034500  1
  C  467  1  0.60127200  0.83100000  0.91517300  1
  C  468  1  0.60365700  0.84738300  0.89538600  1
  C  469  1  0.62625700  0.85915700  0.89016000  1
  C  470  1  0.64641200  0.85380600  0.90569500  1
  C  471  1  0.64404200  0.83748900  0.92556000  1
  C  472  1  0.64135200  0.82999500  0.99279300  1
  C  473  1  0.64197100  0.84777200  0.01151200  1
  C  474  1  0.62138500  0.86285200  0.01600300  1
  C  475  1  0.60065200  0.86062800  0.00061100  1
  C  476  1  0.60026900  0.84321400  0.98161100  1
  C  493  1  0.32472600  0.99462300  0.69941500  1
  C  494  1  0.33077500  0.01774700  0.70950600  1
  C  495  1  0.34674900  0.01960500  0.72964500  1
  C  496  1  0.35695200  0.99834100  0.74052700  1
  C  497  1  0.35204100  0.97534800  0.72944500  1
  C  498  1  0.33577700  0.97345400  0.70953900  1
  C  500  1  0.40360500  0.00029300  0.74628000  1
  C  501  1  0.41707700  0.97853100  0.74182300  1
  C  502  1  0.43949000  0.97922000  0.72902700  1
  C  503  1  0.44891200  0.00160800  0.71983500  1
  C  504  1  0.43406600  0.02280400  0.72185900  1
  C  505  1  0.41158600  0.02205900  0.73449400  1
  C  506  1  0.37523200  0.02521900  0.78015500  1
  C  507  1  0.37533600  0.97767300  0.78296800  1
  C  508  1  0.39588600  0.97031500  0.79709000  1
  C  509  1  0.39388800  0.95145600  0.81456500  1
  C  510  1  0.37102200  0.94018900  0.81953800  1
  C  511  1  0.35011800  0.94874500  0.80674100  1
  C  512  1  0.35222000  0.96728700  0.78889300  1
  C  513  1  0.35192300  0.03372800  0.78799600  1
  C  514  1  0.34980900  0.05401800  0.80382700  1
  C  515  1  0.37094300  0.06620600  0.81265200  1
  C  516  1  0.39421900  0.05674800  0.80615600  1
  C  517  1  0.39632600  0.03648200  0.79037600  1
  C  534  1  0.67615300  0.00197900  0.70383200  1
  C  535  1  0.66345500  0.97975800  0.70827300  1
  C  536  1  0.64640000  0.97777600  0.72748200  1
  C  537  1  0.64183200  0.99778200  0.74340100  1
  C  538  1  0.65385300  0.02027100  0.73840600  1
  C  539  1  0.67082900  0.02225900  0.71912200  1
  C  541  1  0.59452900  0.99508500  0.74679600  1
  C  542  1  0.58812600  0.01604500  0.73275000  1
  C  543  1  0.56618400  0.01678400  0.71914200  1
  C  544  1  0.55021800  0.99633200  0.71845500  1
  C  545  1  0.55760600  0.97473800  0.73083500  1
  C  546  1  0.57958200  0.97397500  0.74434800  1
  C  547  1  0.62228600  0.97116100  0.78252000  1
  C  548  1  0.62019000  0.01879900  0.78416600  1
  C  549  1  0.59908200  0.03280500  0.78990400  1
  C  550  1  0.60019800  0.05203600  0.80706900  1
  C  551  1  0.62229000  0.05788000  0.81953100  1
  C  552  1  0.64318200  0.04332300  0.81427900  1
  C  553  1  0.64207000  0.02397300  0.79725900  1
  C  554  1  0.64408200  0.95701600  0.78427800  1
  C  555  1  0.64573800  0.93700800  0.80055700  1
  C  556  1  0.62555100  0.93047700  0.81540800  1
  C  557  1  0.60420600  0.94515200  0.81464300  1
  C  558  1  0.60279700  0.96542400  0.79878800  1
  C  575  1  0.32484000  0.00066100  0.20751500  1
  C  576  1  0.33192400  0.97757800  0.19805400  1
  C  577  1  0.34751500  0.97595200  0.17760100  1
  C  578  1  0.35622600  0.99738100  0.16579200  1
  C  579  1  0.35034800  0.02041600  0.17629800  1
  C  580  1  0.33443400  0.02206500  0.19647900  1
  C  582  1  0.40287200  0.99589500  0.15973400  1
  C  583  1  0.41568500  0.01788300  0.16492900  1
  C  584  1  0.43836000  0.01738100  0.17729900  1
  C  585  1  0.44867300  0.99494600  0.18538600  1
  C  586  1  0.43436200  0.97343400  0.18289000  1
  C  587  1  0.41166400  0.97396700  0.17061900  1
  C  588  1  0.37463200  0.97091000  0.12591800  1
  C  589  1  0.37411300  0.01845300  0.12333100  1
  C  590  1  0.39467200  0.02685600  0.10986000  1
  C  591  1  0.39230900  0.04587900  0.09260800  1
  C  592  1  0.36913000  0.05633700  0.08722000  1
  C  593  1  0.34829800  0.04670300  0.09932700  1
  C  594  1  0.35073100  0.02793500  0.11690200  1
  C  595  1  0.35145700  0.96118100  0.11918800  1
  C  596  1  0.34967000  0.94089000  0.10330700  1
  C  597  1  0.37098800  0.92990700  0.09341400  1
  C  598  1  0.39400700  0.94058900  0.09880400  1
  C  599  1  0.39577600  0.96089500  0.11456300  1
  C  616  1  0.67531500  0.99703700  0.20214400  1
  C  617  1  0.66206200  0.01888900  0.19757500  1
  C  618  1  0.64550400  0.02049200  0.17788300  1
  C  619  1  0.64188200  0.00041600  0.16178800  1
  C  620  1  0.65462100  0.97832300  0.16682100  1
  C  621  1  0.67122100  0.97675600  0.18649100  1
  C  623  1  0.59464200  0.00265900  0.15769200  1
  C  624  1  0.58834800  0.98186700  0.17202200  1
  C  625  1  0.56632400  0.98113300  0.18545800  1
  C  626  1  0.55015600  0.00143700  0.18567100  1
  C  627  1  0.55733300  0.02286800  0.17290900  1
  C  628  1  0.57942000  0.02364100  0.15959900  1
  C  629  1  0.62279500  0.02636600  0.12213800  1
  C  630  1  0.62072700  0.97866300  0.12091700  1
  C  631  1  0.59963600  0.96465700  0.11509600  1
  C  632  1  0.60076800  0.94546300  0.09789500  1
  C  633  1  0.62285000  0.93967200  0.08542000  1
  C  634  1  0.64375000  0.95416900  0.09079700  1
  C  635  1  0.64262900  0.97346700  0.10788600  1
  C  636  1  0.64452000  0.04065200  0.12076100  1
  C  637  1  0.64635400  0.06056500  0.10439400  1
  C  638  1  0.62640800  0.06683700  0.08910000  1
  C  639  1  0.60514800  0.05204900  0.08950700  1
  C  640  1  0.60357900  0.03186000  0.10544500  1
  C  657  1  0.99621000  0.25162200  0.62572200  1
  C  658  1  0.01912700  0.24067600  0.62040000  1
  C  659  1  0.02067400  0.22042700  0.60455500  1
  C  660  1  0.99931300  0.21040600  0.59364900  1
  C  661  1  0.97658400  0.22232100  0.59794700  1
  C  662  1  0.97495200  0.24223300  0.61421400  1
  C  664  1  0.00126200  0.20518600  0.54687600  1
  C  665  1  0.97970700  0.20898000  0.53284500  1
  C  666  1  0.98053400  0.22197500  0.51057500  1
  C  667  1  0.00284800  0.23195700  0.50178900  1
  C  668  1  0.02378000  0.23042100  0.51707900  1
  C  669  1  0.02285200  0.21770900  0.53951400  1
  C  670  1  0.02591700  0.17086400  0.57542200  1
  C  671  1  0.97835400  0.16825300  0.57406200  1
  C  672  1  0.97289000  0.15328500  0.55353700  1
  C  673  1  0.95398700  0.13575900  0.55451700  1
  C  674  1  0.94067400  0.13161900  0.57640900  1
  C  675  1  0.94719400  0.14541800  0.59739800  1
  C  676  1  0.96579400  0.16331000  0.59628200  1
  C  677  1  0.03268500  0.16141100  0.59870500  1
  C  678  1  0.05282200  0.14541700  0.60127900  1
  C  679  1  0.06665000  0.13811000  0.58060700  1
  C  680  1  0.05907100  0.14635300  0.55720900  1
  C  681  1  0.03892800  0.16227100  0.55463600  1
  C  698  1  0.99953700  0.24901300  0.27513300  1
  C  699  1  0.97785000  0.24466000  0.28874700  1
  C  700  1  0.97646600  0.22522700  0.30562700  1
  C  701  1  0.99653700  0.20906200  0.30910600  1
  C  702  1  0.01855600  0.21407900  0.29623400  1
  C  703  1  0.01995800  0.23355800  0.27945000  1
  C  705  1  0.99551200  0.20459100  0.35639200  1
  C  706  1  0.01659700  0.21861800  0.36244500  1
  C  707  1  0.01781100  0.23202400  0.38446800  1
  C  708  1  0.99765600  0.23266800  0.40080300  1
  C  709  1  0.97598500  0.22013000  0.39390000  1
  C  710  1  0.97477700  0.20674600  0.37190900  1
  C  711  1  0.97068700  0.16945900  0.32897300  1
  C  712  1  0.01840200  0.16788700  0.32880200  1
  C  713  1  0.03389200  0.16219600  0.34885700  1
  C  714  1  0.05324100  0.14529400  0.34632100  1
  C  715  1  0.05765300  0.13302500  0.32383300  1
  C  716  1  0.04164100  0.13815000  0.30402300  1
  C  717  1  0.02225000  0.15500700  0.30653700  1
  C  718  1  0.95514500  0.16855600  0.30811200  1
  C  719  1  0.93498800  0.15239400  0.30717800  1
  C  720  1  0.92968400  0.13679300  0.32716500  1
  C  721  1  0.94577900  0.13671300  0.34747900  1
  C  722  1  0.96613000  0.15251400  0.34818900  1
  C  739  1  0.00147900  0.74584900  0.62550500  1
  C  740  1  0.97863400  0.75732300  0.62099500  1
  C  741  1  0.97690000  0.77740200  0.60494000  1
  C  742  1  0.99799200  0.78666400  0.59293200  1
  C  743  1  0.02059500  0.77425300  0.59650300  1
  C  744  1  0.02244800  0.75453700  0.61299000  1
  C  746  1  0.99613700  0.79196100  0.54616400  1
  C  747  1  0.01750500  0.78910600  0.53166000  1
  C  748  1  0.01675700  0.77599700  0.50946300  1
  C  749  1  0.99470700  0.76503700  0.50119800  1
  C  750  1  0.97403500  0.76577500  0.51686000  1
  C  751  1  0.97491800  0.77856800  0.53924200  1
  C  752  1  0.97111700  0.82607900  0.57458500  1
  C  753  1  0.01872900  0.82892300  0.57360900  1
  C  754  1  0.02369600  0.84454100  0.55343800  1
  C  755  1  0.04269600  0.86195700  0.55448800  1
  C  756  1  0.05661200  0.86531100  0.57615000  1
  C  757  1  0.05061000  0.85086400  0.59685100  1
  C  758  1  0.03192800  0.83307300  0.59563500  1
  C  759  1  0.96475300  0.83618500  0.59769000  1
  C  760  1  0.94451100  0.85204600  0.60019300  1
  C  761  1  0.93015300  0.85861900  0.57960900  1
  C  762  1  0.93727100  0.84967300  0.55633500  1
  C  763  1  0.95748000  0.83382300  0.55384200  1
  C  780  1  0.99441400  0.74907600  0.27567600  1
  C  781  1  0.01642900  0.75355100  0.28874700  1
  C  782  1  0.01827700  0.77316700  0.30533200  1
  C  783  1  0.99835200  0.78944600  0.30903900  1
  C  784  1  0.97608900  0.78451200  0.29653800  1
  C  785  1  0.97422800  0.76482300  0.28004100  1
  C  787  1  0.00024200  0.79344900  0.35629600  1
  C  788  1  0.97924500  0.77934300  0.36245500  1
  C  789  1  0.97836600  0.76561200  0.38429900  1
  C  790  1  0.99875400  0.76474200  0.40036100  1
  C  791  1  0.02030700  0.77741400  0.39333800  1
  C  792  1  0.02120900  0.79106200  0.37148900  1
  C  793  1  0.02478800  0.82867200  0.32869900  1
  C  794  1  0.97706900  0.83057300  0.32953200  1
  C  795  1  0.96212300  0.83619500  0.34999700  1
  C  796  1  0.94296700  0.85340300  0.34811000  1
  C  797  1  0.93825300  0.86606300  0.32589500  1
  C  798  1  0.95370500  0.86097900  0.30565800  1
  C  799  1  0.97287600  0.84378200  0.30751200  1
  C  800  1  0.03979600  0.82972400  0.30747300  1
  C  801  1  0.06001500  0.84578100  0.30621600  1
  C  802  1  0.06590300  0.86110100  0.32624400  1
  C  803  1  0.05036000  0.86103500  0.34696000  1
  C  804  1  0.02992200  0.84536500  0.34798000  1
  C  821  1  0.25196800  0.32479800  0.95499000  1
  C  822  1  0.24270700  0.33204600  0.93185600  1
  C  823  1  0.22246500  0.34792100  0.93010900  1
  C  824  1  0.21062900  0.35677300  0.95146100  1
  C  825  1  0.22094500  0.35074000  0.97455500  1
  C  826  1  0.24095600  0.33458400  0.97632000  1
  C  828  1  0.20486100  0.40341500  0.94951200  1
  C  829  1  0.21049900  0.41612400  0.97144800  1
  C  830  1  0.22309100  0.43864500  0.97081700  1
  C  831  1  0.23104900  0.44886900  0.94830100  1
  C  832  1  0.22811600  0.43461500  0.92681500  1
  C  833  1  0.21555000  0.41210800  0.92746400  1
  C  834  1  0.17081700  0.37513100  0.92479800  1
  C  835  1  0.16824000  0.37518200  0.97231600  1
  C  836  1  0.15510300  0.39594600  0.98073500  1
  C  837  1  0.13766600  0.39384100  0.99962200  1
  C  838  1  0.13177500  0.37074900  0.00993500  1
  C  839  1  0.14361000  0.34975200  0.00033200  1
  C  840  1  0.16135400  0.35191700  0.98169500  1
  C  841  1  0.16404600  0.35190700  0.91526700  1
  C  842  1  0.14807400  0.34996900  0.89503700  1
  C  843  1  0.13814800  0.37118600  0.88389900  1
  C  844  1  0.14359500  0.39426700  0.89436600  1
  C  845  1  0.15942000  0.39618100  0.91463600  1
  C  862  1  0.24820500  0.67564400  0.95084300  1
  C  863  1  0.24361800  0.66255200  0.97278800  1
  C  864  1  0.22412800  0.64576400  0.97439200  1
  C  865  1  0.20816500  0.64181400  0.95425400  1
  C  866  1  0.21329800  0.65427800  0.93204100  1
  C  867  1  0.23281400  0.67103400  0.93044600  1
  C  869  1  0.20431900  0.59458800  0.95637900  1
  C  870  1  0.21856100  0.58837500  0.93550400  1
  C  871  1  0.23203000  0.56637500  0.93464100  1
  C  872  1  0.23239300  0.55016100  0.95490200  1
  C  873  1  0.21983000  0.55732800  0.97644900  1
  C  874  1  0.20642900  0.57935500  0.97732400  1
  C  875  1  0.16862200  0.62241000  0.98025600  1
  C  876  1  0.16734300  0.62069700  0.93254200  1
  C  877  1  0.16161000  0.59975100  0.91832400  1
  C  878  1  0.14460800  0.60109400  0.89893700  1
  C  879  1  0.13228500  0.62326000  0.89312200  1
  C  880  1  0.13751200  0.64399200  0.90788800  1
  C  881  1  0.15437600  0.64265100  0.92739800  1
  C  882  1  0.16707500  0.64403200  0.99464300  1
  C  883  1  0.15075400  0.64562300  0.01461400  1
  C  884  1  0.13565600  0.62554000  0.02085800  1
  C  885  1  0.13619300  0.60439500  0.00593300  1
  C  886  1  0.15209200  0.60305900  0.98569400  1
  C  903  1  0.74384300  0.32590300  0.94812700  1
  C  904  1  0.75431500  0.33159500  0.97117700  1
  C  905  1  0.77474400  0.34720800  0.97290300  1
  C  906  1  0.78549000  0.35739700  0.95157900  1
  C  907  1  0.77403500  0.35283100  0.92868100  1
  C  908  1  0.75387400  0.33689000  0.92690500  1
  C  910  1  0.79165800  0.40392200  0.95303900  1
  C  911  1  0.78777700  0.41759200  0.93129200  1
  C  912  1  0.77516000  0.44010700  0.93187800  1
  C  913  1  0.76566000  0.44946900  0.95415100  1
  C  914  1  0.76714400  0.43449500  0.97529100  1
  C  915  1  0.77953000  0.41188200  0.97462800  1
  C  916  1  0.82535300  0.37563800  0.97827300  1
  C  917  1  0.82808100  0.37503700  0.93066800  1
  C  918  1  0.84268000  0.39523100  0.92334300  1
  C  919  1  0.85986800  0.39292000  0.90425800  1
  C  920  1  0.86409400  0.37004300  0.89274500  1
  C  921  1  0.85090400  0.34942900  0.90132400  1
  C  922  1  0.83332100  0.35186500  0.92007800  1
  C  923  1  0.83325400  0.35242600  0.98695100  1
  C  924  1  0.84898100  0.35047500  0.00736900  1
  C  925  1  0.85765900  0.37168500  0.01950200  1
  C  926  1  0.85113100  0.39486300  0.00985800  1
  C  927  1  0.83543000  0.39680700  0.98949000  1
  C  944  1  0.74985500  0.67580700  0.95611500  1
  C  945  1  0.75446400  0.66330400  0.93383200  1
  C  946  1  0.77399300  0.64661000  0.93175800  1
  C  947  1  0.79001900  0.64219400  0.95174400  1
  C  948  1  0.78494700  0.65412700  0.97425600  1
  C  949  1  0.76537100  0.67078100  0.97632400  1
  C  951  1  0.79368400  0.59500000  0.94873100  1
  C  952  1  0.77953400  0.58843800  0.96956200  1
  C  953  1  0.76588000  0.56654800  0.97003700  1
  C  954  1  0.76529000  0.55077200  0.94945400  1
  C  955  1  0.77788600  0.55824500  0.92802400  1
  C  956  1  0.79137400  0.58021600  0.92749700  1
  C  957  1  0.82935100  0.62307800  0.92515400  1
  C  958  1  0.83090900  0.62056600  0.97277700  1
  C  959  1  0.83673300  0.59936100  0.98658900  1
  C  960  1  0.85401400  0.60030600  0.00575600  1
  C  961  1  0.86652700  0.62231300  0.01170200  1
  C  962  1  0.86114900  0.64332500  0.99737900  1
  C  963  1  0.84399300  0.64239000  0.97810900  1
  C  964  1  0.83094700  0.64495300  0.91114300  1
  C  965  1  0.84727300  0.64684800  0.89119800  1
  C  966  1  0.86229800  0.62681600  0.88460500  1
  C  967  1  0.86166600  0.60538300  0.89911800  1
  C  968  1  0.84578100  0.60374400  0.91934100  1
  C  985  1  0.00442600  0.52328600  0.19500400  1
  C  987  1  0.02739600  0.48884300  0.18021500  1
  C  988  1  0.00977300  0.47228000  0.18961300  1
  C  990  1  0.98765200  0.50704200  0.20664900  1
  C  992  1  0.96732400  0.51482700  0.21986100  1
  C  995  1  0.99273300  0.52452900  0.71069000  1
  C  997  1  0.96942200  0.49023700  0.72530600  1
  C  998  1  0.98689800  0.47354600  0.71582000  1
  C  1000  1  0.00938100  0.50818100  0.69903300  1
  C  1002  1  0.02977100  0.51581900  0.68590900  1
  C  1005  1  0.24041200  0.00500300  0.48038100  1
  C  1007  1  0.22714700  0.02865400  0.44573200  1
  C  1008  1  0.23612400  0.01068300  0.42932300  1
  C  1010  1  0.25171300  0.98788100  0.46428400  1
  C  1012  1  0.26391600  0.96703600  0.47223900  1
  C  1015  1  0.75548500  0.99362400  0.48069900  1
  C  1017  1  0.76729800  0.97026800  0.44540400  1
  C  1018  1  0.75793300  0.98850700  0.42949800  1
  C  1020  1  0.74376900  0.01105600  0.46519500  1
  C  1022  1  0.73199400  0.03190800  0.47380700  1
  C  1025  1  0.52285700  0.24007700  0.95864000  1
  C  1027  1  0.48873600  0.22540400  0.98215600  1
  C  1028  1  0.47189400  0.23459300  0.96466200  1
  C  1030  1  0.50635400  0.25157200  0.94199800  1
  C  1032  1  0.51384100  0.26462100  0.92146400  1
  C  1035  1  0.52428000  0.75623600  0.94712100  1
  C  1037  1  0.48970200  0.77074300  0.92407500  1
  C  1038  1  0.47319000  0.76123100  0.94169100  1
  C  1040  1  0.50809000  0.74453700  0.96389300  1
  C  1042  1  0.51595200  0.73140900  0.98420000  1
  C  1045  1  0.52532300  0.99928200  0.71103800  1
  C  1047  1  0.48918200  0.02216400  0.72165800  1
  C  1048  1  0.47402100  0.00313200  0.71281800  1
  C  1050  1  0.51030100  0.98112600  0.69974400  1
  C  1052  1  0.51952000  0.96048500  0.68811300  1
  C  1055  1  0.52525300  0.99841200  0.19296300  1
  C  1057  1  0.48933600  0.97505500  0.18285600  1
  C  1058  1  0.47397000  0.99384000  0.19190600  1
  C  1060  1  0.51017100  0.01644100  0.20437700  1
  C  1062  1  0.51931000  0.03730700  0.21572000  1
  C  1065  1  0.00084700  0.24029800  0.42556300  1
  C  1067  1  0.02374400  0.23003200  0.46174800  1
  C  1068  1  0.00471500  0.23909600  0.47677900  1
  C  1070  1  0.98277600  0.25199600  0.44039000  1
  C  1072  1  0.96209000  0.26357500  0.43102800  1
  C  1075  1  0.99590100  0.75671800  0.42504800  1
  C  1077  1  0.97326200  0.76652400  0.46151500  1
  C  1078  1  0.99263800  0.75769900  0.47628600  1
  C  1080  1  0.01427800  0.74519400  0.43965300  1
  C  1082  1  0.03493500  0.73386400  0.43006300  1
  C  1085  1  0.23967200  0.52529200  0.95171400  1
  C  1087  1  0.22894100  0.48952100  0.92838900  1
  C  1088  1  0.23785700  0.47406800  0.94717100  1
  C  1090  1  0.25094800  0.51003000  0.96968700  1
  C  1092  1  0.26255000  0.51895000  0.99048100  1
  C  1095  1  0.75782100  0.52588600  0.95210900  1
  C  1097  1  0.76782300  0.48956600  0.97488300  1
  C  1098  1  0.75887800  0.47460800  0.95574400  1
  C  1100  1  0.74639600  0.51115600  0.93379300  1
  C  1102  1  0.73501100  0.52066900  0.91309800  1
  C  1105  1  0.00002900  0.30707400  0.22413500  1
  C  1107  1  0.01531900  0.26792900  0.23657300  1
  C  1108  1  0.00067300  0.26857500  0.25792500  1
  C  1110  1  0.98542800  0.30843300  0.24569700  1
  C  1112  1  0.97046200  0.32820500  0.25155800  1
  C  1115  1  0.99323800  0.68984900  0.22615200  1
  C  1117  1  0.97743700  0.72888300  0.23816000  1
  C  1118  1  0.99280100  0.72904900  0.25904300  1
  C  1120  1  0.00841900  0.68920200  0.24733700  1
  C  1122  1  0.02409900  0.67000200  0.25313600  1
  C  1125  1  0.99612500  0.30910800  0.67696300  1
  C  1127  1  0.97658700  0.27340000  0.66048100  1
  C  1128  1  0.99487200  0.27152400  0.64229400  1
  C  1130  1  0.01403500  0.30818400  0.65798200  1
  C  1132  1  0.03251300  0.32540700  0.65490400  1
  C  1135  1  0.00215000  0.68884400  0.67723500  1
  C  1137  1  0.02210400  0.72367400  0.65953200  1
  C  1138  1  0.00301300  0.72607000  0.64222100  1
  C  1140  1  0.98337600  0.69020500  0.65911400  1
  C  1142  1  0.96411500  0.67363000  0.65720900  1
  C  1145  1  0.27410500  0.00111700  0.26549100  1
  C  1147  1  0.28917300  0.01943600  0.22856700  1
  C  1148  1  0.30832400  0.00207300  0.22747900  1
  C  1150  1  0.29392700  0.98409900  0.26527800  1
  C  1152  1  0.29798100  0.96666800  0.28341400  1
  C  1155  1  0.27215600  0.99411900  0.64309800  1
  C  1157  1  0.28997100  0.97432600  0.67794100  1
  C  1158  1  0.30778900  0.99301700  0.67976600  1
  C  1160  1  0.29069600  0.01246900  0.64385400  1
  C  1162  1  0.29265400  0.03152200  0.62709400  1
  C  1165  1  0.72413300  0.99581100  0.26204700  1
  C  1167  1  0.71352100  0.98147400  0.22197500  1
  C  1168  1  0.69181600  0.99561300  0.22226900  1
  C  1170  1  0.70206500  0.00970800  0.26304700  1
  C  1172  1  0.69486400  0.02362000  0.28308200  1
  C  1175  1  0.72756500  0.00329200  0.64617900  1
  C  1177  1  0.71392900  0.01948800  0.68449100  1
  C  1178  1  0.69339700  0.00365900  0.68430700  1
  C  1180  1  0.70674700  0.98763000  0.64513700  1
  C  1182  1  0.70200300  0.97143300  0.62606100  1
  C  1185  1  0.30872800  0.27260800  0.95535300  1
  C  1187  1  0.27252800  0.28892700  0.97407100  1
  C  1188  1  0.27163400  0.30787300  0.95647800  1
  C  1190  1  0.30877100  0.29220500  0.93810200  1
  C  1192  1  0.32668300  0.29548100  0.92028000  1
  C  1195  1  0.68646200  0.27458700  0.94770800  1
  C  1197  1  0.72187800  0.29143400  0.92807500  1
  C  1198  1  0.72388400  0.30937600  0.94660000  1
  C  1200  1  0.68744300  0.29329200  0.96587000  1
  C  1202  1  0.67050300  0.29584900  0.98468600  1
  C  1205  1  0.30691200  0.72590600  0.95001000  1
  C  1207  1  0.26769200  0.71374700  0.93457700  1
  C  1208  1  0.26800400  0.69256700  0.94948500  1
  C  1210  1  0.30797100  0.70442700  0.96475400  1
  C  1212  1  0.32759600  0.69839300  0.97981800  1
  C  1215  1  0.69092500  0.72576700  0.95777900  1
  C  1217  1  0.72986000  0.71321900  0.97354000  1
  C  1218  1  0.72991200  0.69254900  0.95793100  1
  C  1220  1  0.69011900  0.70474700  0.94240000  1
  C  1222  1  0.67084000  0.69932600  0.92662900  1
  C  1225  1  0.07989100  0.36990800  0.06735500  1
  C  1227  1  0.09730600  0.35000800  0.03225300  1
  C  1228  1  0.11449900  0.36917800  0.02941900  1
  C  1230  1  0.09785100  0.38878300  0.06552900  1
  C  1232  1  0.09994600  0.40817000  0.08193600  1
  C  1235  1  0.91695600  0.62113900  0.07084700  1
  C  1237  1  0.90329800  0.63986300  0.03354100  1
  C  1238  1  0.88377500  0.62289300  0.03148600  1
  C  1240  1  0.89727100  0.60408700  0.06949900  1
  C  1242  1  0.89282100  0.58604600  0.08688400  1
  C  1245  1  0.91528900  0.36888300  0.83482200  1
  C  1247  1  0.89733100  0.34853300  0.86938900  1
  C  1248  1  0.88101500  0.36832900  0.87300200  1
  C  1250  1  0.89809600  0.38838300  0.83738800  1
  C  1252  1  0.89666500  0.40837800  0.82169100  1
  C  1255  1  0.08243700  0.62284500  0.83346600  1
  C  1257  1  0.09599100  0.64140200  0.87086600  1
  C  1258  1  0.11531900  0.62421100  0.87309200  1
  C  1260  1  0.10198300  0.60562600  0.83490100  1
  C  1262  1  0.10621400  0.58742000  0.81760100  1
  C  1265  1  0.11631600  0.08233800  0.32173000  1
  C  1267  1  0.07762700  0.09557700  0.30574100  1
  C  1268  1  0.07747200  0.11600900  0.32171100  1
  C  1270  1  0.11708200  0.10318500  0.33736600  1
  C  1272  1  0.13610700  0.10816000  0.35361000  1
  C  1275  1  0.11469200  0.91655900  0.57452100  1
  C  1277  1  0.08220000  0.89722200  0.59704800  1
  C  1278  1  0.07621000  0.88252200  0.57660200  1
  C  1280  1  0.10949700  0.90123300  0.55402700  1
  C  1282  1  0.12299700  0.90115800  0.53246200  1
  C  1285  1  0.87981300  0.91710000  0.32520200  1
  C  1287  1  0.91845300  0.90408300  0.30885100  1
  C  1288  1  0.91861300  0.88333500  0.32440900  1
  C  1290  1  0.87912500  0.89593400  0.34043600  1
  C  1292  1  0.85998000  0.89035200  0.35625800  1
  C  1295  1  0.88286300  0.08000300  0.57464500  1
  C  1297  1  0.91574300  0.09895500  0.59697800  1
  C  1298  1  0.92120200  0.11424000  0.57681100  1
  C  1300  1  0.88754200  0.09586600  0.55442700  1
  C  1302  1  0.87354900  0.09632400  0.53313300  1
  C  1305  1  0.36780200  0.11400600  0.03567500  1
  C  1307  1  0.34786300  0.07904900  0.05330700  1
  C  1308  1  0.36732900  0.07598400  0.07015200  1
  C  1310  1  0.38697200  0.11199100  0.05331600  1
  C  1312  1  0.40663200  0.12814200  0.05502100  1
  C  1315  1  0.62153300  0.11729600  0.86952700  1
  C  1317  1  0.64018100  0.07993700  0.85599700  1
  C  1318  1  0.62305700  0.07778700  0.83660200  1
  C  1320  1  0.60434700  0.11588400  0.84996200  1
  C  1322  1  0.58617400  0.13318500  0.84561800  1
  C  1325  1  0.37043400  0.88274900  0.87135300  1
  C  1327  1  0.35009400  0.91745100  0.85354400  1
  C  1328  1  0.36957900  0.92071300  0.83679700  1
  C  1330  1  0.38963900  0.88502200  0.85379300  1
  C  1332  1  0.40935500  0.86900300  0.85196200  1
  C  1335  1  0.62185000  0.88073500  0.03481800  1
  C  1337  1  0.64056500  0.91796100  0.04867100  1
  C  1338  1  0.62355200  0.91992500  0.06815600  1
  C  1340  1  0.60477900  0.88194600  0.05449400  1
  C  1342  1  0.58669200  0.86451500  0.05876600  1
  C  1345  1  0.36899000  0.08592100  0.82958900  1
  C  1347  1  0.35276300  0.09817100  0.86859400  1
  C  1348  1  0.36702900  0.11977600  0.86821800  1
  C  1350  1  0.38257800  0.10819600  0.82831700  1
  C  1352  1  0.39706200  0.11493600  0.80847100  1
  C  1355  1  0.62691100  0.91050600  0.83194300  1
  C  1357  1  0.64466700  0.89607100  0.86943700  1
  C  1358  1  0.62797700  0.87622400  0.87031000  1
  C  1360  1  0.61049900  0.89024400  0.83187000  1
  C  1362  1  0.59312200  0.88602000  0.81374500  1
  C  1365  1  0.36934900  0.91006500  0.07661500  1
  C  1367  1  0.35271000  0.89707700  0.03802600  1
  C  1368  1  0.36794100  0.87611500  0.03804600  1
  C  1370  1  0.38398500  0.88844500  0.07753200  1
  C  1372  1  0.39931000  0.88240000  0.09694400  1
  C  1375  1  0.62782200  0.08683800  0.07264900  1
  C  1377  1  0.64501500  0.10108300  0.03486900  1
  C  1378  1  0.62855100  0.12113600  0.03434000  1
  C  1380  1  0.61167100  0.10731200  0.07310200  1
  C  1382  1  0.59458900  0.11159700  0.09151500  1
  C  1385  1  0.08622100  0.12102500  0.58290300  1
  C  1387  1  0.09718300  0.08067500  0.59661800  1
  C  1388  1  0.12000800  0.08224800  0.58446700  1
  C  1390  1  0.10963600  0.12345500  0.57157400  1
  C  1392  1  0.11750600  0.14446800  0.55950600  1
  C  1395  1  0.90955700  0.12034800  0.32645900  1
  C  1397  1  0.89288600  0.08480100  0.30675200  1
  C  1398  1  0.87495800  0.08228600  0.32531700  1
  C  1400  1  0.89109900  0.11878100  0.34483500  1
  C  1402  1  0.88872400  0.13525600  0.36407500  1
  C  1405  1  0.91060100  0.87576000  0.58180800  1
  C  1407  1  0.89984900  0.91626500  0.59524000  1
  C  1408  1  0.87686800  0.91459900  0.58337800  1
  C  1410  1  0.88705000  0.87330100  0.57073900  1
  C  1412  1  0.87892700  0.85219500  0.55909400  1
  C  1415  1  0.08599100  0.87754400  0.32520300  1
  C  1417  1  0.10161500  0.91388100  0.30614300  1
  C  1418  1  0.12031300  0.91582500  0.32402300  1
  C  1420  1  0.10521700  0.87849000  0.34283800  1
  C  1422  1  0.10832600  0.86136900  0.36145300  1
  C  1425  1  0.12128800  0.36940800  0.86409500  1
  C  1427  1  0.08260000  0.35283300  0.85125000  1
  C  1428  1  0.08273300  0.36772300  0.83005100  1
  C  1430  1  0.12234000  0.38369800  0.84225800  1
  C  1432  1  0.14188000  0.39885400  0.83609400  1
  C  1435  1  0.11923000  0.62676700  0.04091400  1
  C  1437  1  0.08187400  0.64448800  0.05573500  1
  C  1438  1  0.08113900  0.62769100  0.07549500  1
  C  1440  1  0.11943900  0.61022800  0.06106900  1
  C  1442  1  0.13756500  0.59278600  0.06503700  1
  C  1445  1  0.87449000  0.36989800  0.03936000  1
  C  1447  1  0.91347800  0.35376700  0.05197400  1
  C  1448  1  0.91303000  0.36827600  0.07340600  1
  C  1450  1  0.87316600  0.38373700  0.06146800  1
  C  1452  1  0.85330600  0.39825000  0.06801100  1
  C  1455  1  0.87881600  0.62833500  0.86465800  1
  C  1457  1  0.91677400  0.64545000  0.85071400  1
  C  1458  1  0.91729700  0.62918100  0.83052700  1
  C  1460  1  0.87836400  0.61238200  0.84404900  1
  C  1462  1  0.85985300  0.59545900  0.83953500  1
  N  986  1  0.02343600  0.51317100  0.18247200  1
  N  989  1  0.99098500  0.48257900  0.20255100  1
  N  996  1  0.97367000  0.51453800  0.72323600  1
  N  999  1  0.00578400  0.48373100  0.70293500  1
  N  1006  1  0.22869500  0.02445100  0.47009200  1
  N  1009  1  0.24822200  0.99142400  0.43977400  1
  N  1016  1  0.76656000  0.97411800  0.46985800  1
  N  1019  1  0.74646100  0.00779900  0.44053700  1
  N  1026  1  0.51302600  0.22768000  0.97787500  1
  N  1029  1  0.48193200  0.24744400  0.94567900  1
  N  1036  1  0.51406700  0.76874400  0.92813600  1
  N  1039  1  0.48357300  0.74838800  0.96050800  1
  N  1046  1  0.51374800  0.01882700  0.72136400  1
  N  1049  1  0.48550100  0.98368500  0.70213800  1
  N  1056  1  0.51385700  0.97863700  0.18291800  1
  N  1059  1  0.48537400  0.01348600  0.20232000  1
  N  1066  1  0.02044200  0.23007800  0.43718500  1
  N  1069  1  0.98530000  0.24975800  0.46518500  1
  N  1076  1  0.97635800  0.76670900  0.43693000  1
  N  1079  1  0.01205600  0.74733000  0.46447500  1
  N  1086  1  0.22928300  0.51401300  0.93203400  1
  N  1089  1  0.24858200  0.48529000  0.96675600  1
  N  1096  1  0.76780300  0.51412900  0.97172500  1
  N  1099  1  0.74850300  0.48633200  0.93626000  1
  N  1106  1  0.01418700  0.28686600  0.22061500  1
  N  1109  1  0.98655000  0.28891000  0.26123800  1
  N  1116  1  0.97857000  0.70967000  0.22252000  1
  N  1119  1  0.00737500  0.70904100  0.26241800  1
  N  1126  1  0.97829100  0.29164400  0.67719100  1
  N  1129  1  0.01254600  0.28911900  0.64194400  1
  N  1136  1  0.02062400  0.70560400  0.67647200  1
  N  1139  1  0.98475000  0.70910500  0.64287000  1
  N  1146  1  0.27279300  0.01793600  0.24710800  1
  N  1149  1  0.30971500  0.98539000  0.24597200  1
  N  1156  1  0.27272500  0.97593300  0.66015100  1
  N  1159  1  0.30723700  0.01100000  0.66248900  1
  N  1166  1  0.72876600  0.98243800  0.24152600  1
  N  1169  1  0.68730200  0.00888500  0.24291700  1
  N  1176  1  0.73019700  0.01842500  0.66578300  1
  N  1179  1  0.69102800  0.98866500  0.66449100  1
  N  1186  1  0.29060500  0.27201200  0.97248900  1
  N  1189  1  0.28989800  0.30851600  0.93949700  1
  N  1196  1  0.70372500  0.27460400  0.92970700  1
  N  1199  1  0.70644300  0.30940800  0.96442400  1
  N  1206  1  0.28678900  0.72953700  0.93571800  1
  N  1209  1  0.28827200  0.68912100  0.96369700  1
  N  1216  1  0.71073500  0.72902300  0.97256600  1
  N  1219  1  0.70989100  0.68951800  0.94329300  1
  N  1226  1  0.08059600  0.35137600  0.05064700  1
  N  1229  1  0.11386800  0.38737900  0.04644300  1
  N  1236  1  0.91901800  0.63816600  0.05274400  1
  N  1239  1  0.88199000  0.60601500  0.04982100  1
  N  1246  1  0.91400100  0.34986200  0.85095100  1
  N  1249  1  0.88220700  0.38704200  0.85657100  1
  N  1256  1  0.08038300  0.63986900  0.85155600  1
  N  1259  1  0.11708300  0.60735900  0.85473800  1
  N  1266  1  0.09659400  0.07949000  0.30671700  1
  N  1269  1  0.09742800  0.11857800  0.33652600  1
  N  1276  1  0.10074400  0.91367800  0.59504000  1
  N  1279  1  0.09041100  0.88528400  0.55628200  1
  N  1286  1  0.89948300  0.92013900  0.31015400  1
  N  1289  1  0.89871000  0.88048400  0.33921200  1
  N  1296  1  0.89722100  0.08247500  0.59495200  1
  N  1299  1  0.90659200  0.11187300  0.55671700  1
  N  1306  1  0.34912300  0.09746000  0.03660400  1
  N  1309  1  0.38568100  0.09285400  0.06927400  1
  N  1316  1  0.63856600  0.09919300  0.87162800  1
  N  1319  1  0.60616500  0.09612800  0.83480600  1
  N  1326  1  0.35154300  0.89907400  0.87026800  1
  N  1329  1  0.38815700  0.90409000  0.83776600  1
  N  1336  1  0.63890400  0.89883100  0.03288800  1
  N  1339  1  0.60667600  0.90157200  0.06982200  1
  N  1346  1  0.35469600  0.08214100  0.84971000  1
  N  1349  1  0.38104700  0.12358800  0.84793200  1
  N  1356  1  0.64316000  0.91244800  0.85077800  1
  N  1359  1  0.61192900  0.87452300  0.85122200  1
  N  1366  1  0.35441400  0.91322200  0.05684100  1
  N  1369  1  0.38263000  0.87295700  0.05798700  1
  N  1376  1  0.64369100  0.08470000  0.05353500  1
  N  1379  1  0.61290000  0.12300800  0.05371900  1
  N  1386  1  0.08126600  0.09971200  0.59493200  1
  N  1389  1  0.12493800  0.10372800  0.57275400  1
  N  1396  1  0.90952700  0.10322000  0.30832800  1
  N  1399  1  0.87511400  0.09965600  0.34324400  1
  N  1406  1  0.91571500  0.89719800  0.59353900  1
  N  1409  1  0.87175400  0.89303800  0.57190900  1
  N  1416  1  0.08515600  0.89530800  0.30771400  1
  N  1419  1  0.12100200  0.89778900  0.34128600  1
  N  1426  1  0.10143100  0.35463100  0.86740400  1
  N  1429  1  0.10278200  0.38222500  0.82675200  1
  N  1436  1  0.10040800  0.64305900  0.03920700  1
  N  1439  1  0.10021000  0.61159500  0.07694500  1
  N  1446  1  0.89465000  0.35557100  0.03582200  1
  N  1449  1  0.89272700  0.38235300  0.07698600  1
  N  1456  1  0.89802700  0.64407000  0.86700400  1
  N  1459  1  0.89782200  0.61366300  0.82844000  1
  O  993  1  0.95566700  0.49985800  0.23183900  1
  O  1003  1  0.04160200  0.50096500  0.67395200  1
  O  1013  1  0.27577000  0.95476500  0.45766400  1
  O  1023  1  0.71904200  0.04358500  0.45964600  1
  O  1033  1  0.49868500  0.27652200  0.90994000  1
  O  1043  1  0.50121400  0.71943700  0.99616300  1
  O  1053  1  0.50573200  0.94688200  0.67677100  1
  O  1063  1  0.50534700  0.05001100  0.22787700  1
  O  1073  1  0.94887600  0.27534900  0.44482000  1
  O  1083  1  0.04872600  0.72231900  0.44351000  1
  O  1093  1  0.27388600  0.50498600  0.00392400  1
  O  1103  1  0.72284000  0.50694900  0.90014200  1
  O  1113  1  0.95991500  0.32861100  0.27135400  1
  O  1123  1  0.03490300  0.66978700  0.27281500  1
  O  1133  1  0.04667900  0.32388500  0.63756200  1
  O  1143  1  0.94986700  0.67527700  0.63991600  1
  O  1153  1  0.31603500  0.95337200  0.28223400  1
  O  1163  1  0.30998100  0.04575800  0.62813500  1
  O  1173  1  0.67494000  0.03399000  0.28309300  1
  O  1183  1  0.68205200  0.96114800  0.62521700  1
  O  1193  1  0.32584700  0.31346600  0.90688400  1
  O  1203  1  0.67181200  0.31324300  0.99879800  1
  O  1213  1  0.32794300  0.67870300  0.99058400  1
  O  1223  1  0.67039500  0.67931900  0.91646700  1
  O  1233  1  0.11653300  0.42308600  0.07947200  1
  O  1243  1  0.87443300  0.57324700  0.08542200  1
  O  1253  1  0.88056400  0.42379500  0.82438100  1
  O  1263  1  0.12523500  0.57551800  0.81873700  1
  O  1273  1  0.13638600  0.12770500  0.36461100  1
  O  1283  1  0.11766700  0.88713000  0.51577700  1
  O  1293  1  0.85995700  0.87097300  0.36757800  1
  O  1303  1  0.87844800  0.11120400  0.51704900  1
  O  1313  1  0.42162500  0.12571400  0.07155600  1
  O  1323  1  0.57350100  0.13187200  0.82713200  1
  O  1333  1  0.42470700  0.87168100  0.83581000  1
  O  1343  1  0.57458500  0.86572700  0.07763100  1
  O  1353  1  0.40748400  0.13480600  0.80854100  1
  O  1363  1  0.58121600  0.86699800  0.81375400  1
  O  1373  1  0.41059000  0.86298900  0.09689700  1
  O  1383  1  0.58402100  0.13140100  0.09213800  1
  O  1393  1  0.13829200  0.14530900  0.55106900  1
  O  1403  1  0.87128300  0.13377300  0.37812800  1
  O  1413  1  0.85811100  0.85113900  0.55071700  1
  O  1423  1  0.12704800  0.86201800  0.37386100  1
  O  1433  1  0.14172400  0.40973900  0.81647200  1
  O  1443  1  0.13770400  0.58078200  0.08399900  1
  O  1453  1  0.85311300  0.40898300  0.08771300  1
  O  1463  1  0.85927000  0.58504300  0.81966000  1
