# generated using pymatgen
data_H40C59(N2O)4
_symmetry_space_group_name_H-M   'P 1'
_cell_length_a   41.32680000
_cell_length_b   41.32680000
_cell_length_c   55.04990000
_cell_angle_alpha   90.00000000
_cell_angle_beta   90.00000000
_cell_angle_gamma   90.00000000
_symmetry_Int_Tables_number   1
_chemical_formula_structural   H40C59(N2O)4
_chemical_formula_sum   'H640 C944 N128 O64'
_cell_volume   94019.96633267
_cell_formula_units_Z   16
loop_
 _symmetry_equiv_pos_site_id
 _symmetry_equiv_pos_as_xyz
  1  'x, y, z'
loop_
 _atom_site_type_symbol
 _atom_site_label
 _atom_site_symmetry_multiplicity
 _atom_site_fract_x
 _atom_site_fract_y
 _atom_site_fract_z
 _atom_site_occupancy
  H  25  1  0.16592700  0.23596900  0.07543700  1
  H  26  1  0.18636000  0.20248900  0.10684200  1
  H  27  1  0.17410100  0.12253600  0.17067300  1
  H  28  1  0.14305800  0.08548000  0.19401500  1
  H  29  1  0.05812800  0.11569300  0.15828400  1
  H  30  1  0.07091500  0.20553400  0.09116700  1
  H  31  1  0.09865900  0.20858700  0.16250100  1
  H  32  1  0.00385800  0.23591500  0.18167900  1
  H  33  1  0.98244000  0.19990100  0.15221800  1
  H  34  1  0.11010300  0.11701300  0.09643900  1
  H  35  1  0.99338900  0.12089000  0.08760700  1
  H  36  1  0.02415600  0.08569600  0.06261800  1
  H  39  1  0.17433500  0.14799500  0.12747300  1
  H  40  1  0.16845700  0.17896700  0.14940200  1
  H  42  1  0.99536100  0.14515700  0.13165300  1
  H  43  1  0.99791700  0.17624500  0.10945500  1
  H  76  1  0.52466200  0.08303200  0.56776300  1
  H  77  1  0.49370600  0.11715500  0.59340200  1
  H  78  1  0.48252500  0.19660900  0.65759800  1
  H  79  1  0.50379700  0.23354200  0.68648100  1
  H  80  1  0.59867900  0.21082400  0.66427900  1
  H  81  1  0.61090100  0.12035000  0.59747300  1
  H  82  1  0.56929200  0.11672500  0.66200500  1
  H  83  1  0.66247800  0.09788000  0.68974500  1
  H  84  1  0.68484100  0.13734500  0.66329800  1
  H  85  1  0.56024400  0.20718500  0.59486600  1
  H  86  1  0.67695800  0.21747000  0.59927300  1
  H  87  1  0.64747100  0.24934900  0.57115300  1
  H  90  1  0.49688300  0.17355300  0.61434800  1
  H  91  1  0.49685000  0.14255000  0.63669900  1
  H  93  1  0.66965800  0.19162300  0.64241900  1
  H  94  1  0.67464200  0.16115800  0.61996900  1
  H  127  1  0.01860900  0.74941000  0.67719500  1
  H  128  1  0.99269000  0.71276800  0.65026800  1
  H  129  1  0.99412700  0.62716700  0.58942500  1
  H  130  1  0.02131200  0.58914100  0.56426300  1
  H  131  1  0.11121800  0.61993400  0.59192700  1
  H  132  1  0.10974400  0.71308700  0.65649200  1
  H  133  1  0.07589000  0.71210700  0.58862100  1
  H  134  1  0.17078700  0.73610800  0.56722400  1
  H  135  1  0.19213200  0.69967400  0.59651900  1
  H  136  1  0.06350700  0.62313600  0.65604300  1
  H  137  1  0.18052100  0.62217000  0.66256500  1
  H  138  1  0.14911600  0.58811700  0.68815600  1
  H  141  1  0.00089500  0.65494300  0.63200700  1
  H  142  1  0.00307600  0.68429700  0.60851000  1
  H  144  1  0.17810500  0.64578200  0.61840800  1
  H  145  1  0.17736000  0.67770300  0.63999000  1
  H  178  1  0.67049700  0.60227300  0.18644700  1
  H  179  1  0.69253100  0.63906500  0.15767200  1
  H  180  1  0.68254300  0.71621300  0.09122700  1
  H  181  1  0.65172200  0.74947300  0.06466000  1
  H  182  1  0.56532800  0.71267800  0.09440000  1
  H  183  1  0.57627000  0.62419500  0.16233200  1
  H  184  1  0.61226600  0.62401600  0.09524800  1
  H  185  1  0.52214800  0.58614500  0.07358100  1
  H  186  1  0.49509800  0.62246500  0.10014100  1
  H  187  1  0.61098900  0.71725100  0.15968300  1
  H  188  1  0.49398900  0.70828900  0.16085700  1
  H  189  1  0.52011300  0.74667300  0.18634900  1
  H  192  1  0.67842700  0.69264700  0.13533600  1
  H  193  1  0.67947400  0.66069500  0.11378600  1
  H  195  1  0.50201600  0.68052500  0.11835000  1
  H  196  1  0.50418900  0.65128700  0.14193000  1
  H  229  1  0.89424500  0.50378900  0.42378100  1
  H  230  1  0.85164400  0.51976200  0.39740700  1
  H  231  1  0.76444800  0.49514400  0.33948700  1
  H  232  1  0.73185400  0.45821400  0.31803700  1
  H  233  1  0.79418000  0.38216100  0.33824600  1
  H  234  1  0.88127100  0.40655500  0.40305600  1
  H  235  1  0.87248000  0.44712900  0.33825000  1
  H  236  1  0.93465500  0.37113200  0.31766100  1
  H  237  1  0.90231800  0.33419700  0.33932300  1
  H  238  1  0.78489800  0.42231200  0.40276700  1
  H  239  1  0.81577100  0.30940900  0.39765400  1
  H  240  1  0.77294600  0.32508200  0.42387000  1
  H  243  1  0.79713900  0.49704300  0.37941600  1
  H  244  1  0.82561400  0.50274400  0.35567900  1
  H  246  1  0.84150200  0.32639100  0.35582800  1
  H  247  1  0.86998500  0.33243600  0.37951200  1
  H  280  1  0.75747900  0.84960100  0.94021300  1
  H  281  1  0.79897300  0.82184200  0.91895000  1
  H  282  1  0.88278300  0.81549800  0.85718300  1
  H  283  1  0.91634000  0.83844600  0.82693900  1
  H  284  1  0.87195000  0.92923200  0.83728400  1
  H  285  1  0.78098000  0.93595900  0.90353500  1
  H  286  1  0.78622800  0.87894300  0.84688300  1
  H  287  1  0.73524000  0.95635300  0.81491200  1
  H  288  1  0.77198600  0.99317900  0.83207600  1
  H  289  1  0.87662300  0.90701000  0.90822200  1
  H  290  1  0.86158600  0.01981800  0.88719900  1
  H  291  1  0.90149700  0.00528400  0.91613800  1
  H  294  1  0.85526300  0.83225400  0.89804400  1
  H  295  1  0.82531900  0.82223900  0.87616200  1
  H  297  1  0.83337000  0.99658600  0.84798200  1
  H  298  1  0.80468900  0.00029500  0.87180400  1
  H  331  1  0.42712500  0.36499600  0.83197300  1
  H  332  1  0.38474100  0.33635300  0.85154200  1
  H  333  1  0.28453000  0.33457500  0.90250300  1
  H  334  1  0.24110400  0.36171900  0.92200200  1
  H  335  1  0.28449800  0.45127400  0.90576900  1
  H  336  1  0.38124400  0.45302600  0.84905700  1
  H  337  1  0.37649200  0.41061700  0.91230200  1
  H  338  1  0.40882700  0.50151000  0.93703700  1
  H  339  1  0.37216300  0.52782700  0.91043200  1
  H  340  1  0.29076300  0.41025700  0.84225100  1
  H  341  1  0.29251500  0.52749800  0.84522800  1
  H  342  1  0.25673200  0.50083200  0.81814900  1
  H  345  1  0.32170900  0.34277300  0.86427400  1
  H  346  1  0.34748400  0.34306600  0.88999600  1
  H  348  1  0.31620600  0.51877700  0.88853200  1
  H  349  1  0.34843500  0.51934800  0.86720600  1
  H  382  1  0.25704600  0.98678300  0.31378800  1
  H  383  1  0.29773200  0.01485700  0.33569000  1
  H  384  1  0.38137700  0.02131600  0.39753400  1
  H  385  1  0.41574700  0.99823400  0.42720000  1
  H  386  1  0.37257700  0.90702700  0.41611900  1
  H  387  1  0.28168400  0.90012500  0.34964300  1
  H  388  1  0.28550200  0.95681700  0.40671300  1
  H  389  1  0.23500100  0.87863600  0.43805700  1
  H  390  1  0.27256900  0.84235900  0.42129400  1
  H  391  1  0.37624300  0.93001600  0.34546100  1
  H  392  1  0.36276200  0.81696100  0.36641000  1
  H  393  1  0.40232000  0.83207000  0.33735200  1
  H  396  1  0.35391300  0.00511700  0.35668700  1
  H  397  1  0.32375400  0.01395200  0.37868900  1
  H  399  1  0.33428400  0.83985500  0.40572800  1
  H  400  1  0.30572700  0.83565900  0.38186600  1
  H  415  1  0.02224600  0.02273900  0.06924800  1
  H  424  1  0.93575600  0.98038300  0.02347400  1
  H  425  1  0.96924300  0.00071600  0.05559700  1
  H  426  1  0.92890300  0.96747200  0.97964400  1
  H  428  1  0.12647100  0.03210900  0.03229200  1
  H  429  1  0.11266700  0.03988500  0.00237800  1
  H  430  1  0.12202400  0.99982600  0.01162500  1
  H  432  1  0.04318100  0.97024900  0.92898100  1
  H  433  1  0.00841000  0.98540400  0.91420200  1
  H  434  1  0.01257100  0.94314600  0.91949200  1
  H  436  1  0.95153500  0.97689600  0.91996000  1
  H  438  1  0.07657100  0.03699700  0.08209100  1
  H  445  1  0.64423100  0.31070900  0.56947400  1
  H  454  1  0.72878400  0.35704000  0.52384900  1
  H  455  1  0.69567200  0.33637500  0.55607000  1
  H  456  1  0.73672100  0.36664300  0.47960900  1
  H  458  1  0.54330100  0.28846400  0.53055500  1
  H  459  1  0.55916300  0.27987900  0.50135400  1
  H  460  1  0.54571900  0.31948800  0.50865000  1
  H  462  1  0.62574200  0.34964200  0.42647700  1
  H  463  1  0.66244200  0.33644000  0.41334500  1
  H  464  1  0.65439900  0.37851200  0.41649500  1
  H  466  1  0.71863300  0.34822200  0.42080600  1
  H  468  1  0.59079100  0.29234100  0.58168200  1
  H  475  1  0.14642600  0.52554300  0.67876400  1
  H  484  1  0.23017000  0.47536500  0.72290600  1
  H  485  1  0.19829700  0.50018600  0.69165600  1
  H  486  1  0.23520200  0.45821400  0.76596000  1
  H  488  1  0.04191700  0.53542500  0.71511100  1
  H  489  1  0.05540200  0.53784200  0.74559500  1
  H  490  1  0.04374500  0.50006100  0.73301000  1
  H  492  1  0.11872900  0.45504100  0.81374200  1
  H  493  1  0.15247900  0.46920200  0.83028300  1
  H  494  1  0.14926500  0.42751000  0.82262500  1
  H  496  1  0.20929700  0.46355200  0.82529700  1
  H  498  1  0.09215200  0.54280800  0.66645400  1
  H  505  1  0.51683400  0.81009400  0.18380100  1
  H  514  1  0.43184300  0.85359600  0.23056900  1
  H  515  1  0.46415400  0.83217400  0.19815800  1
  H  516  1  0.42680800  0.86835900  0.27419300  1
  H  518  1  0.62274400  0.80383700  0.21837800  1
  H  519  1  0.61031800  0.79757500  0.24882000  1
  H  520  1  0.61890400  0.83718100  0.23815700  1
  H  522  1  0.54328700  0.86920400  0.32201200  1
  H  523  1  0.50934700  0.85426200  0.33796100  1
  H  524  1  0.51276200  0.89633100  0.33162500  1
  H  526  1  0.45200000  0.86134900  0.33327200  1
  H  528  1  0.57116700  0.79638600  0.16998500  1
  H  535  1  0.15683800  0.90533300  0.44115300  1
  H  544  1  0.09162000  0.82593900  0.47945800  1
  H  545  1  0.11412300  0.86409300  0.45122200  1
  H  546  1  0.09417200  0.79802900  0.51998700  1
  H  548  1  0.25301700  0.94100900  0.48171400  1
  H  549  1  0.23875200  0.93382000  0.51144200  1
  H  550  1  0.26230000  0.90410100  0.49630400  1
  H  552  1  0.20205100  0.83286600  0.57207400  1
  H  553  1  0.16576300  0.82659400  0.58832500  1
  H  554  1  0.18717400  0.79314600  0.57588500  1
  H  556  1  0.12301900  0.78843000  0.57990700  1
  H  558  1  0.19261500  0.95961700  0.45044400  1
  H  565  1  0.66212200  0.42965300  0.30758800  1
  H  574  1  0.59364100  0.50779600  0.27102900  1
  H  575  1  0.61783400  0.46969800  0.29852200  1
  H  576  1  0.59482200  0.53702700  0.23095800  1
  H  578  1  0.76005900  0.40021500  0.26661300  1
  H  579  1  0.74520900  0.40731000  0.23702000  1
  H  580  1  0.76743700  0.43780100  0.25241300  1
  H  582  1  0.70321000  0.50733700  0.17768500  1
  H  583  1  0.66642700  0.51255600  0.16185400  1
  H  584  1  0.68685500  0.54654600  0.17437700  1
  H  586  1  0.62244800  0.54912300  0.17110700  1
  H  588  1  0.70090600  0.37671900  0.29528900  1
  H  595  1  0.50713300  0.38256100  0.82316300  1
  H  604  1  0.57504100  0.30979400  0.78087400  1
  H  605  1  0.55006400  0.34261500  0.81157300  1
  H  606  1  0.57574500  0.28925800  0.73806700  1
  H  608  1  0.41305200  0.42383400  0.78260700  1
  H  609  1  0.42997800  0.42083300  0.75325300  1
  H  610  1  0.40457800  0.38964100  0.76452800  1
  H  612  1  0.46923100  0.32875500  0.68627200  1
  H  613  1  0.50653100  0.32638400  0.67075300  1
  H  614  1  0.48562000  0.29047000  0.67914400  1
  H  616  1  0.54865600  0.28684800  0.67679300  1
  H  618  1  0.47752800  0.43885300  0.81290800  1
  H  625  1  0.01957100  0.52483900  0.56850800  1
  H  634  1  0.93407400  0.47990400  0.52304400  1
  H  635  1  0.96705300  0.50136700  0.55505700  1
  H  636  1  0.92761600  0.46641400  0.47924900  1
  H  638  1  0.12413600  0.53387900  0.53202500  1
  H  639  1  0.11062200  0.54061800  0.50189800  1
  H  640  1  0.12017400  0.50093200  0.51190100  1
  H  642  1  0.04168300  0.47173800  0.42846200  1
  H  643  1  0.00633100  0.48592900  0.41389200  1
  H  644  1  0.01174200  0.44380400  0.41909800  1
  H  646  1  0.94866300  0.47913200  0.42077700  1
  H  648  1  0.07363700  0.54028100  0.58135600  1
  H  655  1  0.64801500  0.81309200  0.06997700  1
  H  664  1  0.72750400  0.86846100  0.02488200  1
  H  665  1  0.69801700  0.84130600  0.05635700  1
  H  666  1  0.73042200  0.88685100  0.98204000  1
  H  668  1  0.54325800  0.79744600  0.03516700  1
  H  669  1  0.55609700  0.79511800  0.00452200  1
  H  670  1  0.54299200  0.83253000  0.01692400  1
  H  672  1  0.61361600  0.88088100  0.93491800  1
  H  673  1  0.64851600  0.87045700  0.91813800  1
  H  674  1  0.64133400  0.91144300  0.92638900  1
  H  676  1  0.70541400  0.87997100  0.92330300  1
  H  678  1  0.59480800  0.79377600  0.08343900  1
  H  685  1  0.14504600  0.02163200  0.18369000  1
  H  694  1  0.22749800  0.97065400  0.22876500  1
  H  695  1  0.19672500  0.99665800  0.19743000  1
  H  696  1  0.23096300  0.95101300  0.27133000  1
  H  698  1  0.03846900  0.02741200  0.21715000  1
  H  699  1  0.05034200  0.03014600  0.24800200  1
  H  700  1  0.04085800  0.99203200  0.23496700  1
  H  702  1  0.11340700  0.94833600  0.31752100  1
  H  703  1  0.14747500  0.96029000  0.33469300  1
  H  704  1  0.14279800  0.91921000  0.32573000  1
  H  706  1  0.20522100  0.95505800  0.32961400  1
  H  708  1  0.09125300  0.03712700  0.16980100  1
  H  715  1  0.16203200  0.37472500  0.93046000  1
  H  724  1  0.09661400  0.29987100  0.97303800  1
  H  725  1  0.12106600  0.33263600  0.94205700  1
  H  726  1  0.09494700  0.28157800  0.01649100  1
  H  728  1  0.25181500  0.42306200  0.97206600  1
  H  729  1  0.23352700  0.42086300  0.00101000  1
  H  730  1  0.26109700  0.39046300  0.99152300  1
  H  732  1  0.19548500  0.33161800  0.06986900  1
  H  733  1  0.15753800  0.32772000  0.08427700  1
  H  734  1  0.18136100  0.29285100  0.07808400  1
  H  736  1  0.11818000  0.28553400  0.07859600  1
  H  738  1  0.18803100  0.43359000  0.94084300  1
  H  745  1  0.65633400  0.92667500  0.81115200  1
  H  754  1  0.58733800  0.00214500  0.77224300  1
  H  755  1  0.61154300  0.96536400  0.80069700  1
  H  756  1  0.58897400  0.03019600  0.73182000  1
  H  758  1  0.75520500  0.89675000  0.77161700  1
  H  759  1  0.74115400  0.90361200  0.74179100  1
  H  760  1  0.76288000  0.93427300  0.75739300  1
  H  762  1  0.70080200  0.00398500  0.68162400  1
  H  763  1  0.66473800  0.00775400  0.66467400  1
  H  764  1  0.68316900  0.04254700  0.67771600  1
  H  766  1  0.61959800  0.04311500  0.67250600  1
  H  768  1  0.69443800  0.87466000  0.80197600  1
  H  775  1  0.52508100  0.02190700  0.57478600  1
  H  784  1  0.43952800  0.97416500  0.53105700  1
  H  785  1  0.47242500  0.99810500  0.56209700  1
  H  786  1  0.43338500  0.95713700  0.48805400  1
  H  788  1  0.62883200  0.03138900  0.53713500  1
  H  789  1  0.61466400  0.03512500  0.50689700  1
  H  790  1  0.62584100  0.99670200  0.51860200  1
  H  792  1  0.54906300  0.95207200  0.43927100  1
  H  793  1  0.51543800  0.96673100  0.42284700  1
  H  794  1  0.51797400  0.92502700  0.43065900  1
  H  796  1  0.45922300  0.95900000  0.42769000  1
  H  798  1  0.57978100  0.03772500  0.58684200  1
  H  805  1  0.01700500  0.81037500  0.67708200  1
  H  814  1  0.93368000  0.85903300  0.72265700  1
  H  815  1  0.96490900  0.83416300  0.69105500  1
  H  816  1  0.92994100  0.87756600  0.76544900  1
  H  818  1  0.12282900  0.80258300  0.71161500  1
  H  819  1  0.11034900  0.79976700  0.74231400  1
  H  820  1  0.12070400  0.83784900  0.72959600  1
  H  822  1  0.04828200  0.88480800  0.81035800  1
  H  823  1  0.01565500  0.87070400  0.82813400  1
  H  824  1  0.01761400  0.91210100  0.81937900  1
  H  826  1  0.95914800  0.87813700  0.82491000  1
  H  828  1  0.07165500  0.79568700  0.66346600  1
  H  835  1  0.00381900  0.39867600  0.30908300  1
  H  844  1  0.07463200  0.32232800  0.27281600  1
  H  845  1  0.04855900  0.35884900  0.30054600  1
  H  846  1  0.07631100  0.29554200  0.23178300  1
  H  848  1  0.90879100  0.43050500  0.26542100  1
  H  849  1  0.92597100  0.42558300  0.23627500  1
  H  850  1  0.90263000  0.39404700  0.24937900  1
  H  852  1  0.97245900  0.32994300  0.17512000  1
  H  853  1  0.01038100  0.32531000  0.16079300  1
  H  854  1  0.98848000  0.29079900  0.17084100  1
  H  856  1  0.05257800  0.28704100  0.17041500  1
  H  858  1  0.96573700  0.45292200  0.29529000  1
  H  865  1  0.52258300  0.52434700  0.07575600  1
  H  874  1  0.43818300  0.47518600  0.03168600  1
  H  875  1  0.47050800  0.49944600  0.06292900  1
  H  876  1  0.43246800  0.45878500  0.98853100  1
  H  878  1  0.62652800  0.53527500  0.03860100  1
  H  879  1  0.61257300  0.53890900  0.00830300  1
  H  880  1  0.62415700  0.50060700  0.02000300  1
  H  882  1  0.54801500  0.45745100  0.93944300  1
  H  883  1  0.51376600  0.47145900  0.92340600  1
  H  884  1  0.51759200  0.42970400  0.93070900  1
  H  886  1  0.45699900  0.46533500  0.92904100  1
  H  888  1  0.57699600  0.54109400  0.08805800  1
  H  913  1  0.16592700  0.69571900  0.07543700  1
  H  914  1  0.18636000  0.66223900  0.10684200  1
  H  915  1  0.17410100  0.58228600  0.17067300  1
  H  916  1  0.14305800  0.54523000  0.19401500  1
  H  917  1  0.05812800  0.57544300  0.15828400  1
  H  918  1  0.07091500  0.66528400  0.09116700  1
  H  919  1  0.09865900  0.66833700  0.16250100  1
  H  920  1  0.00385800  0.69566500  0.18167900  1
  H  921  1  0.98244000  0.65965100  0.15221800  1
  H  922  1  0.11010300  0.57676300  0.09643900  1
  H  923  1  0.99338900  0.58064000  0.08760700  1
  H  924  1  0.02415600  0.54544600  0.06261800  1
  H  927  1  0.17433500  0.60774500  0.12747300  1
  H  928  1  0.16845700  0.63871700  0.14940200  1
  H  930  1  0.99536100  0.60490700  0.13165300  1
  H  931  1  0.99791700  0.63599500  0.10945500  1
  H  964  1  0.52466200  0.54278200  0.56776300  1
  H  965  1  0.49370600  0.57690500  0.59340200  1
  H  966  1  0.48252500  0.65635900  0.65759800  1
  H  967  1  0.50379700  0.69329200  0.68648100  1
  H  968  1  0.59867900  0.67057400  0.66427900  1
  H  969  1  0.61090100  0.58010000  0.59747300  1
  H  970  1  0.56929200  0.57647500  0.66200500  1
  H  971  1  0.66247800  0.55763000  0.68974500  1
  H  972  1  0.68484100  0.59709500  0.66329800  1
  H  973  1  0.56024400  0.66693500  0.59486600  1
  H  974  1  0.67695800  0.67722000  0.59927300  1
  H  975  1  0.64747100  0.70909900  0.57115300  1
  H  978  1  0.49688300  0.63330300  0.61434800  1
  H  979  1  0.49685000  0.60230000  0.63669900  1
  H  981  1  0.66965800  0.65137300  0.64241900  1
  H  982  1  0.67464200  0.62090800  0.61996900  1
  H  1015  1  0.01860900  0.20916000  0.67719500  1
  H  1016  1  0.99269000  0.17251800  0.65026800  1
  H  1017  1  0.99412700  0.08691710  0.58942500  1
  H  1018  1  0.02131200  0.04889110  0.56426300  1
  H  1019  1  0.11121800  0.07968410  0.59192700  1
  H  1020  1  0.10974400  0.17283700  0.65649200  1
  H  1021  1  0.07589000  0.17185700  0.58862100  1
  H  1022  1  0.17078700  0.19585800  0.56722400  1
  H  1023  1  0.19213200  0.15942400  0.59651900  1
  H  1024  1  0.06350700  0.08288610  0.65604300  1
  H  1025  1  0.18052100  0.08192010  0.66256500  1
  H  1026  1  0.14911600  0.04786710  0.68815600  1
  H  1029  1  0.00089500  0.11469300  0.63200700  1
  H  1030  1  0.00307600  0.14404700  0.60851000  1
  H  1032  1  0.17810500  0.10553200  0.61840800  1
  H  1033  1  0.17736000  0.13745300  0.63999000  1
  H  1066  1  0.67049700  0.06202310  0.18644700  1
  H  1067  1  0.69253100  0.09881510  0.15767200  1
  H  1068  1  0.68254300  0.17596300  0.09122700  1
  H  1069  1  0.65172200  0.20922300  0.06466000  1
  H  1070  1  0.56532800  0.17242800  0.09440000  1
  H  1071  1  0.57627000  0.08394510  0.16233200  1
  H  1072  1  0.61226600  0.08376610  0.09524800  1
  H  1073  1  0.52214800  0.04589510  0.07358100  1
  H  1074  1  0.49509800  0.08221510  0.10014100  1
  H  1075  1  0.61098900  0.17700100  0.15968300  1
  H  1076  1  0.49398900  0.16803900  0.16085700  1
  H  1077  1  0.52011300  0.20642300  0.18634900  1
  H  1080  1  0.67842700  0.15239700  0.13533600  1
  H  1081  1  0.67947400  0.12044500  0.11378600  1
  H  1083  1  0.50201600  0.14027500  0.11835000  1
  H  1084  1  0.50418900  0.11103700  0.14193000  1
  H  1117  1  0.89424500  0.96353900  0.42378100  1
  H  1118  1  0.85164400  0.97951200  0.39740700  1
  H  1119  1  0.76444800  0.95489400  0.33948700  1
  H  1120  1  0.73185400  0.91796400  0.31803700  1
  H  1121  1  0.79418000  0.84191100  0.33824600  1
  H  1122  1  0.88127100  0.86630500  0.40305600  1
  H  1123  1  0.87248000  0.90687900  0.33825000  1
  H  1124  1  0.93465500  0.83088200  0.31766100  1
  H  1125  1  0.90231800  0.79394700  0.33932300  1
  H  1126  1  0.78489800  0.88206200  0.40276700  1
  H  1127  1  0.81577100  0.76915900  0.39765400  1
  H  1128  1  0.77294600  0.78483200  0.42387000  1
  H  1131  1  0.79713900  0.95679300  0.37941600  1
  H  1132  1  0.82561400  0.96249400  0.35567900  1
  H  1134  1  0.84150200  0.78614100  0.35582800  1
  H  1135  1  0.86998500  0.79218600  0.37951200  1
  H  1168  1  0.75747900  0.30935100  0.94021300  1
  H  1169  1  0.79897300  0.28159200  0.91895000  1
  H  1170  1  0.88278300  0.27524800  0.85718300  1
  H  1171  1  0.91634000  0.29819600  0.82693900  1
  H  1172  1  0.87195000  0.38898200  0.83728400  1
  H  1173  1  0.78098000  0.39570900  0.90353500  1
  H  1174  1  0.78622800  0.33869300  0.84688300  1
  H  1175  1  0.73524000  0.41610300  0.81491200  1
  H  1176  1  0.77198600  0.45292900  0.83207600  1
  H  1177  1  0.87662300  0.36676000  0.90822200  1
  H  1178  1  0.86158600  0.47956800  0.88719900  1
  H  1179  1  0.90149700  0.46503400  0.91613800  1
  H  1182  1  0.85526300  0.29200400  0.89804400  1
  H  1183  1  0.82531900  0.28198900  0.87616200  1
  H  1185  1  0.83337000  0.45633600  0.84798200  1
  H  1186  1  0.80468900  0.46004500  0.87180400  1
  H  1219  1  0.42712500  0.82474600  0.83197300  1
  H  1220  1  0.38474100  0.79610300  0.85154200  1
  H  1221  1  0.28453000  0.79432500  0.90250300  1
  H  1222  1  0.24110400  0.82146900  0.92200200  1
  H  1223  1  0.28449800  0.91102400  0.90576900  1
  H  1224  1  0.38124400  0.91277600  0.84905700  1
  H  1225  1  0.37649200  0.87036700  0.91230200  1
  H  1226  1  0.40882700  0.96126000  0.93703700  1
  H  1227  1  0.37216300  0.98757700  0.91043200  1
  H  1228  1  0.29076300  0.87000700  0.84225100  1
  H  1229  1  0.29251500  0.98724800  0.84522800  1
  H  1230  1  0.25673200  0.96058200  0.81814900  1
  H  1233  1  0.32170900  0.80252300  0.86427400  1
  H  1234  1  0.34748400  0.80281600  0.88999600  1
  H  1236  1  0.31620600  0.97852700  0.88853200  1
  H  1237  1  0.34843500  0.97909800  0.86720600  1
  H  1270  1  0.25704600  0.44653300  0.31378800  1
  H  1271  1  0.29773200  0.47460700  0.33569000  1
  H  1272  1  0.38137700  0.48106600  0.39753400  1
  H  1273  1  0.41574700  0.45798400  0.42720000  1
  H  1274  1  0.37257700  0.36677700  0.41611900  1
  H  1275  1  0.28168400  0.35987500  0.34964300  1
  H  1276  1  0.28550200  0.41656700  0.40671300  1
  H  1277  1  0.23500100  0.33838600  0.43805700  1
  H  1278  1  0.27256900  0.30210900  0.42129400  1
  H  1279  1  0.37624300  0.38976600  0.34546100  1
  H  1280  1  0.36276200  0.27671100  0.36641000  1
  H  1281  1  0.40232000  0.29182000  0.33735200  1
  H  1284  1  0.35391300  0.46486700  0.35668700  1
  H  1285  1  0.32375400  0.47370200  0.37868900  1
  H  1287  1  0.33428400  0.29960500  0.40572800  1
  H  1288  1  0.30572700  0.29540900  0.38186600  1
  H  1303  1  0.02224600  0.48248900  0.06924800  1
  H  1312  1  0.93575600  0.44013300  0.02347400  1
  H  1313  1  0.96924300  0.46046600  0.05559700  1
  H  1314  1  0.92890300  0.42722200  0.97964400  1
  H  1316  1  0.12647100  0.49185900  0.03229200  1
  H  1317  1  0.11266700  0.49963500  0.00237800  1
  H  1318  1  0.12202400  0.45957600  0.01162500  1
  H  1320  1  0.04318100  0.42999900  0.92898100  1
  H  1321  1  0.00841000  0.44515400  0.91420200  1
  H  1322  1  0.01257100  0.40289600  0.91949200  1
  H  1324  1  0.95153500  0.43664600  0.91996000  1
  H  1326  1  0.07657100  0.49674700  0.08209100  1
  H  1333  1  0.64423100  0.77045900  0.56947400  1
  H  1342  1  0.72878400  0.81679000  0.52384900  1
  H  1343  1  0.69567200  0.79612500  0.55607000  1
  H  1344  1  0.73672100  0.82639300  0.47960900  1
  H  1346  1  0.54330100  0.74821400  0.53055500  1
  H  1347  1  0.55916300  0.73962900  0.50135400  1
  H  1348  1  0.54571900  0.77923800  0.50865000  1
  H  1350  1  0.62574200  0.80939200  0.42647700  1
  H  1351  1  0.66244200  0.79619000  0.41334500  1
  H  1352  1  0.65439900  0.83826200  0.41649500  1
  H  1354  1  0.71863300  0.80797200  0.42080600  1
  H  1356  1  0.59079100  0.75209100  0.58168200  1
  H  1363  1  0.14642600  0.98529300  0.67876400  1
  H  1372  1  0.23017000  0.93511500  0.72290600  1
  H  1373  1  0.19829700  0.95993600  0.69165600  1
  H  1374  1  0.23520200  0.91796400  0.76596000  1
  H  1376  1  0.04191700  0.99517500  0.71511100  1
  H  1377  1  0.05540200  0.99759200  0.74559500  1
  H  1378  1  0.04374500  0.95981100  0.73301000  1
  H  1380  1  0.11872900  0.91479100  0.81374200  1
  H  1381  1  0.15247900  0.92895200  0.83028300  1
  H  1382  1  0.14926500  0.88726000  0.82262500  1
  H  1384  1  0.20929700  0.92330200  0.82529700  1
  H  1386  1  0.09215200  0.00255809  0.66645400  1
  H  1393  1  0.51683400  0.26984400  0.18380100  1
  H  1402  1  0.43184300  0.31334600  0.23056900  1
  H  1403  1  0.46415400  0.29192400  0.19815800  1
  H  1404  1  0.42680800  0.32810900  0.27419300  1
  H  1406  1  0.62274400  0.26358700  0.21837800  1
  H  1407  1  0.61031800  0.25732500  0.24882000  1
  H  1408  1  0.61890400  0.29693100  0.23815700  1
  H  1410  1  0.54328700  0.32895400  0.32201200  1
  H  1411  1  0.50934700  0.31401200  0.33796100  1
  H  1412  1  0.51276200  0.35608100  0.33162500  1
  H  1414  1  0.45200000  0.32109900  0.33327200  1
  H  1416  1  0.57116700  0.25613600  0.16998500  1
  H  1423  1  0.15683800  0.36508300  0.44115300  1
  H  1432  1  0.09162000  0.28568900  0.47945800  1
  H  1433  1  0.11412300  0.32384300  0.45122200  1
  H  1434  1  0.09417200  0.25777900  0.51998700  1
  H  1436  1  0.25301700  0.40075900  0.48171400  1
  H  1437  1  0.23875200  0.39357000  0.51144200  1
  H  1438  1  0.26230000  0.36385100  0.49630400  1
  H  1440  1  0.20205100  0.29261600  0.57207400  1
  H  1441  1  0.16576300  0.28634400  0.58832500  1
  H  1442  1  0.18717400  0.25289600  0.57588500  1
  H  1444  1  0.12301900  0.24818000  0.57990700  1
  H  1446  1  0.19261500  0.41936700  0.45044400  1
  H  1453  1  0.66212200  0.88940300  0.30758800  1
  H  1462  1  0.59364100  0.96754600  0.27102900  1
  H  1463  1  0.61783400  0.92944800  0.29852200  1
  H  1464  1  0.59482200  0.99677700  0.23095800  1
  H  1466  1  0.76005900  0.85996500  0.26661300  1
  H  1467  1  0.74520900  0.86706000  0.23702000  1
  H  1468  1  0.76743700  0.89755100  0.25241300  1
  H  1470  1  0.70321000  0.96708700  0.17768500  1
  H  1471  1  0.66642700  0.97230600  0.16185400  1
  H  1472  1  0.68685500  0.00629609  0.17437700  1
  H  1474  1  0.62244800  0.00887309  0.17110700  1
  H  1476  1  0.70090600  0.83646900  0.29528900  1
  H  1483  1  0.50713300  0.84231100  0.82316300  1
  H  1492  1  0.57504100  0.76954400  0.78087400  1
  H  1493  1  0.55006400  0.80236500  0.81157300  1
  H  1494  1  0.57574500  0.74900800  0.73806700  1
  H  1496  1  0.41305200  0.88358400  0.78260700  1
  H  1497  1  0.42997800  0.88058300  0.75325300  1
  H  1498  1  0.40457800  0.84939100  0.76452800  1
  H  1500  1  0.46923100  0.78850500  0.68627200  1
  H  1501  1  0.50653100  0.78613400  0.67075300  1
  H  1502  1  0.48562000  0.75022000  0.67914400  1
  H  1504  1  0.54865600  0.74659800  0.67679300  1
  H  1506  1  0.47752800  0.89860300  0.81290800  1
  H  1513  1  0.01957100  0.98458900  0.56850800  1
  H  1522  1  0.93407400  0.93965400  0.52304400  1
  H  1523  1  0.96705300  0.96111700  0.55505700  1
  H  1524  1  0.92761600  0.92616400  0.47924900  1
  H  1526  1  0.12413600  0.99362900  0.53202500  1
  H  1527  1  0.11062200  0.00036809  0.50189800  1
  H  1528  1  0.12017400  0.96068200  0.51190100  1
  H  1530  1  0.04168300  0.93148800  0.42846200  1
  H  1531  1  0.00633100  0.94567900  0.41389200  1
  H  1532  1  0.01174200  0.90355400  0.41909800  1
  H  1534  1  0.94866300  0.93888200  0.42077700  1
  H  1536  1  0.07363700  0.00003109  0.58135600  1
  H  1543  1  0.64801500  0.27284200  0.06997700  1
  H  1552  1  0.72750400  0.32821100  0.02488200  1
  H  1553  1  0.69801700  0.30105600  0.05635700  1
  H  1554  1  0.73042200  0.34660100  0.98204000  1
  H  1556  1  0.54325800  0.25719600  0.03516700  1
  H  1557  1  0.55609700  0.25486800  0.00452200  1
  H  1558  1  0.54299200  0.29228000  0.01692400  1
  H  1560  1  0.61361600  0.34063100  0.93491800  1
  H  1561  1  0.64851600  0.33020700  0.91813800  1
  H  1562  1  0.64133400  0.37119300  0.92638900  1
  H  1564  1  0.70541400  0.33972100  0.92330300  1
  H  1566  1  0.59480800  0.25352600  0.08343900  1
  H  1573  1  0.14504600  0.48138200  0.18369000  1
  H  1582  1  0.22749800  0.43040400  0.22876500  1
  H  1583  1  0.19672500  0.45640800  0.19743000  1
  H  1584  1  0.23096300  0.41076300  0.27133000  1
  H  1586  1  0.03846900  0.48716200  0.21715000  1
  H  1587  1  0.05034200  0.48989600  0.24800200  1
  H  1588  1  0.04085800  0.45178200  0.23496700  1
  H  1590  1  0.11340700  0.40808600  0.31752100  1
  H  1591  1  0.14747500  0.42004000  0.33469300  1
  H  1592  1  0.14279800  0.37896000  0.32573000  1
  H  1594  1  0.20522100  0.41480800  0.32961400  1
  H  1596  1  0.09125300  0.49687700  0.16980100  1
  H  1603  1  0.16203200  0.83447500  0.93046000  1
  H  1612  1  0.09661400  0.75962100  0.97303800  1
  H  1613  1  0.12106600  0.79238600  0.94205700  1
  H  1614  1  0.09494700  0.74132800  0.01649100  1
  H  1616  1  0.25181500  0.88281200  0.97206600  1
  H  1617  1  0.23352700  0.88061300  0.00101000  1
  H  1618  1  0.26109700  0.85021300  0.99152300  1
  H  1620  1  0.19548500  0.79136800  0.06986900  1
  H  1621  1  0.15753800  0.78747000  0.08427700  1
  H  1622  1  0.18136100  0.75260100  0.07808400  1
  H  1624  1  0.11818000  0.74528400  0.07859600  1
  H  1626  1  0.18803100  0.89334000  0.94084300  1
  H  1633  1  0.65633400  0.38642500  0.81115200  1
  H  1642  1  0.58733800  0.46189500  0.77224300  1
  H  1643  1  0.61154300  0.42511400  0.80069700  1
  H  1644  1  0.58897400  0.48994600  0.73182000  1
  H  1646  1  0.75520500  0.35650000  0.77161700  1
  H  1647  1  0.74115400  0.36336200  0.74179100  1
  H  1648  1  0.76288000  0.39402300  0.75739300  1
  H  1650  1  0.70080200  0.46373500  0.68162400  1
  H  1651  1  0.66473800  0.46750400  0.66467400  1
  H  1652  1  0.68316900  0.50229700  0.67771600  1
  H  1654  1  0.61959800  0.50286500  0.67250600  1
  H  1656  1  0.69443800  0.33441000  0.80197600  1
  H  1663  1  0.52508100  0.48165700  0.57478600  1
  H  1672  1  0.43952800  0.43391500  0.53105700  1
  H  1673  1  0.47242500  0.45785500  0.56209700  1
  H  1674  1  0.43338500  0.41688700  0.48805400  1
  H  1676  1  0.62883200  0.49113900  0.53713500  1
  H  1677  1  0.61466400  0.49487500  0.50689700  1
  H  1678  1  0.62584100  0.45645200  0.51860200  1
  H  1680  1  0.54906300  0.41182200  0.43927100  1
  H  1681  1  0.51543800  0.42648100  0.42284700  1
  H  1682  1  0.51797400  0.38477700  0.43065900  1
  H  1684  1  0.45922300  0.41875000  0.42769000  1
  H  1686  1  0.57978100  0.49747500  0.58684200  1
  H  1693  1  0.01700500  0.27012500  0.67708200  1
  H  1702  1  0.93368000  0.31878300  0.72265700  1
  H  1703  1  0.96490900  0.29391300  0.69105500  1
  H  1704  1  0.92994100  0.33731600  0.76544900  1
  H  1706  1  0.12282900  0.26233300  0.71161500  1
  H  1707  1  0.11034900  0.25951700  0.74231400  1
  H  1708  1  0.12070400  0.29759900  0.72959600  1
  H  1710  1  0.04828200  0.34455800  0.81035800  1
  H  1711  1  0.01565500  0.33045400  0.82813400  1
  H  1712  1  0.01761400  0.37185100  0.81937900  1
  H  1714  1  0.95914800  0.33788700  0.82491000  1
  H  1716  1  0.07165500  0.25543700  0.66346600  1
  H  1723  1  0.00381900  0.85842600  0.30908300  1
  H  1732  1  0.07463200  0.78207800  0.27281600  1
  H  1733  1  0.04855900  0.81859900  0.30054600  1
  H  1734  1  0.07631100  0.75529200  0.23178300  1
  H  1736  1  0.90879100  0.89025500  0.26542100  1
  H  1737  1  0.92597100  0.88533300  0.23627500  1
  H  1738  1  0.90263000  0.85379700  0.24937900  1
  H  1740  1  0.97245900  0.78969300  0.17512000  1
  H  1741  1  0.01038100  0.78506000  0.16079300  1
  H  1742  1  0.98848000  0.75054900  0.17084100  1
  H  1744  1  0.05257800  0.74679100  0.17041500  1
  H  1746  1  0.96573700  0.91267200  0.29529000  1
  H  1753  1  0.52258300  0.98409700  0.07575600  1
  H  1762  1  0.43818300  0.93493600  0.03168600  1
  H  1763  1  0.47050800  0.95919600  0.06292900  1
  H  1764  1  0.43246800  0.91853500  0.98853100  1
  H  1766  1  0.62652800  0.99502500  0.03860100  1
  H  1767  1  0.61257300  0.99865900  0.00830300  1
  H  1768  1  0.62415700  0.96035700  0.02000300  1
  H  1770  1  0.54801500  0.91720100  0.93944300  1
  H  1771  1  0.51376600  0.93120900  0.92340600  1
  H  1772  1  0.51759200  0.88945400  0.93070900  1
  H  1774  1  0.45699900  0.92508500  0.92904100  1
  H  1776  1  0.57699600  0.00084409  0.08805800  1
  C  1  1  0.06760100  0.13996200  0.10974800  1
  C  2  1  0.03339600  0.14036800  0.10701200  1
  C  3  1  0.02784700  0.18243800  0.13961100  1
  C  4  1  0.06199100  0.18411700  0.14253600  1
  C  5  1  0.07420600  0.20655800  0.16000700  1
  C  6  1  0.05335300  0.22638800  0.17399400  1
  C  7  1  0.01965700  0.22285300  0.17123500  1
  C  8  1  0.00706500  0.20150300  0.15404000  1
  C  9  1  0.01800700  0.12034000  0.08978400  1
  C  10  1  0.03607900  0.09941700  0.07524500  1
  C  11  1  0.06992600  0.09746300  0.07792400  1
  C  12  1  0.08544500  0.11803300  0.09486800  1
  C  13  1  0.10688900  0.18381800  0.11346700  1
  C  14  1  0.14080500  0.18354500  0.11782100  1
  C  15  1  0.13464000  0.14136600  0.15029400  1
  C  16  1  0.10065200  0.14003500  0.14645500  1
  C  17  1  0.14963400  0.12141500  0.16778500  1
  C  18  1  0.13142300  0.09953100  0.18142200  1
  C  19  1  0.09780200  0.09687200  0.17774700  1
  C  20  1  0.08263700  0.11740300  0.16061400  1
  C  21  1  0.09518100  0.20481600  0.09484000  1
  C  22  1  0.11629700  0.22471000  0.08111600  1
  C  23  1  0.14980400  0.22301700  0.08566900  1
  C  24  1  0.16186400  0.20307200  0.10398900  1
  C  37  1  0.08429100  0.16206300  0.12799900  1
  C  38  1  0.15610500  0.16305400  0.13647500  1
  C  41  1  0.01206300  0.16102100  0.12180600  1
  C  44  1  0.08694000  0.07599100  0.06242100  1
  C  45  1  0.06431900  0.24934700  0.19130800  1
  C  46  1  0.08069800  0.07393700  0.19192600  1
  C  47  1  0.10595700  0.24475400  0.06166100  1
  C  52  1  0.60203300  0.18929400  0.61298400  1
  C  53  1  0.63619700  0.19298800  0.61405000  1
  C  54  1  0.64036200  0.15081500  0.64669300  1
  C  55  1  0.60636700  0.14551100  0.64616300  1
  C  56  1  0.59361200  0.12139900  0.66206700  1
  C  57  1  0.61386100  0.10328700  0.67775600  1
  C  58  1  0.64726000  0.11003900  0.67823200  1
  C  59  1  0.66038300  0.13332900  0.66276600  1
  C  60  1  0.65228100  0.21513800  0.59874600  1
  C  61  1  0.63489100  0.23415700  0.58237700  1
  C  62  1  0.60091000  0.23196800  0.58116400  1
  C  63  1  0.58486500  0.20920900  0.59615600  1
  C  64  1  0.56812800  0.14103200  0.61231900  1
  C  65  1  0.53380900  0.13927100  0.61102600  1
  C  66  1  0.52799600  0.18122400  0.64366000  1
  C  67  1  0.56214600  0.18470500  0.64540200  1
  C  68  1  0.50712600  0.19935800  0.65868300  1
  C  69  1  0.51961700  0.22128100  0.67551100  1
  C  70  1  0.55325800  0.22613000  0.67740600  1
  C  71  1  0.57423500  0.20754700  0.66260600  1
  C  72  1  0.58615200  0.11986700  0.59693000  1
  C  73  1  0.57068500  0.09779400  0.58103800  1
  C  74  1  0.53664900  0.09781900  0.57965100  1
  C  75  1  0.51843400  0.11807900  0.59459700  1
  C  88  1  0.58468600  0.16503900  0.62924400  1
  C  89  1  0.51231200  0.15907300  0.62633200  1
  C  92  1  0.65677500  0.17435800  0.63082600  1
  C  95  1  0.58467600  0.25116900  0.56358500  1
  C  96  1  0.60252900  0.07858400  0.69344200  1
  C  97  1  0.56426800  0.24835500  0.69519100  1
  C  98  1  0.58766200  0.07597500  0.56580100  1
  C  103  1  0.10646500  0.64428700  0.64187600  1
  C  104  1  0.14073600  0.64321200  0.64384500  1
  C  105  1  0.14668100  0.68385400  0.61018300  1
  C  106  1  0.11253000  0.68671200  0.60792100  1
  C  107  1  0.10035500  0.70908700  0.59042600  1
  C  108  1  0.12131100  0.72780400  0.57573100  1
  C  109  1  0.15498400  0.72340000  0.57791600  1
  C  110  1  0.16751600  0.70189100  0.59505800  1
  C  111  1  0.15582600  0.62280700  0.66099500  1
  C  112  1  0.13738700  0.60268600  0.67595800  1
  C  113  1  0.10341600  0.60220300  0.67392200  1
  C  114  1  0.08822100  0.62332200  0.65724800  1
  C  115  1  0.07011200  0.69040700  0.63869000  1
  C  116  1  0.03579300  0.69093400  0.63700200  1
  C  117  1  0.03649900  0.64655400  0.60580500  1
  C  118  1  0.07083300  0.64496400  0.60674400  1
  C  119  1  0.01886200  0.62590600  0.59026300  1
  C  120  1  0.03480800  0.60337800  0.57562300  1
  C  121  1  0.06877900  0.60074100  0.57634800  1
  C  122  1  0.08651500  0.62172700  0.59164500  1
  C  123  1  0.08506900  0.71281400  0.65489000  1
  C  124  1  0.06670100  0.73517900  0.66861500  1
  C  125  1  0.03269700  0.73433200  0.66692600  1
  C  126  1  0.01744900  0.71261500  0.65122400  1
  C  139  1  0.08999600  0.66666667  0.62377200  1
  C  140  1  0.01748300  0.66921700  0.62078400  1
  C  143  1  0.16229200  0.66256800  0.62821400  1
  C  146  1  0.08598900  0.58034000  0.68876400  1
  C  147  1  0.11027200  0.75126600  0.55888600  1
  C  148  1  0.08381500  0.57834100  0.56050100  1
  C  149  1  0.08090300  0.75768300  0.68488100  1
  C  154  1  0.57127600  0.69166500  0.14437900  1
  C  155  1  0.53695900  0.68956500  0.14492800  1
  C  156  1  0.53757400  0.64506600  0.11382100  1
  C  157  1  0.57191200  0.64611100  0.11253500  1
  C  158  1  0.58755800  0.62389100  0.09656600  1
  C  159  1  0.56982200  0.60123000  0.08265400  1
  C  160  1  0.53577800  0.60148900  0.08398300  1
  C  161  1  0.51986600  0.62301700  0.09946200  1
  C  162  1  0.51871400  0.70993200  0.16028300  1
  C  163  1  0.53403800  0.73266000  0.17512800  1
  C  164  1  0.56797500  0.73580800  0.17477700  1
  C  165  1  0.58631200  0.71510700  0.15966800  1
  C  166  1  0.61330200  0.65034100  0.14403900  1
  C  167  1  0.64747100  0.65388600  0.14270600  1
  C  168  1  0.64231000  0.69436100  0.10885100  1
  C  169  1  0.60799300  0.69259400  0.10988300  1
  C  170  1  0.65780600  0.71505400  0.09210400  1
  C  171  1  0.63970600  0.73471900  0.07657800  1
  C  172  1  0.60565100  0.73441900  0.07760000  1
  C  173  1  0.59008400  0.71305600  0.09391500  1
  C  174  1  0.60073900  0.62772300  0.16119800  1
  C  175  1  0.62133100  0.60950800  0.17651500  1
  C  176  1  0.65498700  0.61464200  0.17529500  1
  C  177  1  0.66791300  0.63633500  0.15845000  1
  C  190  1  0.59113000  0.67009500  0.12770800  1
  C  191  1  0.66349200  0.67550800  0.12510900  1
  C  194  1  0.51860100  0.66655300  0.12978600  1
  C  197  1  0.58239500  0.75847900  0.19073100  1
  C  198  1  0.58471000  0.57907700  0.06646500  1
  C  199  1  0.58854600  0.75551900  0.06189500  1
  C  200  1  0.60992100  0.58567600  0.19294000  1
  C  205  1  0.81736600  0.38971100  0.38566100  1
  C  206  1  0.82600900  0.35649800  0.38423300  1
  C  207  1  0.86893000  0.36869500  0.35297100  1
  C  208  1  0.86001300  0.40180200  0.35282900  1
  C  209  1  0.87871300  0.42317800  0.33820800  1
  C  210  1  0.90681400  0.41331300  0.32524100  1
  C  211  1  0.91435100  0.37998600  0.32571900  1
  C  212  1  0.89542400  0.35800500  0.33892000  1
  C  213  1  0.80954000  0.33337700  0.39847500  1
  C  214  1  0.78407500  0.34261100  0.41371200  1
  C  215  1  0.77445600  0.37529900  0.41541100  1
  C  216  1  0.79185400  0.39857400  0.40178300  1
  C  217  1  0.84927000  0.43939800  0.38570800  1
  C  218  1  0.84092700  0.47268100  0.38417700  1
  C  219  1  0.79789600  0.46060400  0.35299600  1
  C  220  1  0.80672400  0.42746800  0.35283800  1
  C  221  1  0.77131800  0.47133100  0.33905600  1
  C  222  1  0.75227000  0.44936500  0.32594400  1
  C  223  1  0.75985300  0.41604500  0.32535200  1
  C  224  1  0.78800400  0.40613100  0.33821300  1
  C  225  1  0.87457300  0.43036000  0.40193900  1
  C  226  1  0.89206000  0.45353600  0.41556100  1
  C  227  1  0.88292600  0.48633800  0.41366800  1
  C  228  1  0.85761800  0.49573900  0.39833300  1
  C  241  1  0.83333600  0.41458600  0.36924900  1
  C  242  1  0.81505500  0.48482100  0.36798800  1
  C  245  1  0.85195800  0.34446200  0.36806600  1
  C  248  1  0.74848000  0.38377000  0.43119400  1
  C  249  1  0.92785600  0.43708700  0.31455100  1
  C  250  1  0.73875600  0.39229800  0.31472000  1
  C  251  1  0.91761000  0.44478200  0.43157600  1
  C  256  1  0.84908600  0.93890900  0.88624700  1
  C  257  1  0.84509100  0.97205700  0.88015600  1
  C  258  1  0.80043000  0.95839000  0.85069900  1
  C  259  1  0.80465200  0.92492000  0.85528100  1
  C  260  1  0.78322800  0.90307300  0.84343300  1
  C  261  1  0.75698600  0.91322800  0.82849600  1
  C  262  1  0.75390800  0.94688200  0.82460100  1
  C  263  1  0.77555700  0.96896700  0.83504300  1
  C  264  1  0.86457700  0.99582600  0.89130800  1
  C  265  1  0.88837800  0.98715400  0.90816400  1
  C  266  1  0.89347800  0.95444900  0.91450200  1
  C  267  1  0.87316500  0.93080800  0.90377500  1
  C  268  1  0.80997800  0.89568500  0.89339300  1
  C  269  1  0.81456600  0.86216500  0.89801800  1
  C  270  1  0.85731800  0.85871200  0.86569700  1
  C  271  1  0.85341500  0.89198300  0.85990600  1
  C  272  1  0.88018900  0.83959600  0.85325700  1
  C  273  1  0.90021500  0.85329100  0.83562400  1
  C  274  1  0.89807300  0.88650500  0.82985800  1
  C  275  1  0.87385200  0.90519000  0.84151100  1
  C  276  1  0.78535500  0.91197700  0.90683400  1
  C  277  1  0.76507000  0.89533200  0.92336400  1
  C  278  1  0.77110700  0.86230300  0.92793300  1
  C  279  1  0.79567000  0.84599600  0.91556100  1
  C  292  1  0.82930200  0.91287500  0.87368900  1
  C  293  1  0.83833000  0.84231300  0.88473200  1
  C  296  1  0.82075100  0.98337200  0.86237800  1
  C  299  1  0.91751600  0.94652100  0.93213800  1
  C  300  1  0.73382400  0.89000400  0.81963700  1
  C  301  1  0.91949800  0.89930800  0.81197800  1
  C  302  1  0.73888400  0.91042900  0.93565700  1
  C  307  1  0.31300000  0.45043900  0.85960200  1
  C  308  1  0.31275300  0.48479700  0.86046900  1
  C  309  1  0.35270100  0.48494700  0.89490800  1
  C  310  1  0.35319900  0.45057700  0.89545300  1
  C  311  1  0.37489200  0.43533000  0.91205800  1
  C  312  1  0.39651300  0.45345200  0.92664700  1
  C  313  1  0.39432800  0.48750900  0.92620200  1
  C  314  1  0.37255500  0.50303900  0.91070500  1
  C  315  1  0.29262600  0.50271300  0.84475600  1
  C  316  1  0.27138300  0.48696700  0.82896800  1
  C  317  1  0.26995300  0.45287800  0.82818700  1
  C  318  1  0.29179400  0.43499400  0.84275400  1
  C  319  1  0.35744400  0.41185600  0.86248900  1
  C  320  1  0.35843300  0.37760200  0.86319200  1
  C  321  1  0.30967600  0.37672700  0.89123200  1
  C  322  1  0.30964900  0.41098800  0.89217100  1
  C  323  1  0.28507400  0.35931700  0.90341200  1
  C  324  1  0.25958000  0.37541700  0.91527900  1
  C  325  1  0.25840600  0.40955000  0.91624200  1
  C  326  1  0.28457600  0.42651500  0.90543500  1
  C  327  1  0.38193100  0.42827700  0.84921700  1
  C  328  1  0.40847600  0.41223400  0.83814000  1
  C  329  1  0.40834500  0.37807200  0.83890600  1
  C  330  1  0.38346500  0.36107800  0.85081600  1
  C  343  1  0.33333333  0.43094800  0.87743700  1
  C  344  1  0.33435400  0.35845300  0.87717400  1
  C  347  1  0.33250100  0.50354300  0.87778900  1
  C  350  1  0.24662900  0.43806700  0.81279700  1
  C  351  1  0.42040500  0.43892600  0.94168800  1
  C  352  1  0.23067800  0.42725500  0.92462500  1
  C  353  1  0.43536900  0.43094800  0.82943900  1
  C  358  1  0.34924600  0.89771500  0.36747600  1
  C  359  1  0.34568400  0.86450000  0.37353000  1
  C  360  1  0.30077600  0.87755200  0.40289500  1
  C  361  1  0.30462100  0.91108700  0.39838400  1
  C  362  1  0.28277800  0.93263900  0.41010100  1
  C  363  1  0.25637100  0.92209400  0.42470400  1
  C  364  1  0.25370500  0.88839500  0.42857300  1
  C  365  1  0.27583600  0.86661900  0.41834400  1
  C  366  1  0.36544300  0.84099900  0.36233300  1
  C  367  1  0.38903800  0.85001000  0.34541900  1
  C  368  1  0.39363100  0.88279500  0.33909100  1
  C  369  1  0.37313100  0.90616800  0.34991400  1
  C  370  1  0.30982800  0.94070200  0.36044400  1
  C  371  1  0.31385700  0.97438700  0.35623000  1
  C  372  1  0.35651200  0.97788900  0.38863800  1
  C  373  1  0.35316800  0.94444500  0.39405900  1
  C  374  1  0.37917000  0.99710900  0.40120900  1
  C  375  1  0.39967800  0.98334500  0.41849700  1
  C  376  1  0.39818200  0.94997400  0.42383700  1
  C  377  1  0.37401900  0.93118500  0.41218800  1
  C  378  1  0.28564000  0.92425000  0.34666000  1
  C  379  1  0.26528600  0.94085200  0.33014100  1
  C  380  1  0.27072000  0.97409200  0.32604600  1
  C  381  1  0.29479900  0.99059000  0.33880200  1
  C  394  1  0.32924600  0.92349500  0.38011000  1
  C  395  1  0.33718100  0.99437400  0.36984100  1
  C  398  1  0.32150600  0.85284600  0.39129800  1
  C  401  1  0.41726000  0.89107300  0.32128000  1
  C  402  1  0.23260400  0.94497300  0.43314700  1
  C  403  1  0.42035200  0.93714000  0.44120700  1
  C  404  1  0.23970300  0.92552100  0.31730500  1
  C  409  1  0.06466900  0.02604200  0.04788300  1
  C  410  1  0.07754800  0.01779400  0.02475100  1
  C  412  1  0.02613400  0.99652100  0.01163500  1
  C  413  1  0.01249000  0.00280600  0.03480000  1
  C  414  1  0.03221300  0.01708400  0.05274000  1
  C  416  1  0.00639500  0.98426900  0.99276000  1
  C  417  1  0.96636800  0.96546600  0.95345700  1
  C  419  1  0.00021500  0.97060000  0.95056700  1
  C  420  1  0.95337900  0.96917500  0.97710800  1
  C  421  1  0.97296900  0.97859000  0.99689400  1
  C  422  1  0.95986400  0.98408300  0.02021000  1
  C  423  1  0.97949800  0.99599100  0.03904300  1
  C  427  1  0.11161300  0.02281300  0.01748300  1
  C  431  1  0.01705900  0.96718100  0.92698500  1
  C  439  1  0.60346800  0.30155000  0.54727100  1
  C  440  1  0.59101600  0.30676700  0.52351800  1
  C  442  1  0.64085500  0.33176800  0.51066800  1
  C  443  1  0.65386100  0.32861500  0.53439200  1
  C  444  1  0.63465100  0.31399500  0.55248800  1
  C  446  1  0.66032900  0.34427500  0.49173000  1
  C  447  1  0.70052100  0.36303300  0.45255500  1
  C  449  1  0.66739700  0.35482300  0.44912000  1
  C  450  1  0.71259600  0.36267800  0.47663100  1
  C  451  1  0.69290400  0.35327900  0.49636800  1
  C  452  1  0.70528600  0.35088100  0.52019500  1
  C  453  1  0.68587200  0.33877100  0.53908400  1
  C  457  1  0.55792600  0.29804100  0.51571800  1
  C  461  1  0.65158900  0.35482300  0.42500400  1
  C  469  1  0.10352400  0.52749600  0.69965300  1
  C  470  1  0.08960800  0.51686800  0.72186900  1
  C  472  1  0.13969200  0.49179700  0.73398700  1
  C  473  1  0.15435100  0.50069900  0.71166700  1
  C  474  1  0.13574200  0.51797600  0.69457200  1
  C  476  1  0.15840900  0.47665000  0.75223800  1
  C  477  1  0.19674200  0.45335000  0.79114200  1
  C  479  1  0.16272000  0.45799800  0.79345300  1
  C  480  1  0.21063800  0.45942100  0.76804700  1
  C  481  1  0.19189700  0.47098700  0.74845200  1
  C  482  1  0.20599700  0.47904800  0.72589600  1
  C  483  1  0.18731200  0.49359300  0.70757300  1
  C  487  1  0.05575100  0.52302900  0.72918400  1
  C  491  1  0.14478100  0.45214000  0.81631200  1
  C  499  1  0.56022500  0.80863000  0.20415800  1
  C  500  1  0.57404400  0.81818300  0.22668900  1
  C  502  1  0.52293200  0.83931300  0.24048600  1
  C  503  1  0.50833400  0.83168800  0.21787900  1
  C  504  1  0.52744000  0.81679700  0.19985500  1
  C  506  1  0.50388900  0.85214200  0.25952300  1
  C  507  1  0.46542200  0.87204400  0.29932700  1
  C  509  1  0.49943600  0.86749000  0.30149600  1
  C  510  1  0.45140900  0.86714700  0.27613100  1
  C  511  1  0.47022000  0.85714800  0.25609900  1
  C  512  1  0.45613500  0.85037100  0.23330100  1
  C  513  1  0.47506900  0.83781500  0.21430700  1
  C  517  1  0.60845300  0.81381800  0.23325000  1
  C  521  1  0.51722600  0.87205400  0.32457100  1
  C  529  1  0.19811700  0.91519300  0.46256600  1
  C  530  1  0.21375600  0.90706300  0.48470800  1
  C  532  1  0.17193700  0.86859400  0.49438400  1
  C  533  1  0.15561100  0.87545900  0.47231500  1
  C  534  1  0.16889000  0.89914100  0.45674000  1
  C  536  1  0.15835900  0.84653100  0.51113500  1
  C  537  1  0.13164300  0.80362400  0.54582300  1
  C  539  1  0.16088700  0.82094900  0.55025400  1
  C  540  1  0.11582000  0.80918200  0.52337400  1
  C  541  1  0.12876500  0.83060900  0.50586500  1
  C  542  1  0.11308300  0.83701400  0.48358500  1
  C  543  1  0.12629000  0.85936500  0.46702400  1
  C  547  1  0.24361700  0.92249300  0.49390500  1
  C  551  1  0.18005900  0.81822900  0.57289000  1
  C  559  1  0.70390900  0.42264100  0.28609700  1
  C  560  1  0.71918500  0.43228900  0.26416600  1
  C  562  1  0.67563900  0.46909800  0.25522500  1
  C  563  1  0.65969300  0.46080500  0.27717200  1
  C  564  1  0.67396900  0.43710100  0.29222400  1
  C  566  1  0.66100000  0.49096200  0.23884500  1
  C  567  1  0.63221500  0.53348400  0.20486000  1
  C  569  1  0.66204300  0.51740500  0.20001300  1
  C  570  1  0.61684900  0.52679100  0.22731400  1
  C  571  1  0.63079400  0.50546600  0.24445500  1
  C  572  1  0.61552800  0.49775900  0.26666500  1
  C  573  1  0.62972200  0.47544200  0.28278900  1
  C  577  1  0.74967300  0.41849100  0.25466900  1
  C  581  1  0.68069600  0.52118500  0.17722100  1
  C  589  1  0.46662500  0.39505400  0.80173100  1
  C  590  1  0.45195600  0.38961400  0.77874500  1
  C  592  1  0.49410600  0.35223400  0.76749500  1
  C  593  1  0.50922400  0.35604500  0.79043600  1
  C  594  1  0.49519900  0.37765800  0.80726200  1
  C  596  1  0.50911300  0.33326100  0.74934400  1
  C  597  1  0.53928000  0.29734500  0.71177100  1
  C  599  1  0.50962800  0.31434600  0.70808100  1
  C  600  1  0.55373300  0.29984200  0.73504400  1
  C  601  1  0.53900600  0.31757600  0.75401300  1
  C  602  1  0.55337900  0.32074600  0.77715700  1
  C  603  1  0.53868200  0.33990800  0.79518200  1
  C  607  1  0.42330400  0.40708500  0.76942400  1
  C  611  1  0.49173200  0.31501400  0.68477200  1
  C  619  1  0.06216700  0.52781500  0.54731100  1
  C  620  1  0.07541300  0.51894200  0.52442800  1
  C  622  1  0.02430500  0.49699500  0.51136500  1
  C  623  1  0.01040300  0.50363000  0.53439200  1
  C  624  1  0.02977500  0.51868300  0.55218500  1
  C  626  1  0.00483500  0.48432700  0.49250800  1
  C  627  1  0.96524800  0.46512400  0.45319300  1
  C  629  1  0.99895700  0.47082000  0.45027500  1
  C  630  1  0.95209400  0.46847600  0.47680800  1
  C  631  1  0.97146900  0.47823900  0.49660400  1
  C  632  1  0.95815300  0.48386300  0.51983400  1
  C  633  1  0.97747700  0.49646700  0.53859200  1
  C  637  1  0.10952100  0.52401100  0.51728900  1
  C  641  1  0.01564200  0.46793900  0.42659900  1
  C  649  1  0.60479400  0.80857500  0.04968800  1
  C  650  1  0.58986200  0.81807500  0.02755400  1
  C  652  1  0.63819100  0.84581000  0.01465000  1
  C  653  1  0.65382300  0.83791900  0.03681800  1
  C  654  1  0.63662100  0.81973700  0.05421400  1
  C  656  1  0.65550700  0.86222500  0.99622200  1
  C  657  1  0.69127500  0.88916600  0.95724100  1
  C  659  1  0.65777400  0.88166000  0.95509400  1
  C  660  1  0.70600400  0.88370500  0.98013300  1
  C  661  1  0.68855300  0.87030200  0.99974100  1
  C  662  1  0.70360900  0.86307000  0.02210800  1
  C  663  1  0.68632200  0.84716000  0.04056200  1
  C  667  1  0.55615500  0.81021800  0.02078800  1
  C  671  1  0.63925600  0.88634300  0.93235400  1
  C  679  1  0.10113200  0.02214900  0.20341600  1
  C  680  1  0.08652600  0.01077700  0.22518100  1
  C  682  1  0.13664000  0.98666500  0.23836700  1
  C  683  1  0.15205400  0.99632900  0.21651500  1
  C  684  1  0.13385500  0.01364100  0.19917900  1
  C  686  1  0.15477300  0.97105800  0.25675600  1
  C  687  1  0.19165000  0.94542800  0.29565400  1
  C  689  1  0.15772600  0.95075400  0.29762800  1
  C  690  1  0.20635300  0.95252000  0.27300700  1
  C  691  1  0.18835900  0.96537100  0.25346100  1
  C  692  1  0.20325100  0.97434600  0.23139000  1
  C  693  1  0.18521700  0.98960200  0.21302500  1
  C  697  1  0.05210400  0.01549700  0.23156100  1
  C  701  1  0.13929500  0.94431500  0.32016200  1
  C  709  1  0.20075100  0.39052900  0.95251200  1
  C  710  1  0.21457100  0.38706400  0.97600600  1
  C  712  1  0.17409600  0.34788100  0.98724100  1
  C  713  1  0.15995200  0.34961100  0.96381500  1
  C  714  1  0.17349500  0.37124100  0.94676100  1
  C  716  1  0.15928700  0.32904600  0.00556400  1
  C  717  1  0.12925300  0.29373700  0.04353000  1
  C  719  1  0.15754100  0.31284800  0.04744700  1
  C  720  1  0.11607300  0.29372700  0.01975300  1
  C  721  1  0.13068500  0.31125300  0.00060300  1
  C  722  1  0.11737800  0.31230800  0.97699000  1
  C  723  1  0.13176600  0.33145800  0.95880500  1
  C  727  1  0.24175600  0.40657400  0.98552100  1
  C  731  1  0.17391100  0.31644100  0.07123600  1
  C  739  1  0.69864400  0.91941300  0.79030100  1
  C  740  1  0.71433600  0.92871500  0.76843400  1
  C  742  1  0.67067400  0.96495700  0.75841200  1
  C  743  1  0.65423200  0.95687100  0.78020000  1
  C  744  1  0.66848200  0.93383700  0.79584200  1
  C  746  1  0.65617700  0.98632400  0.74156600  1
  C  747  1  0.62753700  0.02773400  0.70661600  1
  C  749  1  0.65809800  0.01257900  0.70265900  1
  C  750  1  0.61149700  0.02075400  0.72875700  1
  C  751  1  0.62542500  0.00016000  0.74640900  1
  C  752  1  0.60959500  0.99254500  0.76841000  1
  C  753  1  0.62381100  0.97101600  0.78511000  1
  C  757  1  0.74511000  0.91493200  0.75945800  1
  C  761  1  0.67782400  0.01696900  0.68043700  1
  C  769  1  0.56745300  0.02417400  0.55329800  1
  C  770  1  0.58060400  0.01405800  0.53068600  1
  C  772  1  0.52991000  0.98982500  0.51890600  1
  C  773  1  0.51590700  0.99843500  0.54152200  1
  C  774  1  0.53521700  0.01491600  0.55863200  1
  C  776  1  0.51060800  0.97499900  0.50082900  1
  C  777  1  0.47123400  0.95167100  0.46240200  1
  C  779  1  0.50529400  0.95597800  0.45976700  1
  C  780  1  0.45789200  0.95813400  0.48563200  1
  C  781  1  0.47714800  0.96963200  0.50498900  1
  C  782  1  0.46366000  0.97764900  0.52776700  1
  C  783  1  0.48296000  0.99164200  0.54597800  1
  C  787  1  0.61440300  0.01977100  0.52302600  1
  C  791  1  0.52293900  0.94962400  0.43684700  1
  C  799  1  0.06057000  0.80918700  0.69722400  1
  C  800  1  0.07491400  0.81996400  0.71924600  1
  C  802  1  0.02474700  0.84416400  0.73220300  1
  C  803  1  0.00951200  0.83471800  0.71023400  1
  C  804  1  0.02795400  0.81787900  0.69279900  1
  C  806  1  0.00642700  0.85952900  0.75058300  1
  C  807  1  0.96922300  0.88413100  0.78971500  1
  C  809  1  0.00341300  0.88004600  0.79136000  1
  C  810  1  0.95457000  0.87678500  0.76708200  1
  C  811  1  0.97274200  0.86461800  0.74738600  1
  C  812  1  0.95798400  0.85570100  0.72525100  1
  C  813  1  0.97629400  0.84114700  0.70671900  1
  C  817  1  0.10913500  0.81460900  0.72594000  1
  C  821  1  0.02231000  0.88729600  0.81355700  1
  C  829  1  0.96353500  0.40695900  0.28628600  1
  C  830  1  0.94986300  0.39863200  0.26346800  1
  C  832  1  0.99391900  0.36219600  0.25507800  1
  C  833  1  0.00826000  0.36912100  0.27789900  1
  C  834  1  0.99297100  0.39202200  0.29311100  1
  C  836  1  0.00972500  0.34131100  0.23857500  1
  C  837  1  0.04090900  0.30078800  0.20430900  1
  C  839  1  0.01159800  0.31748400  0.19880700  1
  C  840  1  0.05458500  0.30603600  0.22759400  1
  C  841  1  0.03945000  0.32634300  0.24488300  1
  C  842  1  0.05309100  0.33267300  0.26792400  1
  C  843  1  0.03779000  0.35407300  0.28419000  1
  C  847  1  0.92014900  0.41313900  0.25320900  1
  C  851  1  0.99477300  0.31576100  0.17508300  1
  C  859  1  0.56506900  0.52720500  0.05444000  1
  C  860  1  0.57859100  0.51731800  0.03189300  1
  C  862  1  0.52833800  0.49248400  0.01985400  1
  C  863  1  0.51406400  0.50070400  0.04246000  1
  C  864  1  0.53296400  0.51746100  0.05966400  1
  C  866  1  0.50936900  0.47763000  0.00161000  1
  C  867  1  0.47050600  0.45467600  0.96290300  1
  C  869  1  0.50442800  0.45965800  0.96026200  1
  C  870  1  0.45698200  0.46021000  0.98619600  1
  C  871  1  0.47599900  0.47163300  0.00568900  1
  C  872  1  0.46226700  0.47911800  0.02848400  1
  C  873  1  0.48121600  0.49332600  0.04679900  1
  C  877  1  0.61237500  0.52350800  0.02440600  1
  C  881  1  0.52194500  0.45429800  0.93715400  1
  C  889  1  0.06760100  0.59971200  0.10974800  1
  C  890  1  0.03339600  0.60011800  0.10701200  1
  C  891  1  0.02784700  0.64218800  0.13961100  1
  C  892  1  0.06199100  0.64386700  0.14253600  1
  C  893  1  0.07420600  0.66630800  0.16000700  1
  C  894  1  0.05335300  0.68613800  0.17399400  1
  C  895  1  0.01965700  0.68260300  0.17123500  1
  C  896  1  0.00706500  0.66125300  0.15404000  1
  C  897  1  0.01800700  0.58009000  0.08978400  1
  C  898  1  0.03607900  0.55916700  0.07524500  1
  C  899  1  0.06992600  0.55721300  0.07792400  1
  C  900  1  0.08544500  0.57778300  0.09486800  1
  C  901  1  0.10688900  0.64356800  0.11346700  1
  C  902  1  0.14080500  0.64329500  0.11782100  1
  C  903  1  0.13464000  0.60111600  0.15029400  1
  C  904  1  0.10065200  0.59978500  0.14645500  1
  C  905  1  0.14963400  0.58116500  0.16778500  1
  C  906  1  0.13142300  0.55928100  0.18142200  1
  C  907  1  0.09780200  0.55662200  0.17774700  1
  C  908  1  0.08263700  0.57715300  0.16061400  1
  C  909  1  0.09518100  0.66456600  0.09484000  1
  C  910  1  0.11629700  0.68446000  0.08111600  1
  C  911  1  0.14980400  0.68276700  0.08566900  1
  C  912  1  0.16186400  0.66282200  0.10398900  1
  C  925  1  0.08429100  0.62181300  0.12799900  1
  C  926  1  0.15610500  0.62280400  0.13647500  1
  C  929  1  0.01206300  0.62077100  0.12180600  1
  C  932  1  0.08694000  0.53574100  0.06242100  1
  C  933  1  0.06431900  0.70909700  0.19130800  1
  C  934  1  0.08069800  0.53368700  0.19192600  1
  C  935  1  0.10595700  0.70450400  0.06166100  1
  C  940  1  0.60203300  0.64904400  0.61298400  1
  C  941  1  0.63619700  0.65273800  0.61405000  1
  C  942  1  0.64036200  0.61056500  0.64669300  1
  C  943  1  0.60636700  0.60526100  0.64616300  1
  C  944  1  0.59361200  0.58114900  0.66206700  1
  C  945  1  0.61386100  0.56303700  0.67775600  1
  C  946  1  0.64726000  0.56978900  0.67823200  1
  C  947  1  0.66038300  0.59307900  0.66276600  1
  C  948  1  0.65228100  0.67488800  0.59874600  1
  C  949  1  0.63489100  0.69390700  0.58237700  1
  C  950  1  0.60091000  0.69171800  0.58116400  1
  C  951  1  0.58486500  0.66895900  0.59615600  1
  C  952  1  0.56812800  0.60078200  0.61231900  1
  C  953  1  0.53380900  0.59902100  0.61102600  1
  C  954  1  0.52799600  0.64097400  0.64366000  1
  C  955  1  0.56214600  0.64445500  0.64540200  1
  C  956  1  0.50712600  0.65910800  0.65868300  1
  C  957  1  0.51961700  0.68103100  0.67551100  1
  C  958  1  0.55325800  0.68588000  0.67740600  1
  C  959  1  0.57423500  0.66729700  0.66260600  1
  C  960  1  0.58615200  0.57961700  0.59693000  1
  C  961  1  0.57068500  0.55754400  0.58103800  1
  C  962  1  0.53664900  0.55756900  0.57965100  1
  C  963  1  0.51843400  0.57782900  0.59459700  1
  C  976  1  0.58468600  0.62478900  0.62924400  1
  C  977  1  0.51231200  0.61882300  0.62633200  1
  C  980  1  0.65677500  0.63410800  0.63082600  1
  C  983  1  0.58467600  0.71091900  0.56358500  1
  C  984  1  0.60252900  0.53833400  0.69344200  1
  C  985  1  0.56426800  0.70810500  0.69519100  1
  C  986  1  0.58766200  0.53572500  0.56580100  1
  C  991  1  0.10646500  0.10403700  0.64187600  1
  C  992  1  0.14073600  0.10296200  0.64384500  1
  C  993  1  0.14668100  0.14360400  0.61018300  1
  C  994  1  0.11253000  0.14646200  0.60792100  1
  C  995  1  0.10035500  0.16883700  0.59042600  1
  C  996  1  0.12131100  0.18755400  0.57573100  1
  C  997  1  0.15498400  0.18315000  0.57791600  1
  C  998  1  0.16751600  0.16164100  0.59505800  1
  C  999  1  0.15582600  0.08255710  0.66099500  1
  C  1000  1  0.13738700  0.06243610  0.67595800  1
  C  1001  1  0.10341600  0.06195310  0.67392200  1
  C  1002  1  0.08822100  0.08307210  0.65724800  1
  C  1003  1  0.07011200  0.15015700  0.63869000  1
  C  1004  1  0.03579300  0.15068400  0.63700200  1
  C  1005  1  0.03649900  0.10630400  0.60580500  1
  C  1006  1  0.07083300  0.10471400  0.60674400  1
  C  1007  1  0.01886200  0.08565610  0.59026300  1
  C  1008  1  0.03480800  0.06312810  0.57562300  1
  C  1009  1  0.06877900  0.06049110  0.57634800  1
  C  1010  1  0.08651500  0.08147710  0.59164500  1
  C  1011  1  0.08506900  0.17256400  0.65489000  1
  C  1012  1  0.06670100  0.19492900  0.66861500  1
  C  1013  1  0.03269700  0.19408200  0.66692600  1
  C  1014  1  0.01744900  0.17236500  0.65122400  1
  C  1027  1  0.08999600  0.12642200  0.62377200  1
  C  1028  1  0.01748300  0.12896700  0.62078400  1
  C  1031  1  0.16229200  0.12231800  0.62821400  1
  C  1034  1  0.08598900  0.04009010  0.68876400  1
  C  1035  1  0.11027200  0.21101600  0.55888600  1
  C  1036  1  0.08381500  0.03809110  0.56050100  1
  C  1037  1  0.08090300  0.21743300  0.68488100  1
  C  1042  1  0.57127600  0.15141500  0.14437900  1
  C  1043  1  0.53695900  0.14931500  0.14492800  1
  C  1044  1  0.53757400  0.10481600  0.11382100  1
  C  1045  1  0.57191200  0.10586100  0.11253500  1
  C  1046  1  0.58755800  0.08364110  0.09656600  1
  C  1047  1  0.56982200  0.06098010  0.08265400  1
  C  1048  1  0.53577800  0.06123910  0.08398300  1
  C  1049  1  0.51986600  0.08276710  0.09946200  1
  C  1050  1  0.51871400  0.16968200  0.16028300  1
  C  1051  1  0.53403800  0.19241000  0.17512800  1
  C  1052  1  0.56797500  0.19555800  0.17477700  1
  C  1053  1  0.58631200  0.17485700  0.15966800  1
  C  1054  1  0.61330200  0.11009100  0.14403900  1
  C  1055  1  0.64747100  0.11363600  0.14270600  1
  C  1056  1  0.64231000  0.15411100  0.10885100  1
  C  1057  1  0.60799300  0.15234400  0.10988300  1
  C  1058  1  0.65780600  0.17480400  0.09210400  1
  C  1059  1  0.63970600  0.19446900  0.07657800  1
  C  1060  1  0.60565100  0.19416900  0.07760000  1
  C  1061  1  0.59008400  0.17280600  0.09391500  1
  C  1062  1  0.60073900  0.08747310  0.16119800  1
  C  1063  1  0.62133100  0.06925810  0.17651500  1
  C  1064  1  0.65498700  0.07439210  0.17529500  1
  C  1065  1  0.66791300  0.09608510  0.15845000  1
  C  1078  1  0.59113000  0.12984500  0.12770800  1
  C  1079  1  0.66349200  0.13525800  0.12510900  1
  C  1082  1  0.51860100  0.12630300  0.12978600  1
  C  1085  1  0.58239500  0.21822900  0.19073100  1
  C  1086  1  0.58471000  0.03882710  0.06646500  1
  C  1087  1  0.58854600  0.21526900  0.06189500  1
  C  1088  1  0.60992100  0.04542610  0.19294000  1
  C  1093  1  0.81736600  0.84946100  0.38566100  1
  C  1094  1  0.82600900  0.81624800  0.38423300  1
  C  1095  1  0.86893000  0.82844500  0.35297100  1
  C  1096  1  0.86001300  0.86155200  0.35282900  1
  C  1097  1  0.87871300  0.88292800  0.33820800  1
  C  1098  1  0.90681400  0.87306300  0.32524100  1
  C  1099  1  0.91435100  0.83973600  0.32571900  1
  C  1100  1  0.89542400  0.81775500  0.33892000  1
  C  1101  1  0.80954000  0.79312700  0.39847500  1
  C  1102  1  0.78407500  0.80236100  0.41371200  1
  C  1103  1  0.77445600  0.83504900  0.41541100  1
  C  1104  1  0.79185400  0.85832400  0.40178300  1
  C  1105  1  0.84927000  0.89914800  0.38570800  1
  C  1106  1  0.84092700  0.93243100  0.38417700  1
  C  1107  1  0.79789600  0.92035400  0.35299600  1
  C  1108  1  0.80672400  0.88721800  0.35283800  1
  C  1109  1  0.77131800  0.93108100  0.33905600  1
  C  1110  1  0.75227000  0.90911500  0.32594400  1
  C  1111  1  0.75985300  0.87579500  0.32535200  1
  C  1112  1  0.78800400  0.86588100  0.33821300  1
  C  1113  1  0.87457300  0.89011000  0.40193900  1
  C  1114  1  0.89206000  0.91328600  0.41556100  1
  C  1115  1  0.88292600  0.94608800  0.41366800  1
  C  1116  1  0.85761800  0.95548900  0.39833300  1
  C  1129  1  0.83333600  0.87433600  0.36924900  1
  C  1130  1  0.81505500  0.94457100  0.36798800  1
  C  1133  1  0.85195800  0.80421200  0.36806600  1
  C  1136  1  0.74848000  0.84352000  0.43119400  1
  C  1137  1  0.92785600  0.89683700  0.31455100  1
  C  1138  1  0.73875600  0.85204800  0.31472000  1
  C  1139  1  0.91761000  0.90453200  0.43157600  1
  C  1144  1  0.84908600  0.39865900  0.88624700  1
  C  1145  1  0.84509100  0.43180700  0.88015600  1
  C  1146  1  0.80043000  0.41814000  0.85069900  1
  C  1147  1  0.80465200  0.38467000  0.85528100  1
  C  1148  1  0.78322800  0.36282300  0.84343300  1
  C  1149  1  0.75698600  0.37297800  0.82849600  1
  C  1150  1  0.75390800  0.40663200  0.82460100  1
  C  1151  1  0.77555700  0.42871700  0.83504300  1
  C  1152  1  0.86457700  0.45557600  0.89130800  1
  C  1153  1  0.88837800  0.44690400  0.90816400  1
  C  1154  1  0.89347800  0.41419900  0.91450200  1
  C  1155  1  0.87316500  0.39055800  0.90377500  1
  C  1156  1  0.80997800  0.35543500  0.89339300  1
  C  1157  1  0.81456600  0.32191500  0.89801800  1
  C  1158  1  0.85731800  0.31846200  0.86569700  1
  C  1159  1  0.85341500  0.35173300  0.85990600  1
  C  1160  1  0.88018900  0.29934600  0.85325700  1
  C  1161  1  0.90021500  0.31304100  0.83562400  1
  C  1162  1  0.89807300  0.34625500  0.82985800  1
  C  1163  1  0.87385200  0.36494000  0.84151100  1
  C  1164  1  0.78535500  0.37172700  0.90683400  1
  C  1165  1  0.76507000  0.35508200  0.92336400  1
  C  1166  1  0.77110700  0.32205300  0.92793300  1
  C  1167  1  0.79567000  0.30574600  0.91556100  1
  C  1180  1  0.82930200  0.37262500  0.87368900  1
  C  1181  1  0.83833000  0.30206300  0.88473200  1
  C  1184  1  0.82075100  0.44312200  0.86237800  1
  C  1187  1  0.91751600  0.40627100  0.93213800  1
  C  1188  1  0.73382400  0.34975400  0.81963700  1
  C  1189  1  0.91949800  0.35905800  0.81197800  1
  C  1190  1  0.73888400  0.37017900  0.93565700  1
  C  1195  1  0.31300000  0.91018900  0.85960200  1
  C  1196  1  0.31275300  0.94454700  0.86046900  1
  C  1197  1  0.35270100  0.94469700  0.89490800  1
  C  1198  1  0.35319900  0.91032700  0.89545300  1
  C  1199  1  0.37489200  0.89508000  0.91205800  1
  C  1200  1  0.39651300  0.91320200  0.92664700  1
  C  1201  1  0.39432800  0.94725900  0.92620200  1
  C  1202  1  0.37255500  0.96278900  0.91070500  1
  C  1203  1  0.29262600  0.96246300  0.84475600  1
  C  1204  1  0.27138300  0.94671700  0.82896800  1
  C  1205  1  0.26995300  0.91262800  0.82818700  1
  C  1206  1  0.29179400  0.89474400  0.84275400  1
  C  1207  1  0.35744400  0.87160600  0.86248900  1
  C  1208  1  0.35843300  0.83735200  0.86319200  1
  C  1209  1  0.30967600  0.83647700  0.89123200  1
  C  1210  1  0.30964900  0.87073800  0.89217100  1
  C  1211  1  0.28507400  0.81906700  0.90341200  1
  C  1212  1  0.25958000  0.83516700  0.91527900  1
  C  1213  1  0.25840600  0.86930000  0.91624200  1
  C  1214  1  0.28457600  0.88626500  0.90543500  1
  C  1215  1  0.38193100  0.88802700  0.84921700  1
  C  1216  1  0.40847600  0.87198400  0.83814000  1
  C  1217  1  0.40834500  0.83782200  0.83890600  1
  C  1218  1  0.38346500  0.82082800  0.85081600  1
  C  1231  1  0.33333333  0.89069800  0.87743700  1
  C  1232  1  0.33435400  0.81820300  0.87717400  1
  C  1235  1  0.33250100  0.96329300  0.87778900  1
  C  1238  1  0.24662900  0.89781700  0.81279700  1
  C  1239  1  0.42040500  0.89867600  0.94168800  1
  C  1240  1  0.23067800  0.88700500  0.92462500  1
  C  1241  1  0.43536900  0.89069800  0.82943900  1
  C  1246  1  0.34924600  0.35746500  0.36747600  1
  C  1247  1  0.34568400  0.32425000  0.37353000  1
  C  1248  1  0.30077600  0.33730200  0.40289500  1
  C  1249  1  0.30462100  0.37083700  0.39838400  1
  C  1250  1  0.28277800  0.39238900  0.41010100  1
  C  1251  1  0.25637100  0.38184400  0.42470400  1
  C  1252  1  0.25370500  0.34814500  0.42857300  1
  C  1253  1  0.27583600  0.32636900  0.41834400  1
  C  1254  1  0.36544300  0.30074900  0.36233300  1
  C  1255  1  0.38903800  0.30976000  0.34541900  1
  C  1256  1  0.39363100  0.34254500  0.33909100  1
  C  1257  1  0.37313100  0.36591800  0.34991400  1
  C  1258  1  0.30982800  0.40045200  0.36044400  1
  C  1259  1  0.31385700  0.43413700  0.35623000  1
  C  1260  1  0.35651200  0.43763900  0.38863800  1
  C  1261  1  0.35316800  0.40419500  0.39405900  1
  C  1262  1  0.37917000  0.45685900  0.40120900  1
  C  1263  1  0.39967800  0.44309500  0.41849700  1
  C  1264  1  0.39818200  0.40972400  0.42383700  1
  C  1265  1  0.37401900  0.39093500  0.41218800  1
  C  1266  1  0.28564000  0.38400000  0.34666000  1
  C  1267  1  0.26528600  0.40060200  0.33014100  1
  C  1268  1  0.27072000  0.43384200  0.32604600  1
  C  1269  1  0.29479900  0.45034000  0.33880200  1
  C  1282  1  0.32924600  0.38324500  0.38011000  1
  C  1283  1  0.33718100  0.45412400  0.36984100  1
  C  1286  1  0.32150600  0.31259600  0.39129800  1
  C  1289  1  0.41726000  0.35082300  0.32128000  1
  C  1290  1  0.23260400  0.40472300  0.43314700  1
  C  1291  1  0.42035200  0.39689000  0.44120700  1
  C  1292  1  0.23970300  0.38527100  0.31730500  1
  C  1297  1  0.06466900  0.48579200  0.04788300  1
  C  1298  1  0.07754800  0.47754400  0.02475100  1
  C  1300  1  0.02613400  0.45627100  0.01163500  1
  C  1301  1  0.01249000  0.46255600  0.03480000  1
  C  1302  1  0.03221300  0.47683400  0.05274000  1
  C  1304  1  0.00639500  0.44401900  0.99276000  1
  C  1305  1  0.96636800  0.42521600  0.95345700  1
  C  1307  1  0.00021500  0.43035000  0.95056700  1
  C  1308  1  0.95337900  0.42892500  0.97710800  1
  C  1309  1  0.97296900  0.43834000  0.99689400  1
  C  1310  1  0.95986400  0.44383300  0.02021000  1
  C  1311  1  0.97949800  0.45574100  0.03904300  1
  C  1315  1  0.11161300  0.48256300  0.01748300  1
  C  1319  1  0.01705900  0.42693100  0.92698500  1
  C  1327  1  0.60346800  0.76130000  0.54727100  1
  C  1328  1  0.59101600  0.76651700  0.52351800  1
  C  1330  1  0.64085500  0.79151800  0.51066800  1
  C  1331  1  0.65386100  0.78836500  0.53439200  1
  C  1332  1  0.63465100  0.77374500  0.55248800  1
  C  1334  1  0.66032900  0.80402500  0.49173000  1
  C  1335  1  0.70052100  0.82278300  0.45255500  1
  C  1337  1  0.66739700  0.81457300  0.44912000  1
  C  1338  1  0.71259600  0.82242800  0.47663100  1
  C  1339  1  0.69290400  0.81302900  0.49636800  1
  C  1340  1  0.70528600  0.81063100  0.52019500  1
  C  1341  1  0.68587200  0.79852100  0.53908400  1
  C  1345  1  0.55792600  0.75779100  0.51571800  1
  C  1349  1  0.65158900  0.81457300  0.42500400  1
  C  1357  1  0.10352400  0.98724600  0.69965300  1
  C  1358  1  0.08960800  0.97661800  0.72186900  1
  C  1360  1  0.13969200  0.95154700  0.73398700  1
  C  1361  1  0.15435100  0.96044900  0.71166700  1
  C  1362  1  0.13574200  0.97772600  0.69457200  1
  C  1364  1  0.15840900  0.93640000  0.75223800  1
  C  1365  1  0.19674200  0.91310000  0.79114200  1
  C  1367  1  0.16272000  0.91774800  0.79345300  1
  C  1368  1  0.21063800  0.91917100  0.76804700  1
  C  1369  1  0.19189700  0.93073700  0.74845200  1
  C  1370  1  0.20599700  0.93879800  0.72589600  1
  C  1371  1  0.18731200  0.95334300  0.70757300  1
  C  1375  1  0.05575100  0.98277900  0.72918400  1
  C  1379  1  0.14478100  0.91189000  0.81631200  1
  C  1387  1  0.56022500  0.26838000  0.20415800  1
  C  1388  1  0.57404400  0.27793300  0.22668900  1
  C  1390  1  0.52293200  0.29906300  0.24048600  1
  C  1391  1  0.50833400  0.29143800  0.21787900  1
  C  1392  1  0.52744000  0.27654700  0.19985500  1
  C  1394  1  0.50388900  0.31189200  0.25952300  1
  C  1395  1  0.46542200  0.33179400  0.29932700  1
  C  1397  1  0.49943600  0.32724000  0.30149600  1
  C  1398  1  0.45140900  0.32689700  0.27613100  1
  C  1399  1  0.47022000  0.31689800  0.25609900  1
  C  1400  1  0.45613500  0.31012100  0.23330100  1
  C  1401  1  0.47506900  0.29756500  0.21430700  1
  C  1405  1  0.60845300  0.27356800  0.23325000  1
  C  1409  1  0.51722600  0.33180400  0.32457100  1
  C  1417  1  0.19811700  0.37494300  0.46256600  1
  C  1418  1  0.21375600  0.36681300  0.48470800  1
  C  1420  1  0.17193700  0.32834400  0.49438400  1
  C  1421  1  0.15561100  0.33520900  0.47231500  1
  C  1422  1  0.16889000  0.35889100  0.45674000  1
  C  1424  1  0.15835900  0.30628100  0.51113500  1
  C  1425  1  0.13164300  0.26337400  0.54582300  1
  C  1427  1  0.16088700  0.28069900  0.55025400  1
  C  1428  1  0.11582000  0.26893200  0.52337400  1
  C  1429  1  0.12876500  0.29035900  0.50586500  1
  C  1430  1  0.11308300  0.29676400  0.48358500  1
  C  1431  1  0.12629000  0.31911500  0.46702400  1
  C  1435  1  0.24361700  0.38224300  0.49390500  1
  C  1439  1  0.18005900  0.27797900  0.57289000  1
  C  1447  1  0.70390900  0.88239100  0.28609700  1
  C  1448  1  0.71918500  0.89203900  0.26416600  1
  C  1450  1  0.67563900  0.92884800  0.25522500  1
  C  1451  1  0.65969300  0.92055500  0.27717200  1
  C  1452  1  0.67396900  0.89685100  0.29222400  1
  C  1454  1  0.66100000  0.95071200  0.23884500  1
  C  1455  1  0.63221500  0.99323400  0.20486000  1
  C  1457  1  0.66204300  0.97715500  0.20001300  1
  C  1458  1  0.61684900  0.98654100  0.22731400  1
  C  1459  1  0.63079400  0.96521600  0.24445500  1
  C  1460  1  0.61552800  0.95750900  0.26666500  1
  C  1461  1  0.62972200  0.93519200  0.28278900  1
  C  1465  1  0.74967300  0.87824100  0.25466900  1
  C  1469  1  0.68069600  0.98093500  0.17722100  1
  C  1477  1  0.46662500  0.85480400  0.80173100  1
  C  1478  1  0.45195600  0.84936400  0.77874500  1
  C  1480  1  0.49410600  0.81198400  0.76749500  1
  C  1481  1  0.50922400  0.81579500  0.79043600  1
  C  1482  1  0.49519900  0.83740800  0.80726200  1
  C  1484  1  0.50911300  0.79301100  0.74934400  1
  C  1485  1  0.53928000  0.75709500  0.71177100  1
  C  1487  1  0.50962800  0.77409600  0.70808100  1
  C  1488  1  0.55373300  0.75959200  0.73504400  1
  C  1489  1  0.53900600  0.77732600  0.75401300  1
  C  1490  1  0.55337900  0.78049600  0.77715700  1
  C  1491  1  0.53868200  0.79965800  0.79518200  1
  C  1495  1  0.42330400  0.86683500  0.76942400  1
  C  1499  1  0.49173200  0.77476400  0.68477200  1
  C  1507  1  0.06216700  0.98756500  0.54731100  1
  C  1508  1  0.07541300  0.97869200  0.52442800  1
  C  1510  1  0.02430500  0.95674500  0.51136500  1
  C  1511  1  0.01040300  0.96338000  0.53439200  1
  C  1512  1  0.02977500  0.97843300  0.55218500  1
  C  1514  1  0.00483500  0.94407700  0.49250800  1
  C  1515  1  0.96524800  0.92487400  0.45319300  1
  C  1517  1  0.99895700  0.93057000  0.45027500  1
  C  1518  1  0.95209400  0.92822600  0.47680800  1
  C  1519  1  0.97146900  0.93798900  0.49660400  1
  C  1520  1  0.95815300  0.94361300  0.51983400  1
  C  1521  1  0.97747700  0.95621700  0.53859200  1
  C  1525  1  0.10952100  0.98376100  0.51728900  1
  C  1529  1  0.01564200  0.92768900  0.42659900  1
  C  1537  1  0.60479400  0.26832500  0.04968800  1
  C  1538  1  0.58986200  0.27782500  0.02755400  1
  C  1540  1  0.63819100  0.30556000  0.01465000  1
  C  1541  1  0.65382300  0.29766900  0.03681800  1
  C  1542  1  0.63662100  0.27948700  0.05421400  1
  C  1544  1  0.65550700  0.32197500  0.99622200  1
  C  1545  1  0.69127500  0.34891600  0.95724100  1
  C  1547  1  0.65777400  0.34141000  0.95509400  1
  C  1548  1  0.70600400  0.34345500  0.98013300  1
  C  1549  1  0.68855300  0.33005200  0.99974100  1
  C  1550  1  0.70360900  0.32282000  0.02210800  1
  C  1551  1  0.68632200  0.30691000  0.04056200  1
  C  1555  1  0.55615500  0.26996800  0.02078800  1
  C  1559  1  0.63925600  0.34609300  0.93235400  1
  C  1567  1  0.10113200  0.48189900  0.20341600  1
  C  1568  1  0.08652600  0.47052700  0.22518100  1
  C  1570  1  0.13664000  0.44641500  0.23836700  1
  C  1571  1  0.15205400  0.45607900  0.21651500  1
  C  1572  1  0.13385500  0.47339100  0.19917900  1
  C  1574  1  0.15477300  0.43080800  0.25675600  1
  C  1575  1  0.19165000  0.40517800  0.29565400  1
  C  1577  1  0.15772600  0.41050400  0.29762800  1
  C  1578  1  0.20635300  0.41227000  0.27300700  1
  C  1579  1  0.18835900  0.42512100  0.25346100  1
  C  1580  1  0.20325100  0.43409600  0.23139000  1
  C  1581  1  0.18521700  0.44935200  0.21302500  1
  C  1585  1  0.05210400  0.47524700  0.23156100  1
  C  1589  1  0.13929500  0.40406500  0.32016200  1
  C  1597  1  0.20075100  0.85027900  0.95251200  1
  C  1598  1  0.21457100  0.84681400  0.97600600  1
  C  1600  1  0.17409600  0.80763100  0.98724100  1
  C  1601  1  0.15995200  0.80936100  0.96381500  1
  C  1602  1  0.17349500  0.83099100  0.94676100  1
  C  1604  1  0.15928700  0.78879600  0.00556400  1
  C  1605  1  0.12925300  0.75348700  0.04353000  1
  C  1607  1  0.15754100  0.77259800  0.04744700  1
  C  1608  1  0.11607300  0.75347700  0.01975300  1
  C  1609  1  0.13068500  0.77100300  0.00060300  1
  C  1610  1  0.11737800  0.77205800  0.97699000  1
  C  1611  1  0.13176600  0.79120800  0.95880500  1
  C  1615  1  0.24175600  0.86632400  0.98552100  1
  C  1619  1  0.17391100  0.77619100  0.07123600  1
  C  1627  1  0.69864400  0.37916300  0.79030100  1
  C  1628  1  0.71433600  0.38846500  0.76843400  1
  C  1630  1  0.67067400  0.42470700  0.75841200  1
  C  1631  1  0.65423200  0.41662100  0.78020000  1
  C  1632  1  0.66848200  0.39358700  0.79584200  1
  C  1634  1  0.65617700  0.44607400  0.74156600  1
  C  1635  1  0.62753700  0.48748400  0.70661600  1
  C  1637  1  0.65809800  0.47232900  0.70265900  1
  C  1638  1  0.61149700  0.48050400  0.72875700  1
  C  1639  1  0.62542500  0.45991000  0.74640900  1
  C  1640  1  0.60959500  0.45229500  0.76841000  1
  C  1641  1  0.62381100  0.43076600  0.78511000  1
  C  1645  1  0.74511000  0.37468200  0.75945800  1
  C  1649  1  0.67782400  0.47671900  0.68043700  1
  C  1657  1  0.56745300  0.48392400  0.55329800  1
  C  1658  1  0.58060400  0.47380800  0.53068600  1
  C  1660  1  0.52991000  0.44957500  0.51890600  1
  C  1661  1  0.51590700  0.45818500  0.54152200  1
  C  1662  1  0.53521700  0.47466600  0.55863200  1
  C  1664  1  0.51060800  0.43474900  0.50082900  1
  C  1665  1  0.47123400  0.41142100  0.46240200  1
  C  1667  1  0.50529400  0.41572800  0.45976700  1
  C  1668  1  0.45789200  0.41788400  0.48563200  1
  C  1669  1  0.47714800  0.42938200  0.50498900  1
  C  1670  1  0.46366000  0.43739900  0.52776700  1
  C  1671  1  0.48296000  0.45139200  0.54597800  1
  C  1675  1  0.61440300  0.47952100  0.52302600  1
  C  1679  1  0.52293900  0.40937400  0.43684700  1
  C  1687  1  0.06057000  0.26893700  0.69722400  1
  C  1688  1  0.07491400  0.27971400  0.71924600  1
  C  1690  1  0.02474700  0.30391400  0.73220300  1
  C  1691  1  0.00951200  0.29446800  0.71023400  1
  C  1692  1  0.02795400  0.27762900  0.69279900  1
  C  1694  1  0.00642700  0.31927900  0.75058300  1
  C  1695  1  0.96922300  0.34388100  0.78971500  1
  C  1697  1  0.00341300  0.33979600  0.79136000  1
  C  1698  1  0.95457000  0.33653500  0.76708200  1
  C  1699  1  0.97274200  0.32436800  0.74738600  1
  C  1700  1  0.95798400  0.31545100  0.72525100  1
  C  1701  1  0.97629400  0.30089700  0.70671900  1
  C  1705  1  0.10913500  0.27435900  0.72594000  1
  C  1709  1  0.02231000  0.34704600  0.81355700  1
  C  1717  1  0.96353500  0.86670900  0.28628600  1
  C  1718  1  0.94986300  0.85838200  0.26346800  1
  C  1720  1  0.99391900  0.82194600  0.25507800  1
  C  1721  1  0.00826000  0.82887100  0.27789900  1
  C  1722  1  0.99297100  0.85177200  0.29311100  1
  C  1724  1  0.00972500  0.80106100  0.23857500  1
  C  1725  1  0.04090900  0.76053800  0.20430900  1
  C  1727  1  0.01159800  0.77723400  0.19880700  1
  C  1728  1  0.05458500  0.76578600  0.22759400  1
  C  1729  1  0.03945000  0.78609300  0.24488300  1
  C  1730  1  0.05309100  0.79242300  0.26792400  1
  C  1731  1  0.03779000  0.81382300  0.28419000  1
  C  1735  1  0.92014900  0.87288900  0.25320900  1
  C  1739  1  0.99477300  0.77551100  0.17508300  1
  C  1747  1  0.56506900  0.98695500  0.05444000  1
  C  1748  1  0.57859100  0.97706800  0.03189300  1
  C  1750  1  0.52833800  0.95223400  0.01985400  1
  C  1751  1  0.51406400  0.96045400  0.04246000  1
  C  1752  1  0.53296400  0.97721100  0.05966400  1
  C  1754  1  0.50936900  0.93738000  0.00161000  1
  C  1755  1  0.47050600  0.91442600  0.96290300  1
  C  1757  1  0.50442800  0.91940800  0.96026200  1
  C  1758  1  0.45698200  0.91996000  0.98619600  1
  C  1759  1  0.47599900  0.93138300  0.00568900  1
  C  1760  1  0.46226700  0.93886800  0.02848400  1
  C  1761  1  0.48121600  0.95307600  0.04679900  1
  C  1765  1  0.61237500  0.98325800  0.02440600  1
  C  1769  1  0.52194500  0.91404800  0.93715400  1
  N  411  1  0.05781400  0.00389100  0.00789300  1
  N  418  1  0.01832300  0.97970300  0.97004900  1
  N  435  1  0.94610500  0.96297800  0.93365900  1
  N  437  1  0.08097100  0.04361800  0.06532300  1
  N  441  1  0.61019500  0.32116200  0.50652800  1
  N  448  1  0.64916700  0.34586300  0.46857300  1
  N  465  1  0.72155800  0.36482100  0.43320700  1
  N  467  1  0.58794500  0.28408000  0.56515700  1
  N  471  1  0.10823100  0.49994900  0.73784900  1
  N  478  1  0.14549900  0.46950400  0.77424900  1
  N  495  1  0.21598200  0.45033000  0.81149300  1
  N  497  1  0.08837100  0.54805100  0.68353800  1
  N  501  1  0.55486300  0.83259300  0.24364600  1
  N  508  1  0.51678600  0.85782600  0.28179000  1
  N  525  1  0.44601600  0.87498700  0.31953900  1
  N  527  1  0.57607200  0.79058400  0.18681200  1
  N  531  1  0.19995200  0.88447200  0.49940200  1
  N  538  1  0.17272100  0.84106700  0.53287700  1
  N  555  1  0.11909600  0.78268800  0.56295100  1
  N  557  1  0.20703800  0.94101900  0.44864000  1
  N  561  1  0.70434200  0.45469800  0.24990400  1
  N  568  1  0.67488200  0.49744500  0.21708300  1
  N  585  1  0.61866900  0.55441500  0.18816200  1
  N  587  1  0.71347700  0.39613300  0.29899400  1
  N  591  1  0.46638000  0.36883100  0.76291000  1
  N  598  1  0.49617700  0.33106100  0.72678800  1
  N  615  1  0.55333800  0.27953300  0.69327300  1
  N  617  1  0.46079300  0.42233400  0.81501000  1
  N  621  1  0.05594800  0.50451300  0.50766300  1
  N  628  1  0.01691100  0.48003500  0.46980100  1
  N  645  1  0.94496100  0.46308000  0.43347600  1
  N  647  1  0.07812500  0.54612300  0.56447200  1
  N  651  1  0.60716300  0.83583100  0.01124000  1
  N  658  1  0.64177000  0.86860100  0.97434700  1
  N  675  1  0.70991500  0.89457000  0.93684500  1
  N  677  1  0.59102100  0.78801200  0.06642600  1
  N  681  1  0.10484100  0.99404000  0.24148300  1
  N  688  1  0.14116600  0.96320300  0.27840900  1
  N  705  1  0.21033500  0.94061500  0.31610400  1
  N  707  1  0.08598900  0.04196600  0.18673800  1
  N  711  1  0.20057400  0.36629300  0.99205800  1
  N  718  1  0.17101500  0.32912100  0.02853800  1
  N  735  1  0.11512600  0.27659800  0.06235300  1
  N  737  1  0.20541000  0.41772700  0.93888500  1
  N  741  1  0.69966000  0.95072500  0.75370600  1
  N  748  1  0.67075900  0.99306500  0.72010900  1
  N  765  1  0.61408600  0.04801900  0.68935800  1
  N  767  1  0.70835400  0.89360700  0.80399100  1
  N  771  1  0.56137900  0.99772300  0.51474200  1
  N  778  1  0.52298500  0.96753700  0.47871500  1
  N  795  1  0.45156900  0.94802200  0.44227500  1
  N  797  1  0.58339900  0.04355000  0.56981000  1
  N  801  1  0.05647600  0.83661700  0.73551300  1
  N  808  1  0.02004600  0.86784900  0.77210500  1
  N  825  1  0.95072900  0.88862200  0.81036300  1
  N  827  1  0.07589600  0.78986800  0.68039000  1
  N  831  1  0.96566900  0.37701900  0.24909200  1
  N  838  1  0.99754900  0.33636800  0.21603100  1
  N  855  1  0.05562500  0.28090000  0.18737900  1
  N  857  1  0.95352700  0.43333400  0.29915800  1
  N  861  1  0.55970900  0.50083500  0.01582000  1
  N  868  1  0.52192300  0.47097000  0.97939400  1
  N  885  1  0.45084100  0.45173800  0.94278500  1
  N  887  1  0.58057700  0.54676400  0.07101800  1
  N  1299  1  0.05781400  0.46364100  0.00789300  1
  N  1306  1  0.01832300  0.43945300  0.97004900  1
  N  1323  1  0.94610500  0.42272800  0.93365900  1
  N  1325  1  0.08097100  0.50336800  0.06532300  1
  N  1329  1  0.61019500  0.78091200  0.50652800  1
  N  1336  1  0.64916700  0.80561300  0.46857300  1
  N  1353  1  0.72155800  0.82457100  0.43320700  1
  N  1355  1  0.58794500  0.74383000  0.56515700  1
  N  1359  1  0.10823100  0.95969900  0.73784900  1
  N  1366  1  0.14549900  0.92925400  0.77424900  1
  N  1383  1  0.21598200  0.91008000  0.81149300  1
  N  1385  1  0.08837100  0.00780109  0.68353800  1
  N  1389  1  0.55486300  0.29234300  0.24364600  1
  N  1396  1  0.51678600  0.31757600  0.28179000  1
  N  1413  1  0.44601600  0.33473700  0.31953900  1
  N  1415  1  0.57607200  0.25033400  0.18681200  1
  N  1419  1  0.19995200  0.34422200  0.49940200  1
  N  1426  1  0.17272100  0.30081700  0.53287700  1
  N  1443  1  0.11909600  0.24243800  0.56295100  1
  N  1445  1  0.20703800  0.40076900  0.44864000  1
  N  1449  1  0.70434200  0.91444800  0.24990400  1
  N  1456  1  0.67488200  0.95719500  0.21708300  1
  N  1473  1  0.61866900  0.01416510  0.18816200  1
  N  1475  1  0.71347700  0.85588300  0.29899400  1
  N  1479  1  0.46638000  0.82858100  0.76291000  1
  N  1486  1  0.49617700  0.79081100  0.72678800  1
  N  1503  1  0.55333800  0.73928300  0.69327300  1
  N  1505  1  0.46079300  0.88208400  0.81501000  1
  N  1509  1  0.05594800  0.96426300  0.50766300  1
  N  1516  1  0.01691100  0.93978500  0.46980100  1
  N  1533  1  0.94496100  0.92283000  0.43347600  1
  N  1535  1  0.07812500  0.00587309  0.56447200  1
  N  1539  1  0.60716300  0.29558100  0.01124000  1
  N  1546  1  0.64177000  0.32835100  0.97434700  1
  N  1563  1  0.70991500  0.35432000  0.93684500  1
  N  1565  1  0.59102100  0.24776200  0.06642600  1
  N  1569  1  0.10484100  0.45379000  0.24148300  1
  N  1576  1  0.14116600  0.42295300  0.27840900  1
  N  1593  1  0.21033500  0.40036500  0.31610400  1
  N  1595  1  0.08598900  0.50171600  0.18673800  1
  N  1599  1  0.20057400  0.82604300  0.99205800  1
  N  1606  1  0.17101500  0.78887100  0.02853800  1
  N  1623  1  0.11512600  0.73634800  0.06235300  1
  N  1625  1  0.20541000  0.87747700  0.93888500  1
  N  1629  1  0.69966000  0.41047500  0.75370600  1
  N  1636  1  0.67075900  0.45281500  0.72010900  1
  N  1653  1  0.61408600  0.50776900  0.68935800  1
  N  1655  1  0.70835400  0.35335700  0.80399100  1
  N  1659  1  0.56137900  0.45747300  0.51474200  1
  N  1666  1  0.52298500  0.42728700  0.47871500  1
  N  1683  1  0.45156900  0.40777200  0.44227500  1
  N  1685  1  0.58339900  0.50330000  0.56981000  1
  N  1689  1  0.05647600  0.29636700  0.73551300  1
  N  1696  1  0.02004600  0.32759900  0.77210500  1
  N  1713  1  0.95072900  0.34837200  0.81036300  1
  N  1715  1  0.07589600  0.24961800  0.68039000  1
  N  1719  1  0.96566900  0.83676900  0.24909200  1
  N  1726  1  0.99754900  0.79611800  0.21603100  1
  N  1743  1  0.05562500  0.74065000  0.18737900  1
  N  1745  1  0.95352700  0.89308400  0.29915800  1
  N  1749  1  0.55970900  0.96058500  0.01582000  1
  N  1756  1  0.52192300  0.93072000  0.97939400  1
  N  1773  1  0.45084100  0.91148800  0.94278500  1
  N  1775  1  0.58057700  0.00651409  0.07101800  1
  O  48  1  0.06545400  0.23762700  0.21424600  1
  O  49  1  0.09039600  0.08788000  0.03965000  1
  O  50  1  0.07727400  0.08312100  0.21540300  1
  O  51  1  0.10390700  0.22897700  0.04018300  1
  O  99  1  0.59776200  0.08872100  0.71654600  1
  O  100  1  0.58459900  0.23680300  0.54147600  1
  O  101  1  0.56850500  0.23467400  0.71729100  1
  O  102  1  0.58935900  0.08646400  0.54251700  1
  O  150  1  0.10884100  0.73984700  0.53585800  1
  O  151  1  0.08495100  0.58967100  0.71235600  1
  O  152  1  0.08618700  0.58951800  0.53744500  1
  O  153  1  0.08187300  0.74678200  0.70806500  1
  O  201  1  0.58508300  0.58993400  0.04325900  1
  O  202  1  0.58512600  0.74728500  0.21375900  1
  O  203  1  0.58776900  0.74508300  0.03858200  1
  O  204  1  0.60887900  0.59642400  0.21615700  1
  O  252  1  0.92407600  0.46798200  0.32238200  1
  O  253  1  0.75207100  0.41015800  0.44551200  1
  O  254  1  0.74221800  0.36145100  0.32273800  1
  O  255  1  0.91278100  0.41938900  0.44668600  1
  O  303  1  0.73568500  0.85979100  0.82918100  1
  O  304  1  0.91078700  0.92277200  0.94831300  1
  O  305  1  0.90696600  0.91914700  0.79483200  1
  O  306  1  0.74700900  0.93273600  0.95257600  1
  O  354  1  0.41046000  0.41654100  0.95800000  1
  O  355  1  0.25734900  0.41617300  0.79638700  1
  O  356  1  0.22690300  0.45750500  0.91545200  1
  O  357  1  0.43814900  0.46136900  0.83849200  1
  O  405  1  0.23388400  0.97504500  0.42330900  1
  O  406  1  0.40968100  0.91428600  0.30487800  1
  O  407  1  0.40866200  0.91675100  0.45832600  1
  O  408  1  0.24864000  0.90386900  0.30013700  1
  O  936  1  0.06545400  0.69737700  0.21424600  1
  O  937  1  0.09039600  0.54763000  0.03965000  1
  O  938  1  0.07727400  0.54287100  0.21540300  1
  O  939  1  0.10390700  0.68872700  0.04018300  1
  O  987  1  0.59776200  0.54847100  0.71654600  1
  O  988  1  0.58459900  0.69655300  0.54147600  1
  O  989  1  0.56850500  0.69442400  0.71729100  1
  O  990  1  0.58935900  0.54621400  0.54251700  1
  O  1038  1  0.10884100  0.19959700  0.53585800  1
  O  1039  1  0.08495100  0.04942110  0.71235600  1
  O  1040  1  0.08618700  0.04926810  0.53744500  1
  O  1041  1  0.08187300  0.20653200  0.70806500  1
  O  1089  1  0.58508300  0.04968410  0.04325900  1
  O  1090  1  0.58512600  0.20703500  0.21375900  1
  O  1091  1  0.58776900  0.20483300  0.03858200  1
  O  1092  1  0.60887900  0.05617410  0.21615700  1
  O  1140  1  0.92407600  0.92773200  0.32238200  1
  O  1141  1  0.75207100  0.86990800  0.44551200  1
  O  1142  1  0.74221800  0.82120100  0.32273800  1
  O  1143  1  0.91278100  0.87913900  0.44668600  1
  O  1191  1  0.73568500  0.31954100  0.82918100  1
  O  1192  1  0.91078700  0.38252200  0.94831300  1
  O  1193  1  0.90696600  0.37889700  0.79483200  1
  O  1194  1  0.74700900  0.39248600  0.95257600  1
  O  1242  1  0.41046000  0.87629100  0.95800000  1
  O  1243  1  0.25734900  0.87592300  0.79638700  1
  O  1244  1  0.22690300  0.91725500  0.91545200  1
  O  1245  1  0.43814900  0.92111900  0.83849200  1
  O  1293  1  0.23388400  0.43479500  0.42330900  1
  O  1294  1  0.40968100  0.37403600  0.30487800  1
  O  1295  1  0.40866200  0.37650100  0.45832600  1
  O  1296  1  0.24864000  0.36361900  0.30013700  1
