# generated using pymatgen
data_H8C16N5O2
_symmetry_space_group_name_H-M   'P 1'
_cell_length_a   42.48210000
_cell_length_b   42.48200000
_cell_length_c   53.96880000
_cell_angle_alpha   90.00070000
_cell_angle_beta   90.00000000
_cell_angle_gamma   90.00000000
_symmetry_Int_Tables_number   1
_chemical_formula_structural   H8C16N5O2
_chemical_formula_sum   'H256 C512 N160 O64'
_cell_volume   97398.81948488
_cell_formula_units_Z   32
loop_
 _symmetry_equiv_pos_site_id
 _symmetry_equiv_pos_as_xyz
  1  'x, y, z'
loop_
 _atom_site_type_symbol
 _atom_site_label
 _atom_site_symmetry_multiplicity
 _atom_site_fract_x
 _atom_site_fract_y
 _atom_site_fract_z
 _atom_site_occupancy
  H  7  1  0.17796700  0.42856500  0.90626200  1
  H  8  1  0.19592600  0.35319000  0.95449200  1
  H  15  1  0.13143400  0.41192300  0.80137200  1
  H  16  1  0.20761000  0.39545300  0.84894200  1
  H  19  1  0.16665800  0.33644500  0.85814400  1
  H  20  1  0.17413200  0.30713600  0.87706000  1
  H  21  1  0.08694200  0.39679500  0.88030500  1
  H  22  1  0.11658600  0.39012500  0.89909900  1
  H  33  1  0.32899500  0.51526400  0.40627000  1
  H  34  1  0.31110500  0.59064300  0.45451400  1
  H  41  1  0.37551100  0.53182000  0.30140600  1
  H  42  1  0.29932600  0.54832400  0.34895200  1
  H  45  1  0.34032700  0.60737800  0.35815500  1
  H  46  1  0.33293300  0.63669600  0.37708600  1
  H  47  1  0.41999100  0.54700900  0.38033300  1
  H  48  1  0.39034800  0.55370400  0.39912100  1
  H  59  1  0.79623600  0.89407400  0.15587500  1
  H  60  1  0.87196900  0.91069400  0.20403800  1
  H  67  1  0.80988200  0.84975300  0.05043300  1
  H  68  1  0.83242800  0.92400100  0.09851000  1
  H  71  1  0.88815000  0.88031500  0.10785600  1
  H  72  1  0.91757600  0.88761700  0.12669500  1
  H  73  1  0.81878900  0.80381500  0.12923200  1
  H  74  1  0.82831500  0.83237500  0.14830900  1
  H  85  1  0.71074600  0.04973800  0.65587500  1
  H  86  1  0.63500300  0.03305200  0.70402000  1
  H  93  1  0.69703900  0.09402600  0.55041600  1
  H  94  1  0.67453500  0.01980100  0.59852900  1
  H  97  1  0.61883000  0.06348100  0.60784700  1
  H  98  1  0.58940500  0.05614000  0.62667700  1
  H  99  1  0.68804000  0.14003600  0.62919100  1
  H  100  1  0.67855300  0.11147600  0.64828200  1
  H  111  1  0.32967300  0.42593300  0.59879600  1
  H  112  1  0.31441200  0.34942700  0.55130200  1
  H  119  1  0.37175400  0.41530900  0.70438100  1
  H  120  1  0.29673200  0.39605300  0.65612400  1
  H  123  1  0.33574800  0.33514900  0.64914700  1
  H  124  1  0.32953900  0.30536500  0.63039200  1
  H  125  1  0.41827200  0.39360200  0.62711200  1
  H  126  1  0.38911400  0.38562400  0.60817900  1
  H  137  1  0.17730200  0.51787200  0.09880500  1
  H  138  1  0.19251600  0.59436500  0.05130200  1
  H  145  1  0.13521900  0.52843800  0.20435700  1
  H  146  1  0.21026600  0.54772600  0.15613200  1
  H  149  1  0.17117800  0.60865700  0.14914500  1
  H  150  1  0.17731200  0.63844600  0.13037800  1
  H  151  1  0.08873800  0.55016200  0.12707900  1
  H  152  1  0.11790300  0.55816200  0.10815900  1
  H  163  1  0.70814700  0.89335200  0.34908900  1
  H  164  1  0.63129100  0.90729400  0.30168000  1
  H  171  1  0.70028500  0.85345500  0.45506300  1
  H  172  1  0.67504600  0.92652700  0.40652600  1
  H  175  1  0.61746900  0.88469800  0.39937100  1
  H  176  1  0.58759500  0.89074500  0.38068500  1
  H  177  1  0.68513700  0.80535600  0.37765700  1
  H  178  1  0.67423900  0.83340200  0.35857900  1
  H  189  1  0.79879700  0.05046100  0.84910900  1
  H  190  1  0.87566200  0.03643800  0.80171500  1
  H  197  1  0.80671300  0.09036200  0.95509400  1
  H  198  1  0.83191200  0.01730700  0.90652700  1
  H  201  1  0.88947500  0.05912800  0.89939700  1
  H  202  1  0.91934600  0.05303300  0.88071600  1
  H  203  1  0.82196000  0.13851800  0.87771800  1
  H  204  1  0.83281400  0.11046900  0.85862600  1
  H  215  1  0.83129500  0.51428500  0.10114500  1
  H  216  1  0.81372800  0.58996500  0.05315700  1
  H  223  1  0.87529000  0.52693400  0.20647500  1
  H  224  1  0.80126100  0.55064900  0.15854300  1
  H  227  1  0.84484700  0.60620700  0.14917900  1
  H  228  1  0.83705800  0.63561200  0.13043500  1
  H  229  1  0.92139200  0.53655100  0.12779000  1
  H  230  1  0.89292600  0.54656200  0.10877100  1
  H  241  1  0.67567500  0.42949900  0.60112900  1
  H  242  1  0.69320200  0.35381000  0.55313600  1
  H  249  1  0.63169400  0.41694000  0.70643800  1
  H  250  1  0.70573400  0.39318800  0.65853400  1
  H  253  1  0.66216300  0.33759000  0.64917900  1
  H  254  1  0.66988900  0.30817500  0.63042300  1
  H  255  1  0.58561800  0.40729000  0.62775000  1
  H  256  1  0.61408400  0.39724300  0.60873900  1
  H  267  1  0.20893800  0.05236000  0.85073000  1
  H  268  1  0.13520300  0.02847500  0.80242800  1
  H  275  1  0.19516600  0.09344700  0.95602600  1
  H  276  1  0.17235500  0.01902000  0.90819500  1
  H  279  1  0.11585500  0.05622500  0.89870400  1
  H  280  1  0.08760200  0.04538700  0.87979700  1
  H  281  1  0.18419400  0.13941700  0.87743800  1
  H  282  1  0.17406600  0.11091400  0.85850500  1
  H  293  1  0.29799600  0.89144100  0.35073200  1
  H  294  1  0.37174400  0.91534400  0.30244700  1
  H  301  1  0.31180900  0.85038800  0.45605100  1
  H  302  1  0.33457800  0.92479200  0.40818400  1
  H  305  1  0.39106600  0.88760500  0.39872900  1
  H  306  1  0.41931500  0.89847000  0.37982900  1
  H  307  1  0.32283000  0.80436000  0.37748300  1
  H  308  1  0.33291900  0.83286100  0.35853500  1
  H  319  1  0.67493300  0.51693500  0.40788200  1
  H  320  1  0.69000300  0.59372900  0.45513300  1
  H  327  1  0.63538200  0.52389400  0.30203900  1
  H  328  1  0.70825100  0.55015800  0.35042500  1
  H  331  1  0.66654100  0.60762000  0.35757900  1
  H  332  1  0.67315800  0.63746300  0.37618800  1
  H  333  1  0.58710300  0.53974000  0.37928600  1
  H  334  1  0.61506600  0.55106300  0.39829700  1
  H  345  1  0.83197800  0.42686700  0.90788200  1
  H  346  1  0.81698800  0.35008500  0.95514800  1
  H  353  1  0.87156900  0.41995500  0.80207400  1
  H  354  1  0.79867000  0.39366200  0.85041900  1
  H  357  1  0.84041000  0.33617900  0.85759000  1
  H  358  1  0.83387500  0.30633400  0.87621400  1
  H  359  1  0.91978200  0.40414400  0.87935100  1
  H  360  1  0.89181200  0.39278900  0.89834300  1
  H  371  1  0.30055700  0.05294200  0.65829100  1
  H  372  1  0.37541000  0.03147700  0.70608200  1
  H  379  1  0.30878600  0.08972500  0.55252500  1
  H  380  1  0.33405600  0.01644100  0.60082300  1
  H  383  1  0.39224500  0.05185000  0.60839000  1
  H  384  1  0.42095800  0.04227400  0.62730500  1
  H  385  1  0.32580000  0.13778500  0.62968200  1
  H  386  1  0.33720100  0.10975200  0.64859000  1
  H  397  1  0.20643000  0.89086400  0.15826900  1
  H  398  1  0.13156800  0.91236300  0.20604500  1
  H  405  1  0.19815700  0.85407000  0.05248900  1
  H  406  1  0.17292000  0.92733900  0.10081200  1
  H  409  1  0.11474800  0.89195000  0.10835700  1
  H  410  1  0.08604100  0.90156200  0.12726400  1
  H  411  1  0.18111300  0.80597600  0.12963000  1
  H  412  1  0.16974700  0.83400900  0.14854900  1
  H  429  1  0.29622300  0.49435000  0.76428600  1
  H  430  1  0.20856200  0.31845400  0.74271400  1
  H  432  1  0.23156300  0.42440400  0.81281000  1
  H  434  1  0.27535300  0.38306900  0.69552800  1
  H  447  1  0.21074000  0.44939600  0.26428000  1
  H  448  1  0.29835100  0.62532500  0.24276200  1
  H  450  1  0.27537900  0.51934000  0.31281400  1
  H  452  1  0.23160300  0.56070600  0.19554800  1
  H  465  1  0.73222300  0.01465300  0.01487200  1
  H  466  1  0.90809900  0.92738400  0.99228600  1
  H  468  1  0.80277500  0.94974400  0.06291600  1
  H  470  1  0.84294700  0.99450100  0.94556300  1
  H  483  1  0.77476600  0.92918400  0.51485900  1
  H  484  1  0.59886800  0.01641600  0.49228300  1
  H  486  1  0.70420400  0.99405900  0.56292500  1
  H  488  1  0.66399400  0.94929300  0.44557200  1
  H  501  1  0.71104700  0.44980300  0.24244600  1
  H  502  1  0.79764300  0.62617500  0.26431200  1
  H  504  1  0.77538000  0.52064400  0.19398800  1
  H  506  1  0.73098300  0.56097400  0.31136700  1
  H  519  1  0.79593000  0.49405100  0.74246000  1
  H  520  1  0.70935700  0.31765400  0.76426000  1
  H  522  1  0.73161600  0.42321800  0.69398400  1
  H  524  1  0.77598300  0.38284700  0.81134800  1
  H  537  1  0.27250300  0.92903400  0.99240500  1
  H  538  1  0.09664700  0.01655900  0.01447000  1
  H  540  1  0.20164600  0.99332400  0.94388600  1
  H  542  1  0.16176100  0.94992900  0.06162200  1
  H  555  1  0.23442800  0.01475800  0.49243300  1
  H  556  1  0.41029000  0.92722800  0.51448100  1
  H  558  1  0.30528100  0.95049300  0.44388400  1
  H  560  1  0.34521300  0.99387800  0.56162300  1
  H  573  1  0.79631600  0.99120400  0.26421200  1
  H  574  1  0.70832100  0.81552000  0.24251600  1
  H  576  1  0.73145300  0.92154000  0.31263800  1
  H  578  1  0.77523900  0.88001700  0.19538300  1
  H  591  1  0.71060500  0.95261200  0.76424300  1
  H  592  1  0.79865600  0.12826100  0.74251600  1
  H  594  1  0.77548600  0.02227900  0.81264700  1
  H  596  1  0.73174500  0.06375600  0.69538500  1
  H  609  1  0.23116200  0.51456700  0.51434500  1
  H  610  1  0.40708900  0.42703800  0.49263300  1
  H  612  1  0.30080200  0.44948600  0.56260700  1
  H  614  1  0.34262400  0.49417300  0.44567200  1
  H  627  1  0.27588100  0.42931800  0.01428500  1
  H  628  1  0.09989500  0.51676300  0.99265700  1
  H  630  1  0.20627200  0.49434600  0.06259900  1
  H  632  1  0.16431900  0.44963100  0.94568900  1
  H  645  1  0.21079500  0.95311800  0.74248300  1
  H  646  1  0.29802200  0.12913300  0.76448400  1
  H  648  1  0.27532000  0.02367500  0.69407700  1
  H  650  1  0.23121000  0.06412800  0.81151700  1
  H  663  1  0.29620900  0.99066700  0.24246200  1
  H  664  1  0.20893200  0.81468000  0.26446900  1
  H  666  1  0.23167200  0.92011200  0.19406800  1
  H  668  1  0.27573000  0.87968700  0.31151300  1
  H  681  1  0.77327800  0.42916800  0.49302400  1
  H  682  1  0.59729800  0.51685000  0.51410400  1
  H  684  1  0.70337300  0.49353100  0.44422900  1
  H  686  1  0.66184800  0.45037600  0.56158700  1
  H  699  1  0.73359500  0.51456000  0.99310000  1
  H  700  1  0.90962500  0.42693800  0.01408500  1
  H  702  1  0.80346000  0.45024500  0.94424600  1
  H  704  1  0.84512200  0.49341200  0.06158300  1
  H  717  1  0.27390100  0.20389400  0.96253400  1
  H  718  1  0.09603200  0.24343900  0.90051500  1
  H  720  1  0.21074400  0.29649300  0.95104900  1
  H  722  1  0.14945800  0.15198200  0.92373400  1
  H  735  1  0.23307400  0.73990100  0.46257800  1
  H  736  1  0.41097700  0.70043200  0.40058900  1
  H  738  1  0.29626300  0.64732500  0.45107700  1
  H  740  1  0.35752000  0.79186100  0.42383600  1
  H  753  1  0.02004600  0.99017000  0.21174600  1
  H  754  1  0.98282700  0.81157600  0.15014100  1
  H  756  1  0.92831000  0.92622300  0.20009300  1
  H  758  1  0.07356400  0.86624600  0.17304100  1
  H  771  1  0.48693400  0.95361600  0.71179800  1
  H  772  1  0.52414500  0.13219200  0.65015900  1
  H  774  1  0.57867600  0.01757800  0.70010400  1
  H  776  1  0.43341500  0.07754900  0.67312400  1
  H  789  1  0.23396500  0.20119900  0.54306700  1
  H  790  1  0.41058200  0.24007600  0.60751900  1
  H  792  1  0.29694600  0.29351400  0.55564000  1
  H  794  1  0.35758100  0.14884800  0.58247400  1
  H  807  1  0.27293400  0.74257300  0.04293200  1
  H  808  1  0.09639900  0.70375100  0.10754500  1
  H  810  1  0.20992900  0.65026600  0.05558500  1
  H  812  1  0.14936400  0.79495600  0.08238200  1
  H  825  1  0.48425100  0.98929800  0.29384400  1
  H  826  1  0.52083100  0.81186200  0.35771600  1
  H  828  1  0.57572000  0.92553000  0.30652500  1
  H  830  1  0.43031500  0.86612700  0.33302900  1
  H  843  1  0.02269400  0.95453600  0.79376000  1
  H  844  1  0.98612000  0.13189500  0.85777000  1
  H  846  1  0.93121700  0.01828300  0.80653400  1
  H  848  1  0.07662900  0.07768500  0.83297400  1
  H  861  1  0.73296500  0.73673600  0.04460100  1
  H  862  1  0.91147700  0.70208000  0.10728900  1
  H  864  1  0.79766700  0.64588300  0.05716100  1
  H  866  1  0.85589900  0.79192400  0.08397600  1
  H  879  1  0.77392800  0.20705400  0.54446500  1
  H  880  1  0.59550200  0.24169000  0.60731400  1
  H  882  1  0.70921300  0.29790600  0.55710000  1
  H  884  1  0.65102700  0.15185300  0.58386500  1
  H  897  1  0.77373000  0.73939700  0.46326000  1
  H  898  1  0.59570700  0.70542700  0.39948600  1
  H  900  1  0.70897800  0.64882000  0.45014500  1
  H  902  1  0.65112800  0.79502700  0.42421000  1
  H  915  1  0.73327800  0.20443100  0.96336800  1
  H  916  1  0.91128400  0.23835700  0.89954900  1
  H  918  1  0.79799900  0.29499800  0.95016600  1
  H  920  1  0.85587500  0.14877400  0.92434700  1
  H  933  1  0.52004000  0.49443400  0.71352100  1
  H  934  1  0.48280100  0.31698600  0.64987200  1
  H  936  1  0.42822200  0.43038600  0.70122400  1
  H  938  1  0.57347600  0.37113400  0.67371500  1
  H  951  1  0.98694200  0.44936000  0.21355700  1
  H  952  1  0.02418800  0.62678300  0.14986800  1
  H  954  1  0.07876700  0.51333100  0.20116600  1
  H  956  1  0.93351900  0.57268000  0.17379400  1
  H  969  1  0.98427700  0.49405600  0.79281000  1
  H  970  1  0.02082700  0.31695000  0.85729000  1
  H  972  1  0.07580000  0.42994200  0.80556500  1
  H  974  1  0.93038200  0.37105700  0.83225700  1
  H  987  1  0.52265000  0.44974800  0.29276500  1
  H  988  1  0.48612700  0.62685600  0.35725500  1
  H  990  1  0.43112900  0.51378200  0.30562800  1
  H  992  1  0.57654600  0.57277700  0.33213800  1
  C  1  1  0.17574000  0.38378800  0.88939300  1
  C  2  1  0.18078200  0.40494100  0.90923800  1
  C  3  1  0.18811300  0.39408200  0.93332100  1
  C  4  1  0.19145400  0.36139100  0.93701200  1
  C  5  1  0.18655000  0.33967500  0.91749900  1
  C  6  1  0.17819600  0.35067700  0.89344000  1
  C  9  1  0.16330000  0.39603000  0.86680600  1
  C  10  1  0.13014000  0.39898000  0.86317500  1
  C  11  1  0.11865900  0.40582200  0.83896100  1
  C  12  1  0.13995300  0.40882300  0.81894500  1
  C  13  1  0.17271000  0.40614900  0.82245300  1
  C  14  1  0.18408300  0.39969300  0.84651700  1
  C  27  1  0.33120300  0.56004700  0.38940300  1
  C  28  1  0.32615600  0.53888600  0.40924200  1
  C  29  1  0.31886100  0.54974700  0.43333000  1
  C  30  1  0.31555600  0.58244400  0.43702800  1
  C  31  1  0.32048300  0.60415600  0.41752100  1
  C  32  1  0.32879000  0.59315600  0.39345300  1
  C  35  1  0.34363100  0.54778300  0.36681600  1
  C  36  1  0.37679600  0.54482600  0.36319900  1
  C  37  1  0.38827800  0.53795700  0.33899000  1
  C  38  1  0.36698500  0.53489200  0.31898100  1
  C  39  1  0.33422000  0.53753300  0.32248300  1
  C  40  1  0.32285300  0.54407300  0.34653400  1
  C  53  1  0.84095100  0.89096900  0.13896400  1
  C  54  1  0.81991600  0.89638400  0.15884000  1
  C  55  1  0.83093500  0.90332800  0.18294800  1
  C  56  1  0.86367600  0.90626600  0.18657600  1
  C  57  1  0.88528000  0.90114100  0.16702200  1
  C  58  1  0.87410900  0.89280800  0.14300100  1
  C  61  1  0.82836900  0.87966100  0.11610000  1
  C  62  1  0.82244500  0.84693100  0.11229700  1
  C  63  1  0.81563500  0.83626800  0.08782900  1
  C  64  1  0.81414700  0.85788100  0.06799200  1
  C  65  1  0.81923600  0.89030400  0.07174700  1
  C  66  1  0.82662500  0.90084300  0.09588600  1
  C  79  1  0.66603300  0.05284800  0.63896500  1
  C  80  1  0.68706500  0.04743800  0.65884200  1
  C  81  1  0.67604400  0.04045000  0.68294300  1
  C  82  1  0.64330300  0.03752500  0.68656700  1
  C  83  1  0.62169900  0.04263300  0.66700800  1
  C  84  1  0.63287300  0.05097900  0.64299000  1
  C  87  1  0.67861000  0.06415800  0.61610000  1
  C  88  1  0.68450700  0.09688500  0.61228200  1
  C  89  1  0.69130700  0.10753300  0.58781000  1
  C  90  1  0.69277400  0.08591000  0.56797600  1
  C  91  1  0.68769600  0.05348600  0.57174700  1
  C  92  1  0.68032800  0.04296000  0.59589400  1
  C  105  1  0.32953900  0.38167700  0.61673400  1
  C  106  1  0.32577500  0.40234200  0.59638500  1
  C  107  1  0.31951800  0.39084500  0.57232700  1
  C  108  1  0.31726500  0.35804000  0.56887100  1
  C  109  1  0.32043600  0.33683600  0.58893700  1
  C  110  1  0.32700300  0.34847400  0.61315400  1
  C  113  1  0.34157400  0.39432500  0.63932100  1
  C  114  1  0.37464000  0.39723000  0.64340300  1
  C  115  1  0.38547300  0.40585200  0.66744700  1
  C  116  1  0.36365900  0.41056800  0.68691200  1
  C  117  1  0.33102400  0.40681800  0.68318500  1
  C  118  1  0.32030400  0.39921900  0.65911600  1
  C  131  1  0.17746700  0.56213400  0.11673900  1
  C  132  1  0.18126100  0.54145400  0.09640100  1
  C  133  1  0.18748800  0.55294500  0.07233500  1
  C  134  1  0.18968400  0.58575500  0.06887400  1
  C  135  1  0.18648400  0.60696600  0.08893300  1
  C  136  1  0.17995900  0.59533600  0.11315600  1
  C  139  1  0.16543200  0.54946300  0.13932000  1
  C  140  1  0.13236200  0.54654400  0.14338300  1
  C  141  1  0.12151900  0.53790100  0.16741900  1
  C  142  1  0.14332400  0.53313200  0.18688400  1
  C  143  1  0.17596100  0.53690300  0.18317100  1
  C  144  1  0.18669200  0.54454100  0.15911300  1
  C  157  1  0.66391400  0.89255700  0.36705800  1
  C  158  1  0.68448300  0.89676300  0.34668700  1
  C  159  1  0.67282900  0.90260300  0.32260700  1
  C  160  1  0.63998900  0.90447200  0.31922700  1
  C  161  1  0.61887900  0.90105200  0.33932900  1
  C  162  1  0.63066000  0.89446100  0.36350400  1
  C  165  1  0.67693900  0.88159500  0.38987300  1
  C  166  1  0.68282100  0.84893900  0.39401300  1
  C  167  1  0.69136800  0.83894200  0.41831400  1
  C  168  1  0.69453700  0.86113300  0.43764000  1
  C  169  1  0.68843800  0.89338200  0.43375600  1
  C  170  1  0.67990000  0.90327300  0.40965300  1
  C  183  1  0.84302700  0.05128500  0.86706900  1
  C  184  1  0.82246300  0.04707700  0.84669800  1
  C  185  1  0.83411300  0.04113400  0.82263500  1
  C  186  1  0.86695700  0.03930600  0.81925700  1
  C  187  1  0.88806700  0.04273600  0.83935900  1
  C  188  1  0.87628400  0.04934900  0.86353000  1
  C  191  1  0.83001200  0.06225000  0.88989000  1
  C  192  1  0.82415800  0.09490800  0.89404200  1
  C  193  1  0.81561800  0.10489300  0.91834900  1
  C  194  1  0.81247300  0.08269600  0.93767100  1
  C  195  1  0.81854900  0.05044500  0.93377500  1
  C  196  1  0.82707000  0.04056100  0.90966600  1
  C  209  1  0.83425200  0.55899300  0.11808300  1
  C  210  1  0.82885400  0.53795800  0.09821100  1
  C  211  1  0.82160700  0.54897400  0.07416400  1
  C  212  1  0.81834900  0.58168500  0.07059100  1
  C  213  1  0.82343800  0.60329600  0.09014400  1
  C  214  1  0.83208600  0.59214400  0.11410300  1
  C  217  1  0.84557700  0.54639300  0.14092600  1
  C  218  1  0.87825100  0.54015300  0.14469900  1
  C  219  1  0.88883000  0.53292200  0.16911200  1
  C  220  1  0.86721400  0.53147900  0.18894400  1
  C  221  1  0.83485700  0.53694500  0.18521500  1
  C  222  1  0.82437500  0.54463300  0.16112300  1
  C  235  1  0.67274600  0.38479100  0.61807400  1
  C  236  1  0.67814600  0.40582800  0.59820100  1
  C  237  1  0.68536100  0.39480600  0.57415000  1
  C  238  1  0.68859800  0.36209400  0.57057400  1
  C  239  1  0.68349200  0.34048700  0.59012600  1
  C  240  1  0.67488400  0.35164300  0.61409200  1
  C  243  1  0.66142200  0.39740400  0.64091300  1
  C  244  1  0.62874400  0.40365400  0.64467100  1
  C  245  1  0.61816100  0.41090600  0.66907700  1
  C  246  1  0.63977700  0.41240100  0.68890900  1
  C  247  1  0.67214600  0.40697300  0.68518300  1
  C  248  1  0.68262100  0.39921200  0.66110600  1
  C  261  1  0.16402100  0.05166200  0.86749200  1
  C  262  1  0.18554600  0.04816000  0.84765100  1
  C  263  1  0.17537800  0.03992800  0.82355900  1
  C  264  1  0.14303400  0.03425500  0.81980300  1
  C  265  1  0.12099300  0.03778400  0.83919600  1
  C  266  1  0.13122900  0.04641700  0.86342500  1
  C  269  1  0.17563500  0.06340800  0.89056300  1
  C  270  1  0.18145200  0.09617900  0.89430700  1
  C  271  1  0.18881400  0.10685900  0.91867500  1
  C  272  1  0.19055500  0.08529600  0.93852700  1
  C  273  1  0.18536600  0.05288200  0.93487000  1
  C  274  1  0.17785900  0.04225700  0.91078000  1
  C  287  1  0.34290900  0.89212900  0.36749600  1
  C  288  1  0.32138900  0.89563100  0.34765300  1
  C  289  1  0.33156300  0.90388600  0.32356700  1
  C  290  1  0.36391100  0.90954200  0.31981600  1
  C  291  1  0.38594600  0.90602300  0.33921300  1
  C  292  1  0.37570100  0.89739200  0.36344000  1
  C  295  1  0.33129000  0.88039200  0.39056800  1
  C  296  1  0.32549400  0.84762100  0.39432800  1
  C  297  1  0.31814300  0.83695600  0.41870100  1
  C  298  1  0.31641800  0.85853000  0.43854800  1
  C  299  1  0.32159400  0.89094300  0.43487500  1
  C  300  1  0.32908200  0.90155700  0.41078000  1
  C  313  1  0.67430900  0.56115100  0.38988100  1
  C  314  1  0.67847300  0.54058800  0.41025200  1
  C  315  1  0.68470900  0.55222600  0.43426400  1
  C  316  1  0.68694000  0.58504000  0.43760800  1
  C  317  1  0.68356500  0.60615200  0.41750600  1
  C  318  1  0.67660200  0.59439400  0.39338500  1
  C  321  1  0.66332600  0.54812700  0.36708100  1
  C  322  1  0.63071200  0.54198100  0.36297300  1
  C  323  1  0.62080000  0.53305200  0.33873600  1
  C  324  1  0.64300200  0.52991400  0.31942300  1
  C  325  1  0.67519000  0.53632800  0.32327000  1
  C  326  1  0.68502700  0.54514200  0.34732100  1
  C  339  1  0.83258800  0.38264600  0.88988400  1
  C  340  1  0.82838300  0.40322200  0.91024400  1
  C  341  1  0.82218300  0.39158900  0.93426600  1
  C  342  1  0.82002000  0.35877100  0.93761800  1
  C  343  1  0.82343100  0.33765300  0.91752300  1
  C  344  1  0.83034900  0.34940600  0.89339400  1
  C  347  1  0.84358300  0.39568200  0.86709200  1
  C  348  1  0.87619900  0.40184700  0.86300600  1
  C  349  1  0.88612500  0.41078700  0.83877500  1
  C  350  1  0.86393300  0.41396600  0.81946000  1
  C  351  1  0.83174500  0.40753300  0.82328900  1
  C  352  1  0.82189400  0.39869000  0.84732800  1
  C  365  1  0.34491200  0.05001400  0.64057400  1
  C  366  1  0.32386100  0.04769900  0.66084700  1
  C  367  1  0.33464900  0.04054800  0.68495900  1
  C  368  1  0.36714700  0.03582000  0.68857400  1
  C  369  1  0.38862900  0.03766200  0.66866800  1
  C  370  1  0.37776600  0.04465300  0.64428000  1
  C  373  1  0.33293300  0.06139800  0.61750700  1
  C  374  1  0.32722000  0.09410800  0.61341000  1
  C  375  1  0.31822600  0.10414800  0.58921400  1
  C  376  1  0.31481500  0.08201300  0.56988100  1
  C  377  1  0.32094200  0.04976100  0.57366300  1
  C  378  1  0.32953400  0.03976800  0.59772300  1
  C  391  1  0.16207400  0.89375400  0.14055400  1
  C  392  1  0.18312100  0.89608000  0.16082900  1
  C  393  1  0.17234000  0.90330900  0.18492700  1
  C  394  1  0.13983500  0.90799600  0.18854200  1
  C  395  1  0.11835400  0.90613400  0.16863500  1
  C  396  1  0.12922100  0.89913500  0.14425000  1
  C  399  1  0.17405400  0.88237700  0.11748500  1
  C  400  1  0.17975000  0.84966700  0.11337800  1
  C  401  1  0.18873300  0.83963400  0.08917900  1
  C  402  1  0.19212100  0.86177200  0.06984700  1
  C  403  1  0.18601300  0.89402600  0.07364000  1
  C  404  1  0.17743700  0.90401400  0.09770500  1
  C  417  1  0.23472600  0.41099300  0.77622600  1
  C  418  1  0.25653400  0.43360900  0.76746900  1
  C  419  1  0.27297600  0.42941000  0.74519900  1
  C  420  1  0.26923600  0.40237700  0.73012000  1
  C  421  1  0.24739800  0.37977200  0.73893600  1
  C  422  1  0.23096700  0.38397200  0.76117900  1
  C  425  1  0.28538300  0.47314400  0.76187200  1
  C  428  1  0.21902700  0.33989200  0.74489500  1
  C  431  1  0.21972800  0.41457300  0.79892500  1
  C  433  1  0.28496000  0.39765200  0.70778700  1
  C  435  1  0.27224900  0.53274700  0.27622600  1
  C  436  1  0.25042500  0.51014000  0.26747500  1
  C  437  1  0.23398300  0.51434600  0.24520500  1
  C  438  1  0.23772100  0.54138300  0.23013100  1
  C  439  1  0.25954400  0.56399300  0.23895800  1
  C  440  1  0.27599600  0.55977500  0.26119000  1
  C  443  1  0.22157500  0.47060800  0.26187000  1
  C  446  1  0.28795600  0.60385000  0.24490300  1
  C  449  1  0.28722700  0.52916500  0.29893200  1
  C  451  1  0.22199600  0.54610900  0.20779800  1
  C  453  1  0.81576900  0.95324600  0.02626300  1
  C  454  1  0.79309600  0.97512100  0.01770700  1
  C  455  1  0.79715600  0.99174800  0.99550700  1
  C  456  1  0.82410600  0.98816200  0.98030700  1
  C  457  1  0.84677700  0.96627300  0.98893800  1
  C  458  1  0.84271400  0.94965300  0.01111600  1
  C  461  1  0.75345800  0.00390500  0.01235600  1
  C  464  1  0.88665500  0.93779300  0.99458200  1
  C  467  1  0.81224500  0.93796200  0.04884500  1
  C  469  1  0.82861400  0.00406500  0.95801600  1
  C  471  1  0.69117500  0.99052100  0.52628400  1
  C  472  1  0.71387400  0.96868600  0.51770600  1
  C  473  1  0.70982100  0.95206900  0.49550100  1
  C  474  1  0.68286300  0.95563500  0.48030900  1
  C  475  1  0.66017200  0.97750100  0.48895300  1
  C  476  1  0.66422700  0.99410800  0.51113800  1
  C  479  1  0.75352800  0.93992800  0.51234400  1
  C  482  1  0.62027200  0.00593900  0.49461400  1
  C  485  1  0.69470600  0.00582300  0.54885800  1
  C  487  1  0.67837000  0.93975000  0.45800700  1
  C  489  1  0.77197200  0.53360600  0.23065000  1
  C  490  1  0.75027500  0.51084500  0.23932900  1
  C  491  1  0.73376000  0.51491800  0.26157300  1
  C  492  1  0.73729800  0.54196000  0.27667800  1
  C  493  1  0.75902700  0.56470900  0.26792900  1
  C  494  1  0.77555200  0.56062200  0.24571600  1
  C  497  1  0.72171300  0.47109500  0.24487500  1
  C  500  1  0.78726300  0.60470900  0.26207700  1
  C  503  1  0.78719900  0.53005100  0.20806700  1
  C  505  1  0.72148400  0.54649000  0.29899100  1
  C  507  1  0.73498700  0.41026500  0.73065000  1
  C  508  1  0.75669900  0.43301100  0.73932700  1
  C  509  1  0.77321000  0.42893200  0.76157300  1
  C  510  1  0.76966900  0.40188300  0.77667100  1
  C  511  1  0.74795200  0.37913200  0.76790800  1
  C  512  1  0.73141300  0.38323700  0.74570500  1
  C  515  1  0.78526200  0.47275700  0.74488200  1
  C  518  1  0.71967700  0.33915800  0.76206400  1
  C  521  1  0.71977800  0.41382100  0.70805900  1
  C  523  1  0.78548100  0.39734500  0.79898400  1
  C  525  1  0.18895600  0.99031800  0.98064100  1
  C  526  1  0.21165300  0.96856600  0.98934200  1
  C  527  1  0.20762700  0.95222100  0.01167600  1
  C  528  1  0.18069700  0.95599700  0.02687200  1
  C  529  1  0.15800600  0.97777100  0.01809300  1
  C  530  1  0.16203300  0.99410100  0.99578300  1
  C  533  1  0.25128400  0.93983100  0.99486700  1
  C  536  1  0.11810100  0.00614600  0.01225100  1
  C  539  1  0.19240600  0.00531800  0.95794000  1
  C  541  1  0.17615800  0.94029700  0.04924500  1
  C  543  1  0.31800900  0.95353000  0.48062800  1
  C  544  1  0.29529100  0.97524800  0.48935300  1
  C  545  1  0.29931600  0.99158200  0.51169200  1
  C  546  1  0.32625500  0.98781600  0.52687800  1
  C  547  1  0.34895800  0.96606300  0.51808600  1
  C  548  1  0.34493300  0.94974600  0.49576800  1
  C  551  1  0.25564900  0.00396200  0.49489300  1
  C  554  1  0.38887900  0.93772000  0.51222400  1
  C  557  1  0.31454600  0.93851400  0.45793500  1
  C  559  1  0.33077900  0.00349200  0.54926400  1
  C  561  1  0.73457700  0.90800200  0.27607800  1
  C  562  1  0.75645700  0.93056700  0.26733200  1
  C  563  1  0.77293400  0.92633900  0.24507500  1
  C  564  1  0.76917000  0.89932500  0.22997700  1
  C  565  1  0.74725500  0.87677900  0.23877500  1
  C  566  1  0.73079700  0.88100200  0.26100800  1
  C  569  1  0.78542200  0.97003000  0.26177300  1
  C  572  1  0.71881300  0.83694100  0.24470600  1
  C  575  1  0.71962200  0.91156400  0.29881700  1
  C  577  1  0.78491300  0.89456000  0.20764400  1
  C  579  1  0.77240900  0.03577500  0.77607400  1
  C  580  1  0.75049900  0.01322900  0.76734300  1
  C  581  1  0.73402400  0.01745400  0.74508400  1
  C  582  1  0.73780200  0.04445800  0.72997900  1
  C  583  1  0.75971700  0.06700400  0.73877700  1
  C  584  1  0.77619200  0.06277000  0.76100300  1
  C  587  1  0.72150600  0.97378300  0.76179900  1
  C  590  1  0.78822300  0.10680600  0.74467500  1
  C  593  1  0.78734000  0.03222600  0.79882400  1
  C  595  1  0.72206100  0.04922000  0.70764400  1
  C  597  1  0.31442900  0.45287700  0.52608900  1
  C  598  1  0.29186100  0.47479500  0.51741200  1
  C  599  1  0.29613900  0.49144100  0.49524400  1
  C  600  1  0.32320900  0.48781800  0.48018900  1
  C  601  1  0.34577100  0.46588700  0.48893100  1
  C  602  1  0.34150400  0.44927100  0.51108200  1
  C  605  1  0.25236300  0.50372700  0.51190100  1
  C  608  1  0.38561100  0.43742500  0.49479500  1
  C  611  1  0.31080400  0.43775800  0.54874100  1
  C  613  1  0.32801100  0.50372100  0.45794000  1
  C  615  1  0.19255200  0.49089700  0.02610700  1
  C  616  1  0.21514400  0.46902700  0.01740000  1
  C  617  1  0.21086600  0.45239000  0.99522700  1
  C  618  1  0.18377700  0.45599100  0.98019000  1
  C  619  1  0.16119600  0.47789000  0.98895500  1
  C  620  1  0.16546400  0.49449600  0.01111200  1
  C  623  1  0.25466700  0.44014100  0.01185700  1
  C  626  1  0.12133100  0.50630700  0.99485300  1
  C  629  1  0.19620200  0.50604300  0.04874700  1
  C  631  1  0.17898900  0.44011100  0.95792700  1
  C  633  1  0.27205800  0.03669100  0.73074100  1
  C  634  1  0.25027900  0.01400300  0.73942300  1
  C  635  1  0.23378600  0.01809600  0.76168400  1
  C  636  1  0.23742000  0.04509500  0.77682300  1
  C  637  1  0.25923800  0.06776700  0.76807700  1
  C  638  1  0.27573200  0.06366400  0.74584800  1
  C  641  1  0.22155300  0.97436000  0.74493600  1
  C  644  1  0.28758200  0.10769600  0.76224000  1
  C  647  1  0.28718900  0.03316800  0.70809200  1
  C  649  1  0.22163200  0.04967100  0.79915600  1
  C  651  1  0.23488900  0.90713000  0.23074100  1
  C  652  1  0.25669400  0.92980100  0.23941200  1
  C  653  1  0.27318100  0.92570800  0.26167500  1
  C  654  1  0.26953200  0.89871600  0.27681900  1
  C  655  1  0.24771600  0.87604500  0.26807000  1
  C  656  1  0.23121000  0.88015900  0.24584600  1
  C  659  1  0.28544000  0.96943200  0.24491700  1
  C  662  1  0.21931600  0.83614800  0.26225700  1
  C  665  1  0.21978400  0.91064500  0.20808100  1
  C  667  1  0.28531800  0.89414000  0.29915400  1
  C  669  1  0.68996500  0.49064800  0.48083000  1
  C  670  1  0.71256500  0.46887900  0.48967500  1
  C  671  1  0.70832400  0.45253800  0.51198700  1
  C  672  1  0.68126800  0.45635600  0.52702700  1
  C  673  1  0.65867200  0.47814200  0.51811800  1
  C  674  1  0.66290200  0.49444700  0.49582200  1
  C  677  1  0.75207800  0.44004100  0.49539400  1
  C  680  1  0.61879200  0.50646900  0.51202500  1
  C  683  1  0.69352700  0.50546300  0.45805500  1
  C  685  1  0.67645400  0.44070100  0.54937500  1
  C  687  1  0.81696500  0.45318600  0.98082200  1
  C  688  1  0.79434100  0.47490800  0.98969800  1
  C  689  1  0.79858700  0.49123600  0.01201500  1
  C  690  1  0.82566700  0.48743700  0.02703500  1
  C  691  1  0.84827400  0.46568200  0.01810100  1
  C  692  1  0.84404200  0.44939100  0.99579900  1
  C  695  1  0.75480700  0.50370600  0.99545500  1
  C  698  1  0.88817600  0.43739900  0.01197400  1
  C  701  1  0.81337200  0.43834400  0.95805900  1
  C  703  1  0.83046700  0.50306500  0.04939800  1
  C  705  1  0.19102000  0.25707100  0.93456200  1
  C  706  1  0.21310400  0.23401200  0.94204800  1
  C  707  1  0.20707100  0.20178900  0.93924400  1
  C  708  1  0.17862200  0.19013100  0.92907700  1
  C  709  1  0.15652200  0.21323600  0.92164500  1
  C  710  1  0.16263100  0.24540700  0.92429500  1
  C  713  1  0.25239100  0.20902700  0.95516500  1
  C  716  1  0.11743200  0.23827700  0.90806700  1
  C  719  1  0.19710900  0.28901200  0.93731000  1
  C  721  1  0.17186400  0.15836200  0.92595500  1
  C  723  1  0.31597000  0.68675800  0.43459200  1
  C  724  1  0.29387600  0.70980600  0.44207900  1
  C  725  1  0.29990500  0.74203300  0.43929300  1
  C  726  1  0.32835400  0.75370400  0.42913700  1
  C  727  1  0.35046000  0.73060700  0.42169500  1
  C  728  1  0.34436100  0.69843400  0.42433600  1
  C  731  1  0.25458200  0.73477600  0.45520600  1
  C  734  1  0.38957100  0.70558500  0.40813800  1
  C  737  1  0.30989500  0.65481300  0.43733600  1
  C  739  1  0.33511500  0.78547700  0.42604600  1
  C  741  1  0.96794300  0.90651800  0.18393000  1
  C  742  1  0.99072500  0.92890400  0.19139900  1
  C  743  1  0.02302900  0.92325000  0.18867400  1
  C  744  1  0.03507200  0.89490600  0.17860200  1
  C  745  1  0.01224200  0.87249800  0.17119400  1
  C  746  1  0.97998800  0.87822800  0.17376700  1
  C  749  1  0.01519600  0.96855800  0.20444600  1
  C  752  1  0.98770900  0.83305600  0.15767000  1
  C  755  1  0.93591800  0.91227800  0.18658900  1
  C  757  1  0.06694300  0.88853800  0.17551500  1
  C  759  1  0.53903600  0.03723600  0.68392300  1
  C  760  1  0.51625500  0.01485300  0.69139800  1
  C  761  1  0.48394900  0.02052300  0.68870200  1
  C  762  1  0.47190400  0.04887000  0.67863700  1
  C  763  1  0.49473500  0.07126700  0.67121200  1
  C  764  1  0.52699100  0.06552800  0.67376500  1
  C  767  1  0.49178300  0.97521800  0.70448100  1
  C  770  1  0.51926500  0.11070300  0.65767300  1
  C  773  1  0.57106100  0.03146500  0.68656700  1
  C  775  1  0.44003200  0.05525500  0.67558800  1
  C  777  1  0.31634900  0.25408300  0.57229200  1
  C  778  1  0.29435900  0.23110900  0.56446500  1
  C  779  1  0.30026000  0.19886100  0.56724600  1
  C  780  1  0.32847900  0.18711300  0.57772100  1
  C  781  1  0.35047200  0.21012100  0.58552200  1
  C  782  1  0.34448800  0.24231600  0.58290200  1
  C  785  1  0.25531400  0.20625300  0.55075200  1
  C  788  1  0.38932800  0.23500000  0.59968000  1
  C  791  1  0.31042000  0.28604000  0.56948500  1
  C  793  1  0.33513100  0.15533400  0.58076700  1
  C  795  1  0.19059800  0.68971400  0.07226700  1
  C  796  1  0.21257600  0.71268100  0.06440900  1
  C  797  1  0.20667600  0.74493000  0.06717500  1
  C  798  1  0.17847200  0.75668600  0.07766400  1
  C  799  1  0.15649100  0.73368600  0.08550100  1
  C  800  1  0.16247000  0.70148800  0.08289100  1
  C  803  1  0.25159800  0.73752400  0.05064000  1
  C  806  1  0.11764700  0.70881900  0.09969000  1
  C  809  1  0.19652400  0.65775400  0.06946600  1
  C  811  1  0.17181300  0.78847100  0.08067600  1
  C  813  1  0.53607700  0.90610100  0.32282900  1
  C  814  1  0.51337600  0.92840400  0.31504700  1
  C  815  1  0.48104700  0.92287700  0.31775400  1
  C  816  1  0.46891900  0.89474800  0.32810600  1
  C  817  1  0.49165600  0.87243500  0.33585500  1
  C  818  1  0.52393300  0.87804400  0.33333333  1
  C  821  1  0.48902700  0.96784000  0.30144600  1
  C  824  1  0.51603300  0.83320700  0.34992300  1
  C  827  1  0.56811600  0.91171000  0.32011600  1
  C  829  1  0.43704000  0.88847900  0.33111700  1
  C  831  1  0.97087200  0.03767500  0.82284900  1
  C  832  1  0.99357100  0.01538300  0.81504700  1
  C  833  1  0.02589900  0.02092400  0.81772400  1
  C  834  1  0.03802700  0.04904900  0.82808400  1
  C  835  1  0.01529200  0.07134300  0.83586600  1
  C  836  1  0.98301300  0.06572600  0.83333900  1
  C  839  1  0.01791800  0.97598000  0.80139100  1
  C  842  1  0.99091800  0.11054900  0.84997400  1
  C  845  1  0.93883000  0.03205100  0.82015300  1
  C  847  1  0.06991000  0.05533300  0.83105800  1
  C  849  1  0.81698600  0.68583200  0.07309900  1
  C  850  1  0.79441200  0.70829100  0.06538100  1
  C  851  1  0.79967700  0.74067900  0.06795400  1
  C  852  1  0.82780200  0.75312200  0.07809900  1
  C  853  1  0.85040200  0.73061400  0.08575200  1
  C  854  1  0.84505900  0.69827800  0.08333100  1
  C  857  1  0.75457600  0.73219500  0.05202400  1
  C  860  1  0.89000200  0.70665100  0.09962800  1
  C  863  1  0.81159300  0.65372700  0.07059300  1
  C  865  1  0.83373900  0.78507400  0.08115500  1
  C  867  1  0.68996100  0.25795100  0.57307200  1
  C  868  1  0.71252300  0.23549400  0.56532500  1
  C  869  1  0.70725000  0.20310600  0.56788000  1
  C  870  1  0.67913500  0.19065900  0.57804000  1
  C  871  1  0.65655100  0.21316400  0.58572700  1
  C  872  1  0.66189700  0.24550100  0.58331800  1
  C  875  1  0.75233000  0.21159200  0.55191700  1
  C  878  1  0.61696300  0.23712100  0.59962800  1
  C  881  1  0.69535600  0.29005400  0.57057200  1
  C  883  1  0.67318900  0.15870400  0.58106000  1
  C  885  1  0.68983300  0.68880100  0.43417900  1
  C  886  1  0.71241000  0.71117100  0.44206500  1
  C  887  1  0.70725300  0.74358000  0.43954700  1
  C  888  1  0.67923800  0.75611400  0.42930700  1
  C  889  1  0.65664100  0.73370700  0.42146800  1
  C  890  1  0.66188300  0.70135000  0.42382300  1
  C  893  1  0.75218000  0.73493900  0.45569800  1
  C  896  1  0.61710900  0.70990900  0.40730400  1
  C  899  1  0.69509900  0.65668200  0.43668200  1
  C  901  1  0.67338200  0.78807400  0.42634400  1
  C  903  1  0.81714800  0.25500900  0.93421200  1
  C  904  1  0.79456700  0.23264600  0.94210400  1
  C  905  1  0.79973400  0.20023400  0.93961500  1
  C  906  1  0.82774800  0.18769300  0.92937800  1
  C  907  1  0.85033900  0.21009200  0.92151900  1
  C  908  1  0.84509400  0.24245300  0.92385800  1
  C  911  1  0.75481600  0.20888600  0.95578200  1
  C  914  1  0.88986800  0.23388000  0.90734300  1
  C  917  1  0.81188200  0.28713100  0.93671000  1
  C  919  1  0.83362100  0.15572900  0.92647000  1
  C  921  1  0.46794000  0.41134200  0.68469400  1
  C  922  1  0.49070700  0.43358000  0.69244300  1
  C  923  1  0.52300800  0.42795200  0.68968400  1
  C  924  1  0.53502500  0.39977700  0.67930900  1
  C  925  1  0.51221300  0.37751600  0.67161800  1
  C  926  1  0.47996600  0.38322200  0.67422500  1
  C  929  1  0.51518600  0.47296800  0.70596200  1
  C  932  1  0.48768500  0.33833400  0.65762800  1
  C  935  1  0.43592700  0.41703600  0.68738600  1
  C  937  1  0.56686900  0.39343800  0.67617800  1
  C  939  1  0.03904800  0.53241400  0.18466800  1
  C  940  1  0.01628000  0.51018600  0.19243500  1
  C  941  1  0.98398100  0.51583300  0.18970400  1
  C  942  1  0.97196400  0.54401200  0.17933800  1
  C  943  1  0.99477600  0.56625600  0.17162200  1
  C  944  1  0.02702100  0.56053800  0.17420700  1
  C  947  1  0.99180000  0.47081900  0.20598400  1
  C  950  1  0.01930400  0.60543700  0.15763000  1
  C  953  1  0.07106300  0.52670600  0.18734500  1
  C  955  1  0.94011500  0.55037200  0.17625100  1
  C  957  1  0.03606500  0.41101700  0.82209700  1
  C  958  1  0.01338800  0.43327800  0.81421900  1
  C  959  1  0.98106600  0.42776100  0.81692800  1
  C  960  1  0.96895500  0.39967800  0.82736500  1
  C  961  1  0.99166900  0.37740100  0.83520300  1
  C  962  1  0.02393600  0.38300100  0.83265700  1
  C  965  1  0.98905100  0.47263600  0.80048300  1
  C  968  1  0.01603200  0.33824800  0.84941500  1
  C  971  1  0.06809500  0.41657700  0.81939600  1
  C  973  1  0.93710200  0.39342400  0.83041100  1
  C  975  1  0.47087100  0.53276200  0.32211200  1
  C  976  1  0.49354400  0.51050100  0.31422400  1
  C  977  1  0.52587000  0.51603900  0.31688900  1
  C  978  1  0.53798600  0.54412900  0.32730900  1
  C  979  1  0.51527800  0.56639800  0.33517100  1
  C  980  1  0.48300500  0.56078300  0.33265700  1
  C  983  1  0.51788100  0.47116100  0.30045100  1
  C  986  1  0.49091900  0.60554400  0.34939800  1
  C  989  1  0.43884100  0.52718800  0.31943300  1
  C  991  1  0.56984700  0.55040500  0.33029600  1
  N  17  1  0.17226200  0.32972000  0.87474100  1
  N  18  1  0.10954400  0.39465300  0.88238200  1
  N  23  1  0.19107100  0.40576300  0.80238000  1
  N  24  1  0.08768500  0.40554700  0.83528800  1
  N  25  1  0.18618700  0.30877500  0.92151400  1
  N  26  1  0.19095700  0.41291400  0.95310100  1
  N  43  1  0.33472200  0.61410800  0.37475000  1
  N  44  1  0.39739100  0.54918600  0.38240400  1
  N  49  1  0.31589000  0.53795200  0.30239500  1
  N  50  1  0.41925400  0.53824900  0.33531600  1
  N  51  1  0.32082700  0.63505600  0.42154000  1
  N  52  1  0.31604100  0.53092100  0.45311500  1
  N  69  1  0.89495700  0.88633700  0.12433700  1
  N  70  1  0.82385000  0.82591100  0.13144400  1
  N  75  1  0.82020100  0.90897300  0.05185900  1
  N  76  1  0.81171100  0.80580300  0.08275400  1
  N  77  1  0.91622500  0.90088000  0.17093600  1
  N  78  1  0.81220300  0.90630400  0.20278400  1
  N  95  1  0.61202400  0.05744300  0.62432600  1
  N  96  1  0.68310600  0.11791400  0.63142200  1
  N  101  1  0.68672600  0.03480600  0.55186700  1
  N  102  1  0.69522600  0.13799700  0.58272600  1
  N  103  1  0.59075200  0.04286500  0.67091500  1
  N  104  1  0.69477200  0.03747900  0.70278200  1
  N  121  1  0.33146900  0.32799300  0.63241900  1
  N  122  1  0.39571900  0.39146900  0.62475400  1
  N  127  1  0.31217600  0.40956300  0.70295200  1
  N  128  1  0.41635600  0.40595100  0.67151400  1
  N  129  1  0.32115400  0.30584700  0.58533800  1
  N  130  1  0.31986100  0.40917700  0.55222800  1
  N  147  1  0.17548300  0.61581300  0.13242100  1
  N  148  1  0.11129100  0.55232700  0.12473300  1
  N  153  1  0.19479800  0.53417200  0.20294700  1
  N  154  1  0.09063300  0.53781300  0.17148200  1
  N  155  1  0.18580300  0.63795300  0.08532900  1
  N  156  1  0.18710200  0.53461000  0.05224000  1
  N  173  1  0.61026400  0.88941900  0.38273600  1
  N  174  1  0.68002200  0.82741000  0.37530600  1
  N  179  1  0.69048300  0.91257400  0.45336900  1
  N  180  1  0.69547100  0.80856900  0.42368400  1
  N  181  1  0.58785200  0.90045400  0.33581100  1
  N  182  1  0.69109500  0.90243100  0.30245800  1
  N  199  1  0.89668000  0.05439300  0.88276400  1
  N  200  1  0.82695900  0.11644100  0.87534300  1
  N  205  1  0.81651300  0.03124800  0.95338400  1
  N  206  1  0.81152200  0.13526300  0.92372400  1
  N  207  1  0.91909700  0.04331000  0.83584600  1
  N  208  1  0.81587700  0.04132200  0.80247100  1
  N  225  1  0.83854500  0.61300200  0.13275800  1
  N  226  1  0.89930000  0.54163800  0.12558000  1
  N  231  1  0.81620900  0.53792700  0.20509300  1
  N  232  1  0.91922600  0.52857400  0.17417900  1
  N  233  1  0.82335300  0.63424100  0.08624400  1
  N  234  1  0.81862600  0.53028400  0.05432500  1
  N  251  1  0.66842900  0.33079000  0.63275100  1
  N  252  1  0.60769800  0.40214200  0.62555000  1
  N  257  1  0.69076600  0.40596800  0.70507600  1
  N  258  1  0.58776500  0.41524000  0.67414700  1
  N  259  1  0.68361000  0.30954000  0.58622900  1
  N  260  1  0.68831000  0.41349200  0.55430500  1
  N  277  1  0.10979700  0.04986700  0.88212400  1
  N  278  1  0.17944300  0.11725100  0.87523200  1
  N  283  1  0.18458200  0.03431600  0.95481300  1
  N  284  1  0.19340600  0.13724400  0.92367400  1
  N  285  1  0.09060800  0.03349100  0.83395200  1
  N  286  1  0.19444600  0.03763600  0.80388700  1
  N  303  1  0.39712700  0.89394600  0.38214500  1
  N  304  1  0.32750500  0.82654100  0.37525800  1
  N  309  1  0.32238700  0.90951900  0.45481100  1
  N  310  1  0.31356000  0.80657300  0.42370800  1
  N  311  1  0.41633000  0.91031900  0.33397400  1
  N  312  1  0.31250100  0.90617600  0.30389000  1
  N  329  1  0.67157600  0.61480700  0.37416400  1
  N  330  1  0.60915500  0.54486700  0.38164300  1
  N  335  1  0.69437200  0.53427800  0.30367000  1
  N  336  1  0.59049500  0.52855800  0.33337600  1
  N  337  1  0.68335500  0.63717900  0.42102800  1
  N  338  1  0.68453500  0.53403000  0.45442900  1
  N  355  1  0.83539300  0.32899300  0.87417900  1
  N  356  1  0.89774200  0.39895200  0.88168500  1
  N  361  1  0.81257900  0.40957900  0.80368100  1
  N  362  1  0.91643500  0.41527100  0.83342200  1
  N  363  1  0.82363600  0.30662900  0.92105400  1
  N  364  1  0.82240200  0.40979000  0.95442700  1
  N  381  1  0.39872500  0.04672500  0.62513300  1
  N  382  1  0.33058800  0.11565800  0.63203700  1
  N  387  1  0.31873900  0.03066600  0.55401100  1
  N  388  1  0.31353200  0.13445100  0.58392800  1
  N  389  1  0.41909600  0.03348000  0.67361900  1
  N  390  1  0.31609800  0.04130600  0.70492000  1
  N  407  1  0.10826400  0.89705600  0.12510100  1
  N  408  1  0.17638700  0.82811200  0.13200100  1
  N  413  1  0.18820200  0.91312300  0.05398800  1
  N  414  1  0.19342200  0.80933200  0.08388500  1
  N  415  1  0.08788600  0.91031000  0.17358700  1
  N  416  1  0.19086600  0.90254000  0.20490200  1
  N  423  1  0.29096200  0.45477300  0.74213800  1
  N  426  1  0.21335900  0.35839400  0.76452300  1
  N  441  1  0.21599600  0.48898200  0.24214000  1
  N  444  1  0.29360600  0.58535300  0.26453800  1
  N  459  1  0.77172400  0.00968100  0.99259900  1
  N  462  1  0.86828300  0.93197800  0.01426100  1
  N  477  1  0.73526200  0.93414800  0.49258600  1
  N  480  1  0.63865400  0.01177500  0.51428400  1
  N  495  1  0.71595700  0.48941600  0.26460500  1
  N  498  1  0.79308200  0.58626600  0.24243800  1
  N  513  1  0.79101200  0.45443000  0.76461000  1
  N  516  1  0.71387900  0.35759600  0.74242000  1
  N  531  1  0.23305200  0.93430600  0.01468800  1
  N  534  1  0.13644700  0.01171700  0.99251200  1
  N  549  1  0.27388500  0.00948500  0.51471200  1
  N  552  1  0.37052000  0.93213100  0.49249400  1
  N  567  1  0.79099400  0.95165800  0.24204000  1
  N  570  1  0.71315200  0.85544600  0.26433400  1
  N  585  1  0.71594800  0.99214600  0.74206000  1
  N  588  1  0.79385600  0.08831700  0.76431900  1
  N  603  1  0.27079600  0.50947200  0.49223400  1
  N  606  1  0.36706300  0.43161600  0.51437100  1
  N  621  1  0.23622400  0.43438700  0.99219700  1
  N  624  1  0.13990000  0.51213900  0.01441300  1
  N  639  1  0.21588100  0.99266400  0.76469000  1
  N  642  1  0.29332300  0.08926700  0.74258100  1
  N  657  1  0.29109900  0.95113300  0.26467700  1
  N  660  1  0.21360500  0.85456500  0.24258300  1
  N  675  1  0.73367500  0.43455400  0.51512400  1
  N  678  1  0.63731700  0.51202200  0.49239000  1
  N  693  1  0.77322400  0.50919400  0.01517600  1
  N  696  1  0.86962700  0.43182400  0.99235500  1
  N  711  1  0.23226400  0.18660100  0.94774800  1
  N  714  1  0.13750700  0.26062800  0.91565900  1
  N  729  1  0.27470800  0.75721200  0.44780300  1
  N  732  1  0.36949600  0.68322200  0.41570900  1
  N  747  1  0.03788300  0.94867000  0.19712500  1
  N  750  1  0.96509500  0.85289200  0.16516100  1
  N  765  1  0.46909400  0.99511400  0.69717300  1
  N  768  1  0.54188200  0.09086100  0.66515500  1
  N  783  1  0.27523800  0.18374900  0.55836300  1
  N  786  1  0.36946600  0.25744000  0.59190300  1
  N  801  1  0.23168200  0.76003500  0.05825500  1
  N  804  1  0.13750300  0.68637400  0.09191500  1
  N  819  1  0.46626400  0.94814200  0.30894700  1
  N  822  1  0.53873000  0.85284300  0.34225700  1
  N  837  1  0.04068100  0.99568000  0.80888400  1
  N  840  1  0.96821900  0.09091300  0.84231100  1
  N  855  1  0.77415100  0.75516900  0.05931400  1
  N  858  1  0.87048800  0.68374900  0.09215300  1
  N  873  1  0.73276000  0.18861600  0.55920600  1
  N  876  1  0.63647700  0.26002500  0.59215900  1
  N  891  1  0.73272400  0.75799100  0.44836100  1
  N  894  1  0.63650300  0.68692300  0.41481600  1
  N  909  1  0.77427400  0.18582800  0.94845500  1
  N  912  1  0.87047900  0.25687300  0.91484700  1
  N  927  1  0.53787100  0.45319800  0.69844100  1
  N  930  1  0.46507300  0.35804900  0.66532700  1
  N  945  1  0.96911300  0.49059900  0.19847900  1
  N  948  1  0.04191500  0.58570900  0.16530500  1
  N  963  1  0.96628400  0.45297300  0.80803300  1
  N  966  1  0.03873000  0.35785100  0.84169700  1
  N  981  1  0.54065100  0.49083600  0.30797600  1
  N  984  1  0.46821600  0.58593300  0.34170300  1
  O  424  1  0.26417700  0.46139300  0.77853300  1
  O  427  1  0.24008000  0.35169400  0.72815000  1
  O  442  1  0.24278200  0.48235200  0.27853300  1
  O  445  1  0.26686500  0.59207000  0.22817400  1
  O  460  1  0.76533300  0.98259500  0.02887900  1
  O  463  1  0.87478700  0.95903900  0.97801100  1
  O  478  1  0.74163900  0.96121900  0.52887800  1
  O  481  1  0.63217200  0.98474400  0.47801900  1
  O  496  1  0.74287700  0.48300300  0.22825000  1
  O  499  1  0.76619700  0.59278900  0.27876700  1
  O  514  1  0.76409800  0.46085500  0.72825400  1
  O  517  1  0.74077500  0.35105000  0.77874100  1
  O  532  1  0.23938800  0.96094100  0.97819300  1
  O  535  1  0.12999900  0.98511600  0.02897600  1
  O  550  1  0.26755500  0.98287200  0.47820800  1
  O  553  1  0.37695600  0.95870000  0.52897400  1
  O  568  1  0.76416600  0.95832200  0.27841500  1
  O  571  1  0.73990400  0.84871800  0.22798000  1
  O  586  1  0.74277300  0.98548500  0.77843500  1
  O  589  1  0.76708700  0.09505500  0.72797200  1
  O  604  1  0.26405500  0.48237000  0.52847000  1
  O  607  1  0.37388400  0.45866700  0.47816500  1
  O  622  1  0.24296800  0.46147300  0.02844100  1
  O  625  1  0.13308300  0.48511900  0.97819100  1
  O  640  1  0.24274900  0.98621600  0.72831300  1
  O  643  1  0.26650300  0.09581200  0.77893300  1
  O  658  1  0.26423800  0.95758000  0.22829700  1
  O  661  1  0.24043500  0.84800700  0.27893200  1
  O  676  1  0.74036100  0.46116500  0.47865600  1
  O  679  1  0.63055200  0.48547000  0.52883000  1
  O  694  1  0.76653200  0.48260500  0.97869900  1
  O  697  1  0.87639200  0.45834200  0.02881100  1
  O  712  1  0.24203600  0.23924800  0.95211500  1
  O  715  1  0.12777600  0.20808300  0.91116300  1
  O  730  1  0.26494700  0.70455900  0.45214300  1
  O  733  1  0.37921800  0.73577400  0.41123600  1
  O  748  1  0.98511300  0.95782200  0.20136800  1
  O  751  1  0.01776600  0.84377600  0.16078800  1
  O  766  1  0.52186600  0.98594500  0.70138100  1
  O  769  1  0.48920800  0.09999400  0.66081500  1
  O  784  1  0.26566500  0.23644300  0.55402000  1
  O  787  1  0.37898300  0.20484400  0.59635600  1
  O  802  1  0.24125400  0.70733700  0.05393900  1
  O  805  1  0.12798600  0.73897300  0.09634300  1
  O  820  1  0.51907900  0.95710300  0.30472600  1
  O  823  1  0.48601400  0.84393400  0.34658900  1
  O  838  1  0.98786700  0.98670000  0.80469600  1
  O  841  1  0.02093700  0.09984100  0.84660800  1
  O  856  1  0.76563500  0.70226500  0.05530900  1
  O  859  1  0.87896700  0.73655300  0.09628800  1
  O  874  1  0.74128600  0.24152200  0.55523000  1
  O  877  1  0.62799100  0.20721900  0.59627000  1
  O  892  1  0.74108100  0.70504400  0.45228500  1
  O  895  1  0.62819300  0.73977100  0.41078200  1
  O  910  1  0.76591000  0.23877900  0.95234500  1
  O  913  1  0.87879100  0.20402000  0.91084500  1
  O  928  1  0.48509800  0.46231200  0.70273600  1
  O  931  1  0.51774200  0.34898100  0.66089700  1
  O  946  1  0.02188800  0.48145600  0.20273000  1
  O  949  1  0.98924600  0.59480200  0.16091600  1
  O  964  1  0.01910200  0.46192300  0.80381100  1
  O  967  1  0.98601400  0.34895600  0.84603500  1
  O  982  1  0.48782900  0.48186200  0.30380900  1
  O  985  1  0.52093400  0.59485200  0.34598500  1
