# generated using pymatgen
data_H6C13NO2
_symmetry_space_group_name_H-M   'P 1'
_cell_length_a   40.27850000
_cell_length_b   40.27850000
_cell_length_c   40.27850000
_cell_angle_alpha   90.00000000
_cell_angle_beta   90.00000000
_cell_angle_gamma   90.00000000
_symmetry_Int_Tables_number   1
_chemical_formula_structural   H6C13NO2
_chemical_formula_sum   'H288 C624 N48 O96'
_cell_volume   65346.12907109
_cell_formula_units_Z   48
loop_
 _symmetry_equiv_pos_site_id
 _symmetry_equiv_pos_as_xyz
  1  'x, y, z'
loop_
 _atom_site_type_symbol
 _atom_site_label
 _atom_site_symmetry_multiplicity
 _atom_site_fract_x
 _atom_site_fract_y
 _atom_site_fract_z
 _atom_site_occupancy
  H  7  1  0.30623800  0.33713300  0.05809800  1
  H  8  1  0.25400600  0.41572100  0.01675900  1
  H  15  1  0.41573800  0.25405600  0.99493800  1
  H  16  1  0.33713800  0.30626000  0.95359100  1
  H  19  1  0.30965200  0.35439800  0.93332700  1
  H  20  1  0.35437000  0.30965900  0.07836600  1
  H  27  1  0.70539900  0.67451400  0.05814900  1
  H  28  1  0.75757500  0.59585900  0.01687700  1
  H  35  1  0.59587400  0.75752300  0.99481100  1
  H  36  1  0.67459300  0.70540100  0.95359300  1
  H  39  1  0.70217400  0.65731300  0.93337900  1
  H  40  1  0.65732600  0.70215400  0.07834100  1
  H  47  1  0.70546100  0.33715000  0.95357600  1
  H  48  1  0.75761800  0.41582200  0.99483300  1
  H  55  1  0.59602000  0.25404600  0.01678100  1
  H  56  1  0.67461800  0.30626800  0.05811000  1
  H  59  1  0.70222100  0.35436000  0.07833600  1
  H  60  1  0.65733800  0.30966600  0.93333400  1
  H  67  1  0.30630500  0.67456800  0.95362000  1
  H  68  1  0.25406900  0.59599300  0.99498000  1
  H  75  1  0.41587000  0.75757000  0.01694300  1
  H  76  1  0.33712500  0.70548300  0.05815700  1
  H  79  1  0.30964900  0.65736300  0.07840900  1
  H  80  1  0.35437500  0.70222600  0.93341900  1
  H  87  1  0.05808900  0.30624800  0.33713000  1
  H  88  1  0.01674400  0.25405600  0.41574000  1
  H  95  1  0.99492500  0.41572800  0.25402900  1
  H  96  1  0.95358100  0.33712300  0.30622300  1
  H  99  1  0.93331200  0.30962700  0.35435300  1
  H  100  1  0.07835200  0.35437000  0.30964200  1
  H  107  1  0.05815600  0.70540100  0.67450100  1
  H  108  1  0.01688600  0.75757000  0.59584100  1
  H  115  1  0.99481100  0.59588400  0.75752300  1
  H  116  1  0.95359300  0.67459600  0.70538900  1
  H  119  1  0.93338600  0.70218100  0.65730400  1
  H  120  1  0.07834300  0.65733600  0.70215600  1
  H  127  1  0.95358600  0.70545800  0.33713800  1
  H  128  1  0.99484800  0.75762300  0.41580200  1
  H  135  1  0.01678000  0.59600500  0.25404400  1
  H  136  1  0.05811500  0.67460800  0.30625500  1
  H  139  1  0.07834600  0.70221300  0.35434500  1
  H  140  1  0.93333900  0.65732800  0.30966900  1
  H  147  1  0.95361800  0.30631200  0.67455100  1
  H  148  1  0.99497700  0.25406900  0.59598300  1
  H  155  1  0.01693500  0.41587700  0.75755600  1
  H  156  1  0.05815500  0.33713500  0.70547100  1
  H  159  1  0.07840700  0.30964400  0.65735800  1
  H  160  1  0.93341600  0.35438500  0.70220600  1
  H  167  1  0.33717000  0.05813000  0.30627800  1
  H  168  1  0.41583200  0.01687500  0.25410600  1
  H  175  1  0.25406900  0.99491500  0.41571800  1
  H  176  1  0.30629500  0.95359100  0.33712000  1
  H  179  1  0.35438800  0.93336600  0.30951300  1
  H  180  1  0.30968600  0.07836600  0.35440200  1
  H  187  1  0.67454100  0.05812400  0.70543800  1
  H  188  1  0.59596600  0.01675600  0.75766500  1
  H  195  1  0.75755300  0.99482600  0.59586600  1
  H  196  1  0.70546100  0.95359100  0.67459800  1
  H  199  1  0.65734100  0.93333700  0.70207400  1
  H  200  1  0.70220100  0.07833500  0.65737300  1
  H  207  1  0.33708800  0.95361500  0.70551300  1
  H  208  1  0.41569100  0.99494800  0.75772700  1
  H  215  1  0.25402900  0.01676700  0.59600300  1
  H  216  1  0.30621800  0.05811500  0.67461300  1
  H  219  1  0.35435500  0.07838200  0.70209700  1
  H  220  1  0.30963400  0.93334200  0.65737100  1
  H  227  1  0.67455300  0.95359800  0.30633700  1
  H  228  1  0.59591300  0.99486300  0.25413600  1
  H  235  1  0.75754800  0.01695400  0.41586700  1
  H  236  1  0.70543600  0.05815800  0.33713300  1
  H  239  1  0.65735300  0.07836800  0.30954200  1
  H  240  1  0.70218600  0.93341400  0.35441700  1
  H  247  1  0.80646000  0.83725300  0.55816900  1
  H  248  1  0.75300000  0.91496500  0.51682900  1
  H  255  1  0.91498900  0.75305400  0.49486900  1
  H  256  1  0.83726600  0.80648200  0.45352000  1
  H  259  1  0.80922300  0.85445800  0.43339300  1
  H  260  1  0.85443400  0.80923300  0.57829900  1
  H  267  1  0.20524000  0.17431600  0.55819400  1
  H  268  1  0.25867400  0.09666500  0.51673500  1
  H  275  1  0.09670300  0.25863400  0.49498100  1
  H  276  1  0.17438600  0.20522200  0.45355000  1
  H  279  1  0.20251700  0.15734700  0.43338800  1
  H  280  1  0.15737000  0.20247500  0.57834600  1
  H  287  1  0.20525400  0.83734000  0.45352500  1
  H  288  1  0.25872900  0.91497400  0.49497400  1
  H  295  1  0.09675000  0.75303200  0.51679900  1
  H  296  1  0.17449600  0.80640500  0.55816600  1
  H  299  1  0.20255300  0.85433400  0.57833600  1
  H  300  1  0.15733200  0.80923100  0.43339700  1
  H  307  1  0.80642800  0.17446600  0.45356700  1
  H  308  1  0.75302500  0.09674600  0.49494400  1
  H  315  1  0.91500400  0.25869400  0.51677700  1
  H  316  1  0.83733300  0.20525500  0.55821600  1
  H  319  1  0.80921300  0.15733700  0.57834300  1
  H  320  1  0.85434200  0.20254300  0.43341000  1
  H  327  1  0.55817900  0.80641000  0.83724600  1
  H  328  1  0.51682400  0.75299000  0.91497200  1
  H  335  1  0.49497100  0.91501400  0.75307900  1
  H  336  1  0.45353000  0.83736700  0.80653500  1
  H  339  1  0.43341200  0.80925600  0.85446600  1
  H  340  1  0.57834800  0.85433700  0.80919600  1
  H  347  1  0.55821800  0.20522400  0.17431300  1
  H  348  1  0.51675000  0.25869400  0.09668600  1
  H  355  1  0.49491700  0.09672400  0.25864700  1
  H  356  1  0.45357200  0.17448700  0.20527600  1
  H  359  1  0.43340000  0.20253900  0.15736100  1
  H  360  1  0.57833300  0.15732400  0.20248400  1
  H  367  1  0.45355000  0.20525600  0.83734000  1
  H  368  1  0.49498900  0.25869600  0.91499700  1
  H  375  1  0.51674700  0.09671000  0.75304700  1
  H  376  1  0.55819600  0.17437100  0.80647200  1
  H  379  1  0.57835100  0.20251600  0.85435200  1
  H  380  1  0.43339000  0.15738100  0.80920300  1
  H  387  1  0.45357200  0.80646500  0.17445600  1
  H  388  1  0.49493400  0.75303000  0.09674700  1
  H  395  1  0.51686900  0.91498900  0.25869600  1
  H  396  1  0.55822100  0.83725100  0.20528300  1
  H  399  1  0.57835300  0.80919100  0.15732800  1
  H  400  1  0.43344700  0.85441600  0.20252200  1
  H  407  1  0.83725300  0.55818900  0.80644000  1
  H  408  1  0.91495700  0.51683400  0.75297500  1
  H  415  1  0.75305700  0.49488700  0.91497900  1
  H  416  1  0.80647500  0.45354000  0.83724800  1
  H  419  1  0.85444800  0.43341000  0.80921600  1
  H  420  1  0.80922300  0.57831800  0.85441100  1
  H  427  1  0.17432600  0.55820100  0.20524800  1
  H  428  1  0.09667500  0.51673200  0.25867400  1
  H  435  1  0.25863400  0.49499100  0.09668900  1
  H  436  1  0.20523500  0.45355500  0.17437700  1
  H  439  1  0.15736200  0.43339300  0.20251100  1
  H  440  1  0.20250000  0.57835100  0.15738500  1
  H  447  1  0.83733300  0.45354200  0.20523300  1
  H  448  1  0.91497700  0.49497600  0.25870600  1
  H  455  1  0.75302700  0.51681900  0.09674100  1
  H  456  1  0.80641000  0.55818600  0.17448200  1
  H  459  1  0.85433700  0.57835300  0.20254900  1
  H  460  1  0.80923800  0.43341500  0.15730600  1
  H  467  1  0.17445700  0.45358200  0.80644000  1
  H  468  1  0.09673500  0.49494900  0.75303400  1
  H  475  1  0.25868100  0.51679900  0.91501200  1
  H  476  1  0.20524100  0.55823100  0.83734000  1
  H  479  1  0.15732600  0.57835300  0.80921300  1
  H  480  1  0.20253900  0.43342500  0.85435200  1
  H  487  1  0.44618300  0.29537300  0.88268900  1
  H  488  1  0.40644500  0.31475400  0.92183400  1
  H  492  1  0.39860000  0.15749300  0.94573500  1
  H  499  1  0.56564700  0.71626600  0.88236200  1
  H  500  1  0.60534500  0.69682800  0.92156600  1
  H  504  1  0.61211800  0.85378600  0.94661700  1
  H  511  1  0.56553000  0.29534600  0.12899400  1
  H  512  1  0.60528800  0.31474400  0.08986600  1
  H  516  1  0.61322000  0.15748500  0.06595200  1
  H  523  1  0.44613600  0.71636500  0.12935800  1
  H  524  1  0.40641500  0.69690500  0.09017300  1
  H  528  1  0.39953800  0.85386000  0.06510400  1
  H  535  1  0.88267200  0.44615600  0.29536600  1
  H  536  1  0.92182200  0.40641800  0.31473400  1
  H  540  1  0.94571800  0.39862000  0.15746900  1
  H  547  1  0.88234900  0.56566400  0.71626800  1
  H  548  1  0.92155600  0.60536000  0.69682800  1
  H  552  1  0.94662700  0.61211600  0.85378300  1
  H  559  1  0.12898700  0.56550800  0.29534400  1
  H  560  1  0.08986100  0.60526800  0.31474100  1
  H  564  1  0.06596200  0.61321300  0.15748100  1
  H  571  1  0.12934500  0.44615600  0.71635700  1
  H  572  1  0.09016300  0.40643500  0.69689300  1
  H  576  1  0.06510300  0.39953300  0.85384800  1
  H  583  1  0.29540100  0.88268200  0.44617100  1
  H  584  1  0.31478100  0.92182700  0.40643300  1
  H  588  1  0.15751900  0.94570800  0.39856000  1
  H  595  1  0.71630000  0.88234400  0.56567400  1
  H  596  1  0.69687300  0.92155600  0.60537000  1
  H  600  1  0.85382800  0.94664900  0.61205900  1
  H  607  1  0.29533100  0.12898300  0.56552300  1
  H  608  1  0.31471900  0.08985500  0.60528600  1
  H  612  1  0.15745500  0.06594800  0.61317800  1
  H  619  1  0.71633800  0.12934600  0.44616400  1
  H  620  1  0.69687100  0.09016600  0.40644300  1
  H  624  1  0.85382800  0.06513300  0.39949400  1
  H  631  1  0.29531600  0.44619300  0.12895400  1
  H  632  1  0.31469600  0.40645800  0.08981800  1
  H  636  1  0.15743500  0.39854800  0.06600600  1
  H  643  1  0.71630300  0.56562400  0.12936400  1
  H  644  1  0.69682100  0.60530800  0.09013600  1
  H  648  1  0.85382500  0.61217500  0.06511800  1
  H  655  1  0.29535400  0.56560200  0.88264000  1
  H  656  1  0.31480300  0.60529300  0.92180200  1
  H  660  1  0.15754500  0.61319300  0.94582000  1
  H  667  1  0.71635700  0.44606200  0.88236400  1
  H  668  1  0.69690000  0.40636300  0.92158100  1
  H  672  1  0.85389000  0.39955300  0.94659900  1
  H  679  1  0.44616600  0.88271700  0.71643700  1
  H  680  1  0.40642000  0.92184400  0.69705400  1
  H  684  1  0.39852800  0.94576300  0.85429000  1
  H  691  1  0.56566700  0.88238600  0.29539800  1
  H  692  1  0.60533300  0.92161100  0.31489500  1
  H  696  1  0.61226200  0.94659900  0.15789700  1
  H  703  1  0.56553500  0.12907600  0.71638200  1
  H  704  1  0.60524300  0.08992200  0.69693300  1
  H  708  1  0.61320100  0.06592100  0.85419800  1
  H  715  1  0.44610900  0.12931300  0.29535900  1
  H  716  1  0.40642000  0.09010500  0.31482800  1
  H  720  1  0.39950300  0.06515500  0.15784000  1
  H  727  1  0.88264200  0.29536400  0.56558500  1
  H  728  1  0.92180400  0.31481100  0.60527600  1
  H  732  1  0.94580700  0.15755000  0.61317800  1
  H  739  1  0.88237400  0.71636000  0.44603900  1
  H  740  1  0.92159100  0.69690500  0.40634300  1
  H  744  1  0.94661400  0.85389200  0.39953800  1
  H  751  1  0.12908800  0.29530400  0.44615100  1
  H  752  1  0.08994800  0.31473100  0.40644500  1
  H  756  1  0.06586700  0.15751800  0.39859000  1
  H  763  1  0.12937100  0.71630300  0.56560400  1
  H  764  1  0.09014400  0.69681800  0.60528600  1
  H  768  1  0.06512700  0.85382300  0.61216000  1
  H  775  1  0.54698400  0.71898700  0.11397800  1
  H  776  1  0.58458000  0.69604600  0.07460100  1
  H  780  1  0.60518900  0.85251700  0.04851600  1
  H  787  1  0.46476200  0.29276200  0.11394600  1
  H  788  1  0.42711600  0.31568200  0.07458800  1
  H  792  1  0.40689200  0.15927500  0.04820500  1
  H  799  1  0.46473700  0.71900100  0.89776700  1
  H  800  1  0.42712600  0.69608100  0.93714300  1
  H  804  1  0.40661900  0.85256200  0.96325300  1
  H  811  1  0.54699200  0.29275400  0.89775400  1
  H  812  1  0.58463000  0.31567000  0.93711500  1
  H  816  1  0.60483600  0.15926300  0.96351400  1
  H  823  1  0.11398300  0.54699700  0.71899900  1
  H  824  1  0.07460800  0.58459200  0.69605400  1
  H  828  1  0.04850000  0.60519600  0.85251900  1
  H  835  1  0.11394100  0.46474400  0.29273700  1
  H  836  1  0.07457700  0.42710600  0.31565500  1
  H  840  1  0.04819400  0.40688700  0.15924800  1
  H  847  1  0.89776700  0.46475200  0.71897700  1
  H  848  1  0.93714300  0.42713900  0.69605900  1
  H  852  1  0.96322600  0.40661400  0.85254200  1
  H  859  1  0.89775700  0.54697900  0.29277200  1
  H  860  1  0.93712500  0.58461700  0.31568200  1
  H  864  1  0.96348900  0.60482600  0.15926800  1
  H  871  1  0.71899900  0.11399000  0.54700600  1
  H  872  1  0.69606900  0.07461400  0.58461000  1
  H  876  1  0.85254400  0.04851900  0.60516700  1
  H  883  1  0.29274700  0.11393600  0.46475400  1
  H  884  1  0.31568000  0.07457700  0.42712100  1
  H  888  1  0.15928000  0.04817300  0.40686500  1
  H  895  1  0.71898900  0.89777700  0.46475400  1
  H  896  1  0.69606100  0.93715500  0.42715300  1
  H  900  1  0.85253700  0.96324300  0.40659200  1
  H  907  1  0.29277900  0.89775400  0.54698900  1
  H  908  1  0.31567500  0.93711800  0.58463900  1
  H  912  1  0.15925500  0.96347700  0.60480200  1
  H  919  1  0.71902100  0.54692700  0.89778200  1
  H  920  1  0.69609100  0.58455300  0.93713500  1
  H  924  1  0.85255700  0.60517600  0.96318600  1
  H  931  1  0.29274700  0.46480400  0.89778200  1
  H  932  1  0.31566000  0.42714100  0.93712500  1
  H  936  1  0.15924600  0.40688000  0.96345700  1
  H  943  1  0.71901600  0.46475700  0.11393400  1
  H  944  1  0.69611100  0.42711900  0.07457500  1
  H  948  1  0.85259400  0.40656700  0.04855400  1
  H  955  1  0.29271200  0.54697200  0.11397700  1
  H  956  1  0.31565000  0.58462200  0.07463900  1
  H  960  1  0.15926000  0.60489100  0.04820300  1
  H  967  1  0.54695700  0.11394800  0.29268200  1
  H  968  1  0.58459700  0.07461000  0.31561800  1
  H  972  1  0.60523100  0.04854400  0.15915400  1
  H  979  1  0.46474700  0.11394900  0.71898700  1
  H  980  1  0.42709400  0.07459200  0.69608100  1
  H  984  1  0.40688700  0.04824300  0.85249700  1
  H  991  1  0.46480600  0.89780400  0.29271700  1
  H  992  1  0.42715100  0.93714800  0.31562200  1
  H  996  1  0.40656400  0.96313700  0.15913600  1
  H  1003  1  0.54695200  0.89775700  0.71899200  1
  H  1004  1  0.58459500  0.93711000  0.69606600  1
  H  1008  1  0.60485400  0.96350400  0.85246200  1
  H  1015  1  0.11394700  0.71901600  0.46473900  1
  H  1016  1  0.07458500  0.69611100  0.42710400  1
  H  1020  1  0.04857300  0.85259600  0.40654400  1
  H  1027  1  0.11398200  0.29270200  0.54696400  1
  H  1028  1  0.07464500  0.31564200  0.58461500  1
  H  1032  1  0.04819100  0.15925500  0.60487900  1
  H  1039  1  0.89779200  0.71902100  0.54691000  1
  H  1040  1  0.93714000  0.69609100  0.58453800  1
  H  1044  1  0.96320400  0.85255700  0.60515900  1
  H  1051  1  0.89775400  0.29275400  0.46477200  1
  H  1052  1  0.93709500  0.31566700  0.42710400  1
  H  1056  1  0.96347700  0.15925400  0.40689700  1
  C  1  1  0.31875800  0.34471200  0.00709900  1
  C  2  1  0.30213100  0.35159500  0.03783000  1
  C  3  1  0.27902700  0.37774000  0.04223600  1
  C  4  1  0.26990100  0.39600500  0.01395600  1
  C  5  1  0.28279900  0.38912300  0.98219600  1
  C  6  1  0.30850000  0.36488700  0.97946800  1
  C  9  1  0.34470500  0.31878300  0.00459100  1
  C  10  1  0.36487500  0.30852700  0.03222800  1
  C  11  1  0.38911300  0.28282800  0.02950200  1
  C  12  1  0.39603500  0.26996800  0.99773600  1
  C  13  1  0.37778200  0.27910200  0.96945000  1
  C  14  1  0.35160700  0.30217100  0.97385700  1
  C  21  1  0.69292800  0.66696100  0.00713100  1
  C  22  1  0.70950000  0.66004700  0.03788500  1
  C  23  1  0.73253500  0.63384400  0.04232000  1
  C  24  1  0.74170600  0.61559100  0.01405100  1
  C  25  1  0.72888500  0.62251300  0.98226800  1
  C  26  1  0.70321400  0.64677700  0.97951000  1
  C  29  1  0.66699400  0.69290300  0.00459800  1
  C  30  1  0.64679900  0.70318700  0.03221100  1
  C  31  1  0.62251800  0.72884300  0.02943500  1
  C  32  1  0.61561100  0.74166100  0.99764900  1
  C  33  1  0.63389600  0.73251200  0.96939600  1
  C  34  1  0.66010900  0.70949500  0.97384700  1
  C  41  1  0.69298500  0.34472200  0.00458800  1
  C  42  1  0.70957700  0.35161400  0.97384000  1
  C  43  1  0.73266100  0.37777000  0.96940300  1
  C  44  1  0.74177000  0.39607200  0.99766400  1
  C  45  1  0.72893500  0.38917000  0.02944500  1
  C  46  1  0.70327100  0.36489700  0.03220900  1
  C  49  1  0.66704100  0.31878500  0.00710800  1
  C  50  1  0.64686100  0.30852700  0.97947800  1
  C  51  1  0.62262700  0.28282100  0.98221100  1
  C  52  1  0.61571800  0.26996000  0.01397900  1
  C  53  1  0.63397300  0.27910200  0.04225900  1
  C  54  1  0.66014600  0.30217600  0.03784600  1
  C  61  1  0.31879800  0.66703100  0.00463500  1
  C  62  1  0.30220600  0.66011400  0.97389200  1
  C  63  1  0.27914900  0.63392100  0.96948700  1
  C  64  1  0.26997000  0.61570300  0.99777500  1
  C  65  1  0.28283600  0.62262000  0.02954000  1
  C  66  1  0.30853400  0.64685900  0.03226900  1
  C  69  1  0.34473500  0.69297300  0.00715800  1
  C  70  1  0.36492700  0.70324900  0.97954200  1
  C  71  1  0.38921800  0.72889800  0.98231800  1
  C  72  1  0.39612900  0.74171300  0.01410400  1
  C  73  1  0.37783400  0.73257900  0.04235700  1
  C  74  1  0.35161400  0.70957000  0.03790600  1
  C  81  1  0.00708300  0.31875300  0.34468800  1
  C  82  1  0.03781600  0.30213600  0.35158500  1
  C  83  1  0.04222100  0.27903500  0.37773000  1
  C  84  1  0.01394200  0.26992600  0.39600500  1
  C  85  1  0.98217900  0.28280600  0.38910600  1
  C  86  1  0.97944800  0.30849200  0.36485500  1
  C  89  1  0.00457800  0.34469800  0.31875600  1
  C  90  1  0.03221400  0.36487000  0.30850200  1
  C  91  1  0.02948800  0.38910600  0.28280100  1
  C  92  1  0.99772300  0.39602500  0.26993800  1
  C  93  1  0.96944000  0.37777200  0.27906900  1
  C  94  1  0.97384500  0.35159500  0.30213900  1
  C  101  1  0.00713600  0.69293000  0.66695100  1
  C  102  1  0.03789200  0.70950000  0.66003500  1
  C  103  1  0.04232900  0.73253200  0.63382700  1
  C  104  1  0.01405900  0.74170100  0.61557400  1
  C  105  1  0.98227800  0.72888300  0.62249800  1
  C  106  1  0.97951500  0.70321400  0.64676700  1
  C  109  1  0.00460000  0.66699900  0.69289800  1
  C  110  1  0.03221400  0.64680700  0.70318700  1
  C  111  1  0.02943600  0.62252800  0.72884500  1
  C  112  1  0.99764900  0.61562100  0.74166100  1
  C  113  1  0.96939600  0.63390400  0.73250700  1
  C  114  1  0.97384700  0.66011400  0.70948800  1
  C  121  1  0.00459600  0.69298000  0.34471000  1
  C  122  1  0.97385000  0.70957700  0.35159900  1
  C  123  1  0.96941500  0.73266400  0.37775500  1
  C  124  1  0.99767600  0.74177300  0.39605500  1
  C  125  1  0.02945800  0.72893500  0.38915600  1
  C  126  1  0.03221900  0.70326800  0.36488400  1
  C  129  1  0.00711400  0.66703300  0.31878000  1
  C  130  1  0.97948500  0.64685100  0.30852400  1
  C  131  1  0.98221400  0.62261800  0.28282300  1
  C  132  1  0.01398000  0.61570600  0.26995800  1
  C  133  1  0.04226100  0.63396100  0.27909700  1
  C  134  1  0.03785100  0.66013600  0.30216900  1
  C  141  1  0.00463500  0.31880300  0.66701600  1
  C  142  1  0.97389200  0.30221100  0.66009700  1
  C  143  1  0.96948500  0.27915400  0.63390900  1
  C  144  1  0.99777500  0.26997300  0.61569100  1
  C  145  1  0.02954000  0.28283600  0.62260800  1
  C  146  1  0.03226900  0.30853400  0.64684600  1
  C  149  1  0.00715500  0.34474200  0.69295800  1
  C  150  1  0.97953700  0.36493200  0.70323100  1
  C  151  1  0.98231300  0.38922500  0.72888000  1
  C  152  1  0.01409700  0.39613700  0.74170100  1
  C  153  1  0.04235100  0.37784400  0.73256500  1
  C  154  1  0.03790300  0.35162400  0.70955500  1
  C  161  1  0.34474200  0.00711700  0.31875100  1
  C  162  1  0.35163200  0.03786600  0.30215900  1
  C  163  1  0.37778700  0.04230200  0.27907200  1
  C  164  1  0.39608700  0.01404300  0.26995800  1
  C  165  1  0.38918800  0.98226100  0.28279400  1
  C  166  1  0.36491700  0.97949500  0.30846000  1
  C  169  1  0.31881000  0.00459300  0.34469500  1
  C  170  1  0.30854700  0.03222100  0.36487500  1
  C  171  1  0.28284300  0.02948700  0.38910800  1
  C  172  1  0.26998500  0.99771800  0.39601800  1
  C  173  1  0.27912700  0.96943800  0.37776500  1
  C  174  1  0.30220100  0.97385500  0.35159200  1
  C  181  1  0.66700600  0.00711000  0.69293500  1
  C  182  1  0.66008700  0.03785000  0.70953200  1
  C  183  1  0.63389400  0.04225200  0.73258700  1
  C  184  1  0.61567600  0.01396100  0.74176000  1
  C  185  1  0.62259000  0.98219900  0.72889000  1
  C  186  1  0.64683400  0.97947500  0.70319400  1
  C  189  1  0.69295000  0.00459300  0.66700100  1
  C  190  1  0.70322600  0.03221300  0.64681700  1
  C  191  1  0.72887800  0.02944200  0.62252800  1
  C  192  1  0.74169600  0.99765900  0.61560900  1
  C  193  1  0.73256000  0.96940100  0.63389600  1
  C  194  1  0.70954700  0.97384700  0.66011400  1
  C  201  1  0.34467300  0.00461300  0.69299000  1
  C  202  1  0.35155200  0.97388200  0.70961900  1
  C  203  1  0.37769500  0.96947500  0.73272300  1
  C  204  1  0.39597100  0.99775300  0.74184000  1
  C  205  1  0.38909100  0.02951300  0.72894500  1
  C  206  1  0.36485000  0.03224400  0.70324900  1
  C  209  1  0.31874600  0.00711600  0.66704100  1
  C  210  1  0.30849700  0.97948000  0.64686900  1
  C  211  1  0.28280100  0.98220400  0.62262500  1
  C  212  1  0.26993600  0.01396900  0.61570800  1
  C  213  1  0.27906500  0.04225300  0.63396400  1
  C  214  1  0.30213100  0.03784900  0.66014400  1
  C  221  1  0.66699900  0.00461800  0.31879800  1
  C  222  1  0.66008900  0.97386000  0.30222800  1
  C  223  1  0.63389200  0.96942300  0.27918900  1
  C  224  1  0.61564100  0.99769100  0.27001300  1
  C  225  1  0.62256000  0.02947500  0.28283100  1
  C  226  1  0.64681900  0.03223700  0.30850700  1
  C  229  1  0.69293800  0.00715500  0.34474000  1
  C  230  1  0.70321600  0.97954500  0.36493900  1
  C  231  1  0.72887000  0.98232600  0.38922500  1
  C  232  1  0.74168800  0.01411200  0.39612900  1
  C  233  1  0.73254200  0.04236300  0.37783700  1
  C  234  1  0.70952700  0.03790700  0.35162200  1
  C  241  1  0.81880700  0.84476800  0.50711700  1
  C  242  1  0.80224400  0.85162600  0.53787800  1
  C  243  1  0.77892900  0.87756700  0.54227400  1
  C  244  1  0.76936100  0.89562400  0.51401600  1
  C  245  1  0.78273500  0.88920400  0.48233700  1
  C  246  1  0.80847100  0.86498800  0.47954100  1
  C  249  1  0.84476600  0.81883400  0.50457200  1
  C  250  1  0.86498000  0.80850300  0.53215200  1
  C  251  1  0.88920400  0.78277500  0.52936200  1
  C  252  1  0.89566600  0.76943800  0.49767700  1
  C  253  1  0.87762500  0.77900900  0.46940900  1
  C  254  1  0.85164800  0.80228700  0.47380900  1
  C  261  1  0.19290100  0.16691100  0.50712400  1
  C  262  1  0.20944200  0.15997500  0.53788000  1
  C  263  1  0.23273300  0.13400300  0.54225000  1
  C  264  1  0.24231700  0.11601400  0.51395200  1
  C  265  1  0.22897600  0.12251300  0.48227700  1
  C  266  1  0.20324300  0.14673300  0.47951900  1
  C  269  1  0.16695200  0.19286600  0.50460900  1
  C  270  1  0.14676900  0.20320800  0.53221200  1
  C  271  1  0.12254100  0.22893400  0.52944400  1
  C  272  1  0.11605200  0.24227700  0.49776700  1
  C  273  1  0.13406100  0.23270500  0.46948100  1
  C  274  1  0.16004000  0.20942500  0.47385800  1
  C  281  1  0.19294800  0.84474600  0.50459900  1
  C  282  1  0.20949400  0.85166500  0.47384100  1
  C  283  1  0.23284800  0.87758000  0.46946900  1
  C  284  1  0.24238900  0.89560900  0.49775900  1
  C  285  1  0.22902000  0.88914900  0.52943100  1
  C  286  1  0.20329700  0.86492000  0.53220000  1
  C  289  1  0.16698900  0.81880400  0.50712700  1
  C  290  1  0.14677300  0.80848600  0.47954100  1
  C  291  1  0.12254600  0.78276000  0.48231900  1
  C  292  1  0.11607700  0.76941300  0.51399900  1
  C  293  1  0.13412200  0.77896100  0.54226900  1
  C  294  1  0.16010600  0.80223400  0.53787800  1
  C  301  1  0.81880700  0.16697900  0.50461700  1
  C  302  1  0.80224400  0.16008700  0.47386100  1
  C  303  1  0.77896600  0.13411000  0.46946900  1
  C  304  1  0.76939600  0.11608300  0.49774700  1
  C  305  1  0.78275300  0.12254200  0.52942100  1
  C  306  1  0.80848100  0.14676500  0.53220200  1
  C  309  1  0.84475600  0.19292900  0.50714600  1
  C  310  1  0.86493800  0.20327100  0.47954400  1
  C  311  1  0.88916900  0.22899200  0.48231400  1
  C  312  1  0.89565400  0.24233700  0.51399100  1
  C  313  1  0.87764900  0.23276000  0.54228200  1
  C  314  1  0.85167300  0.20947400  0.53790200  1
  C  321  1  0.50713900  0.81880400  0.84477100  1
  C  322  1  0.53788700  0.80221700  0.85162300  1
  C  323  1  0.54227700  0.77890400  0.87757000  1
  C  324  1  0.51401600  0.76935300  0.89562900  1
  C  325  1  0.48234200  0.78274300  0.88920900  1
  C  326  1  0.47956100  0.80848100  0.86499500  1
  C  329  1  0.50460700  0.84476600  0.81883400  1
  C  330  1  0.53221200  0.86493800  0.80848300  1
  C  331  1  0.52944100  0.88916700  0.78276000  1
  C  332  1  0.49775700  0.89567100  0.76944000  1
  C  333  1  0.46946600  0.87765200  0.77899600  1
  C  334  1  0.47384300  0.85170500  0.80231100  1
  C  341  1  0.50714200  0.19291600  0.16692600  1
  C  342  1  0.53790200  0.20944300  0.15998100  1
  C  343  1  0.54226900  0.23274100  0.13401300  1
  C  344  1  0.51396900  0.24233400  0.11603300  1
  C  345  1  0.48229500  0.22899300  0.12253100  1
  C  346  1  0.47953400  0.20326200  0.14675100  1
  C  349  1  0.50461200  0.16697200  0.19288400  1
  C  350  1  0.53219500  0.14675400  0.20321100  1
  C  351  1  0.52940400  0.12251800  0.22892800  1
  C  352  1  0.49772500  0.11606600  0.24228400  1
  C  353  1  0.46946100  0.13412100  0.23272800  1
  C  354  1  0.47386100  0.16010500  0.20945900  1
  C  361  1  0.50461400  0.19291900  0.84475800  1
  C  362  1  0.47386300  0.20947800  0.85167300  1
  C  363  1  0.46948900  0.23282400  0.87759500  1
  C  364  1  0.49777700  0.24235700  0.89563200  1
  C  365  1  0.52944900  0.22899000  0.88916700  1
  C  366  1  0.53221400  0.20326500  0.86494000  1
  C  369  1  0.50713200  0.16695800  0.81881400  1
  C  370  1  0.47952400  0.14678100  0.80847400  1
  C  371  1  0.48228700  0.12255200  0.78274800  1
  C  372  1  0.51396400  0.11605300  0.76941300  1
  C  373  1  0.54225700  0.13407800  0.77895200  1
  C  374  1  0.53788500  0.16002700  0.80226700  1
  C  381  1  0.50462900  0.81880900  0.16697300  1
  C  382  1  0.47386600  0.80226700  0.16008200  1
  C  383  1  0.46946900  0.77898400  0.13410900  1
  C  384  1  0.49774200  0.76939800  0.11608200  1
  C  385  1  0.52942400  0.78274800  0.12253800  1
  C  386  1  0.53221200  0.80847400  0.14676100  1
  C  389  1  0.50717100  0.84475300  0.19292400  1
  C  390  1  0.47959100  0.86497300  0.20325200  1
  C  391  1  0.48238100  0.88920600  0.22896900  1
  C  392  1  0.51406100  0.89564900  0.24233100  1
  C  393  1  0.54232400  0.87760000  0.23276700  1
  C  394  1  0.53793000  0.85162600  0.20948700  1
  C  401  1  0.84476300  0.50713700  0.81878900  1
  C  402  1  0.85162300  0.53789500  0.80222500  1
  C  403  1  0.87756200  0.54228700  0.77890400  1
  C  404  1  0.89561700  0.51402400  0.76934100  1
  C  405  1  0.88919600  0.48234900  0.78272000  1
  C  406  1  0.86498000  0.47955900  0.80845600  1
  C  409  1  0.81882600  0.50459200  0.84474800  1
  C  410  1  0.80849800  0.53217200  0.86496300  1
  C  411  1  0.78277200  0.52938200  0.88918900  1
  C  412  1  0.76943800  0.49769500  0.89565400  1
  C  413  1  0.77900600  0.46942700  0.87761200  1
  C  414  1  0.80227900  0.47382800  0.85163300  1
  C  421  1  0.16692600  0.50713200  0.19290300  1
  C  422  1  0.15998500  0.53788700  0.20944600  1
  C  423  1  0.13401100  0.54225200  0.23273700  1
  C  424  1  0.11602400  0.51395400  0.24231700  1
  C  425  1  0.12252500  0.48228000  0.22897200  1
  C  426  1  0.14674700  0.47952600  0.20324000  1
  C  429  1  0.19288100  0.50461700  0.16695300  1
  C  430  1  0.20322400  0.53222200  0.14677400  1
  C  431  1  0.22894500  0.52945400  0.12254100  1
  C  432  1  0.24228300  0.49777700  0.11604400  1
  C  433  1  0.23271200  0.46948600  0.13404900  1
  C  434  1  0.20943600  0.47386300  0.16003300  1
  C  441  1  0.84474600  0.50461700  0.19293100  1
  C  442  1  0.85166000  0.47385800  0.20947400  1
  C  443  1  0.87757700  0.46948100  0.23282500  1
  C  444  1  0.89561200  0.49776700  0.24237000  1
  C  445  1  0.88915200  0.52944400  0.22900800  1
  C  446  1  0.86492300  0.53221700  0.20328400  1
  C  449  1  0.81880700  0.50714600  0.16697300  1
  C  450  1  0.80848800  0.47956100  0.14675400  1
  C  451  1  0.78276000  0.48233900  0.12253000  1
  C  452  1  0.76941000  0.51401900  0.11606600  1
  C  453  1  0.77896100  0.54228900  0.13411100  1
  C  454  1  0.80223700  0.53789700  0.16009300  1
  C  461  1  0.16696700  0.50462900  0.81881400  1
  C  462  1  0.16007700  0.47387300  0.80225700  1
  C  463  1  0.13410000  0.46947900  0.77897900  1
  C  464  1  0.11607200  0.49775200  0.76940300  1
  C  465  1  0.12253100  0.52943100  0.78275800  1
  C  466  1  0.14675400  0.53221400  0.80848600  1
  C  469  1  0.19291800  0.50715900  0.84476600  1
  C  470  1  0.20326200  0.47955900  0.86494800  1
  C  471  1  0.22898200  0.48233200  0.88918200  1
  C  472  1  0.24232600  0.51400900  0.89566100  1
  C  473  1  0.23274800  0.54229900  0.87765400  1
  C  474  1  0.20946200  0.53792000  0.85168000  1
  C  481  1  0.43784400  0.24387100  0.88972300  1
  C  482  1  0.41796700  0.22165200  0.90826100  1
  C  483  1  0.39543200  0.23333400  0.93199100  1
  C  484  1  0.38958500  0.26751200  0.93782500  1
  C  485  1  0.40727400  0.28979700  0.91707200  1
  C  486  1  0.43112300  0.27824800  0.89390900  1
  C  491  1  0.40094800  0.18087900  0.93623900  1
  C  493  1  0.57392900  0.76771700  0.88954700  1
  C  494  1  0.59371400  0.78992300  0.90822900  1
  C  495  1  0.61634600  0.77821400  0.93185900  1
  C  496  1  0.62211600  0.74401200  0.93773600  1
  C  497  1  0.60442200  0.72180700  0.91692100  1
  C  498  1  0.58071200  0.73335400  0.89362600  1
  C  503  1  0.61076300  0.83070400  0.93623400  1
  C  505  1  0.57392200  0.24385600  0.12194400  1
  C  506  1  0.59380800  0.22162400  0.10343400  1
  C  507  1  0.61634900  0.23332400  0.07971700  1
  C  508  1  0.62218100  0.26751000  0.07388700  1
  C  509  1  0.60447100  0.28979000  0.09463400  1
  C  510  1  0.58061500  0.27823300  0.11778700  1
  C  515  1  0.61085700  0.18086600  0.07545500  1
  C  517  1  0.43780700  0.76781400  0.12212900  1
  C  518  1  0.41798700  0.79002200  0.10350500  1
  C  519  1  0.39535500  0.77829100  0.07988800  1
  C  520  1  0.38961200  0.74408200  0.07401400  1
  C  521  1  0.40732900  0.72188400  0.09482000  1
  C  522  1  0.43105100  0.73343800  0.11810000  1
  C  527  1  0.40090600  0.83078300  0.07549800  1
  C  529  1  0.88970500  0.43783400  0.24386100  1
  C  530  1  0.90824600  0.41796700  0.22163500  1
  C  531  1  0.93197900  0.39542900  0.23330900  1
  C  532  1  0.93781300  0.38957300  0.26748800  1
  C  533  1  0.91705700  0.40725200  0.28977700  1
  C  534  1  0.89389400  0.43110300  0.27823500  1
  C  539  1  0.93622200  0.40096100  0.18085600  1
  C  541  1  0.88954400  0.57393900  0.76772000  1
  C  542  1  0.90823100  0.59371900  0.78992300  1
  C  543  1  0.93186200  0.61635400  0.77821200  1
  C  544  1  0.93773600  0.62212300  0.74401000  1
  C  545  1  0.91691300  0.60443400  0.72180700  1
  C  546  1  0.89361800  0.58072400  0.73335700  1
  C  551  1  0.93624100  0.61076300  0.83070100  1
  C  553  1  0.12194400  0.57390400  0.24385400  1
  C  554  1  0.10343700  0.59379300  0.22162200  1
  C  555  1  0.07972000  0.61633400  0.23332100  1
  C  556  1  0.07388800  0.62216300  0.26750500  1
  C  557  1  0.09463100  0.60445200  0.28978700  1
  C  558  1  0.11778300  0.58059500  0.27823300  1
  C  563  1  0.07546300  0.61084900  0.18086300  1
  C  565  1  0.12212000  0.43781700  0.76780400  1
  C  566  1  0.10349800  0.41799500  0.79001200  1
  C  567  1  0.07988300  0.39536000  0.77827600  1
  C  568  1  0.07400800  0.38962200  0.74406700  1
  C  569  1  0.09481100  0.40734600  0.72187100  1
  C  570  1  0.11808900  0.43106900  0.73342900  1
  C  575  1  0.07549500  0.40090600  0.83077100  1
  C  577  1  0.24389700  0.88970800  0.43782400  1
  C  578  1  0.22168000  0.90824400  0.41794300  1
  C  579  1  0.23336100  0.93197100  0.39540400  1
  C  580  1  0.26754200  0.93781000  0.38956000  1
  C  581  1  0.28982500  0.91706000  0.40725700  1
  C  582  1  0.27827500  0.89389900  0.43110800  1
  C  587  1  0.18090500  0.93621400  0.40091400  1
  C  589  1  0.76775500  0.88954700  0.57392900  1
  C  590  1  0.78996500  0.90824100  0.59369600  1
  C  591  1  0.77825900  0.93187400  0.61632900  1
  C  592  1  0.74405900  0.93774300  0.62211100  1
  C  593  1  0.72184900  0.91691600  0.60443700  1
  C  594  1  0.73339400  0.89361800  0.58072700  1
  C  599  1  0.83074600  0.93625900  0.61071800  1
  C  601  1  0.24384000  0.12193600  0.57390400  1
  C  602  1  0.22160100  0.10342700  0.59378300  1
  C  603  1  0.23329400  0.07970900  0.61632400  1
  C  604  1  0.26747800  0.07387900  0.62216300  1
  C  605  1  0.28976300  0.09462400  0.60446100  1
  C  606  1  0.27821500  0.11777700  0.58060300  1
  C  611  1  0.18083800  0.07544900  0.61082200  1
  C  613  1  0.76778400  0.12213000  0.43780900  1
  C  614  1  0.78999000  0.10351600  0.41798000  1
  C  615  1  0.77825100  0.07990200  0.39534200  1
  C  616  1  0.74404200  0.07402100  0.38961200  1
  C  617  1  0.72184700  0.09481800  0.40734600  1
  C  618  1  0.73340900  0.11809500  0.43106900  1
  C  623  1  0.83074800  0.07552100  0.40087400  1
  C  625  1  0.24381600  0.43783400  0.12200400  1
  C  626  1  0.22161400  0.41795000  0.10343800  1
  C  627  1  0.23328300  0.39540900  0.07970800  1
  C  628  1  0.26745800  0.38956500  0.07386000  1
  C  629  1  0.28974300  0.40726900  0.09459600  1
  C  630  1  0.27818800  0.43112100  0.11775600  1
  C  635  1  0.18082600  0.40090900  0.07548700  1
  C  637  1  0.76775200  0.57394100  0.12216300  1
  C  638  1  0.78995200  0.59373900  0.10348200  1
  C  639  1  0.77824900  0.61635900  0.07983700  1
  C  640  1  0.74403700  0.62201900  0.07397600  1
  C  641  1  0.72179700  0.60439700  0.09479400  1
  C  642  1  0.73337600  0.58069900  0.11808900  1
  C  647  1  0.83074100  0.61081700  0.07549500  1
  C  649  1  0.24386300  0.57394900  0.88969100  1
  C  650  1  0.22168500  0.59381300  0.90830800  1
  C  651  1  0.23337900  0.61632600  0.93205300  1
  C  652  1  0.26757200  0.62210900  0.93785300  1
  C  653  1  0.28984400  0.60448600  0.91704800  1
  C  654  1  0.27824500  0.58066200  0.89388400  1
  C  659  1  0.18092600  0.61084200  0.93631300  1
  C  661  1  0.76780900  0.43777000  0.88956100  1
  C  662  1  0.79001500  0.41798500  0.90824600  1
  C  663  1  0.77831100  0.39535700  0.93188400  1
  C  664  1  0.74409900  0.38964700  0.93775300  1
  C  665  1  0.72187600  0.40728900  0.91692800  1
  C  666  1  0.73344100  0.43099700  0.89363600  1
  C  671  1  0.83080300  0.40091400  0.93622700  1
  C  673  1  0.43781400  0.88975000  0.76793600  1
  C  674  1  0.41793300  0.90828900  0.79014400  1
  C  675  1  0.39539200  0.93200800  0.77844800  1
  C  676  1  0.38952000  0.93785000  0.74426300  1
  C  677  1  0.40724500  0.91708700  0.72201100  1
  C  678  1  0.43110100  0.89393100  0.73356000  1
  C  683  1  0.40089100  0.93626600  0.83090700  1
  C  685  1  0.57398100  0.88955900  0.24394500  1
  C  686  1  0.59380100  0.90825400  0.22177400  1
  C  687  1  0.61641800  0.93189900  0.23347700  1
  C  688  1  0.62206900  0.93776600  0.26768600  1
  C  689  1  0.60443200  0.91695300  0.28991900  1
  C  690  1  0.58073900  0.89366300  0.27832500  1
  C  695  1  0.61089700  0.93622900  0.18098400  1
  C  697  1  0.57390400  0.12198600  0.76787100  1
  C  698  1  0.59378800  0.10342200  0.79006700  1
  C  699  1  0.61630400  0.07968600  0.77836100  1
  C  700  1  0.62207400  0.07388500  0.74416400  1
  C  701  1  0.60443700  0.09467800  0.72188900  1
  C  702  1  0.58060300  0.11783300  0.73348600  1
  C  707  1  0.61083700  0.07542700  0.83081800  1
  C  709  1  0.43780700  0.12215800  0.24390100  1
  C  710  1  0.41798700  0.10347200  0.22172600  1
  C  711  1  0.39535700  0.07983500  0.23342800  1
  C  712  1  0.38966400  0.07395400  0.26763700  1
  C  713  1  0.40733100  0.09476400  0.28985200  1
  C  714  1  0.43103900  0.11804800  0.27827500  1
  C  719  1  0.40088100  0.07551500  0.18093100  1
  C  721  1  0.88968800  0.24387400  0.57393200  1
  C  722  1  0.90830300  0.22169400  0.59379600  1
  C  723  1  0.93204800  0.23338600  0.61631100  1
  C  724  1  0.93785000  0.26757900  0.62209100  1
  C  725  1  0.91704800  0.28985200  0.60446900  1
  C  726  1  0.89388400  0.27825500  0.58064500  1
  C  731  1  0.93630300  0.18093200  0.61082500  1
  C  733  1  0.88957400  0.76781200  0.43775200  1
  C  734  1  0.90825900  0.79001700  0.41796700  1
  C  735  1  0.93189700  0.77831300  0.39534000  1
  C  736  1  0.93776600  0.74410400  0.38963000  1
  C  737  1  0.91693800  0.72187900  0.40726900  1
  C  738  1  0.89364800  0.73344300  0.43097700  1
  C  743  1  0.93624100  0.83080800  0.40089900  1
  C  745  1  0.12202400  0.24381400  0.43783200  1
  C  746  1  0.10339000  0.22164500  0.41797700  1
  C  747  1  0.07965900  0.23335600  0.39545700  1
  C  748  1  0.07385300  0.26755200  0.38959700  1
  C  749  1  0.09468200  0.28977000  0.40726400  1
  C  750  1  0.11784200  0.27818800  0.43110100  1
  C  755  1  0.07537600  0.18089700  0.40095100  1
  C  757  1  0.12217100  0.76775200  0.57392400  1
  C  758  1  0.10348900  0.78995000  0.59372100  1
  C  759  1  0.07984600  0.77824400  0.61633900  1
  C  760  1  0.07398400  0.74403500  0.62200200  1
  C  761  1  0.09480200  0.72179500  0.60437500  1
  C  762  1  0.11809600  0.73337600  0.58068000  1
  C  767  1  0.07550300  0.83073600  0.61080200  1
  C  769  1  0.55651000  0.76983000  0.10330600  1
  C  770  1  0.57682100  0.79029300  0.08334100  1
  C  771  1  0.59942400  0.77655100  0.06095500  1
  C  772  1  0.60338600  0.74185700  0.05656700  1
  C  773  1  0.58402600  0.72127600  0.07743800  1
  C  774  1  0.56135200  0.73497800  0.10041800  1
  C  779  1  0.59951800  0.82936600  0.05714300  1
  C  781  1  0.45517800  0.24192000  0.10334000  1
  C  782  1  0.43479500  0.22144600  0.08346100  1
  C  783  1  0.41211100  0.23517400  0.06115100  1
  C  784  1  0.40823000  0.26986400  0.05666300  1
  C  785  1  0.42769500  0.29045300  0.07742600  1
  C  786  1  0.45034200  0.27677000  0.10044200  1
  C  791  1  0.41191500  0.18232900  0.05746600  1
  C  793  1  0.45525800  0.76984700  0.90846700  1
  C  794  1  0.43495700  0.79032500  0.92842300  1
  C  795  1  0.41234200  0.77659300  0.95080300  1
  C  796  1  0.40835700  0.74190200  0.95518700  1
  C  797  1  0.42770200  0.72131000  0.93431200  1
  C  798  1  0.45038700  0.73500000  0.91133500  1
  C  803  1  0.41227700  0.82940800  0.95462300  1
  C  805  1  0.55654800  0.24191200  0.90838500  1
  C  806  1  0.57693600  0.22143400  0.92825500  1
  C  807  1  0.59962000  0.23516200  0.95056700  1
  C  808  1  0.60350600  0.26985400  0.95505500  1
  C  809  1  0.58404600  0.29044000  0.93428500  1
  C  810  1  0.56140100  0.27676100  0.91126500  1
  C  815  1  0.59981400  0.18231700  0.95425400  1
  C  817  1  0.10330300  0.55652300  0.76984000  1
  C  818  1  0.08333600  0.57683100  0.79030000  1
  C  819  1  0.06095100  0.59943400  0.77655600  1
  C  820  1  0.05656700  0.60339600  0.74186200  1
  C  821  1  0.07744200  0.58403900  0.72128300  1
  C  822  1  0.10042000  0.56136600  0.73498800  1
  C  827  1  0.05713200  0.59952600  0.82937100  1
  C  829  1  0.10333400  0.45516600  0.24189600  1
  C  830  1  0.08345200  0.43478500  0.22142100  1
  C  831  1  0.06114000  0.41210300  0.23514700  1
  C  832  1  0.05665000  0.40822300  0.26983600  1
  C  833  1  0.07741500  0.42768500  0.29042800  1
  C  834  1  0.10043500  0.45032700  0.27674600  1
  C  839  1  0.05745500  0.41191000  0.18230200  1
  C  841  1  0.90845700  0.45526500  0.76982500  1
  C  842  1  0.92841100  0.43496200  0.79030300  1
  C  843  1  0.95079300  0.41234700  0.77657100  1
  C  844  1  0.95518000  0.40836400  0.74188200  1
  C  845  1  0.93431000  0.42771500  0.72128800  1
  C  846  1  0.91133200  0.45039700  0.73497500  1
  C  851  1  0.95460100  0.41227700  0.82938800  1
  C  853  1  0.90837500  0.55654000  0.24192900  1
  C  854  1  0.92824500  0.57692600  0.22144600  1
  C  855  1  0.95055900  0.59960800  0.23517000  1
  C  856  1  0.95505500  0.60349300  0.26985900  1
  C  857  1  0.93429000  0.58403400  0.29045300  1
  C  858  1  0.91126500  0.56139100  0.27677800  1
  C  863  1  0.95423400  0.59980400  0.18232400  1
  C  865  1  0.76984200  0.10331300  0.55651500  1
  C  866  1  0.79031200  0.08335000  0.57681900  1
  C  867  1  0.77657600  0.06096500  0.59942600  1
  C  868  1  0.74188500  0.05657800  0.60339900  1
  C  869  1  0.72129800  0.07745000  0.58404600  1
  C  870  1  0.73499300  0.10042900  0.56136900  1
  C  875  1  0.82939300  0.05714900  0.59950300  1
  C  877  1  0.24190800  0.10332400  0.45516300  1
  C  878  1  0.22144100  0.08343900  0.43477800  1
  C  879  1  0.23517700  0.06112800  0.41209800  1
  C  880  1  0.26986900  0.05664300  0.40822500  1
  C  881  1  0.29045000  0.07741100  0.42769500  1
  C  882  1  0.27676100  0.10042900  0.45033500  1
  C  887  1  0.18233200  0.05743700  0.41189200  1
  C  889  1  0.76983500  0.90846700  0.45525800  1
  C  890  1  0.79030500  0.92842300  0.43494900  1
  C  891  1  0.77656800  0.95080800  0.41234200  1
  C  892  1  0.74187700  0.95519400  0.40836700  1
  C  893  1  0.72129100  0.93432200  0.42772000  1
  C  894  1  0.73498500  0.91134200  0.45039900  1
  C  899  1  0.82938500  0.95461800  0.41226000  1
  C  901  1  0.24193300  0.90837000  0.55653300  1
  C  902  1  0.22144300  0.92823500  0.57691600  1
  C  903  1  0.23515900  0.95054700  0.59960800  1
  C  904  1  0.26984600  0.95504300  0.60350100  1
  C  905  1  0.29044800  0.93428000  0.58404600  1
  C  906  1  0.27678000  0.91126000  0.56139600  1
  C  911  1  0.18231300  0.95422100  0.59978400  1
  C  913  1  0.76986500  0.55646300  0.90843800  1
  C  914  1  0.79033200  0.57679400  0.92837600  1
  C  915  1  0.77659000  0.59941700  0.95074000  1
  C  916  1  0.74190000  0.60341100  0.95512000  1
  C  917  1  0.72132000  0.58399900  0.93429200  1
  C  918  1  0.73501500  0.56130700  0.91132500  1
  C  923  1  0.82940500  0.59950100  0.95456100  1
  C  925  1  0.24190400  0.45523300  0.90840000  1
  C  926  1  0.22142200  0.43482000  0.92823700  1
  C  927  1  0.23514800  0.41212300  0.95053700  1
  C  928  1  0.26983900  0.40824500  0.95503600  1
  C  929  1  0.29043000  0.42772200  0.93428500  1
  C  930  1  0.27675300  0.45038200  0.91128000  1
  C  935  1  0.18230100  0.41191200  0.95420400  1
  C  937  1  0.76986700  0.45525000  0.10327700  1
  C  938  1  0.79035000  0.43493200  0.08334300  1
  C  939  1  0.77662300  0.41230200  0.06097400  1
  C  940  1  0.74193400  0.40830700  0.05658100  1
  C  941  1  0.72133800  0.42769000  0.07741900  1
  C  942  1  0.73502000  0.45038700  0.10038800  1
  C  947  1  0.82944000  0.41223500  0.05717200  1
  C  949  1  0.24187800  0.55655500  0.10333600  1
  C  950  1  0.22140800  0.57696800  0.08348300  1
  C  951  1  0.23515200  0.59965700  0.06118600  1
  C  952  1  0.26984400  0.60354000  0.05671200  1
  C  953  1  0.29042000  0.58405100  0.07746900  1
  C  954  1  0.27672800  0.56139900  0.10047400  1
  C  959  1  0.18230800  0.59986100  0.05747500  1
  C  961  1  0.55648500  0.10327000  0.24184200  1
  C  962  1  0.57683400  0.08335300  0.22137300  1
  C  963  1  0.59946400  0.06099700  0.23511900  1
  C  964  1  0.60345600  0.05662300  0.26981100  1
  C  965  1  0.58403900  0.07745000  0.29038800  1
  C  966  1  0.56134200  0.10040600  0.27669100  1
  C  971  1  0.59955100  0.05717000  0.18230300  1
  C  973  1  0.45518600  0.10333600  0.76983000  1
  C  974  1  0.43479300  0.08347700  0.79031500  1
  C  975  1  0.41210100  0.06116900  0.77659300  1
  C  976  1  0.40821500  0.05667300  0.74190400  1
  C  977  1  0.42768000  0.07743100  0.72130800  1
  C  978  1  0.45033200  0.10044600  0.73498000  1
  C  983  1  0.41191000  0.05749700  0.82944000  1
  C  985  1  0.45530000  0.90846700  0.24186900  1
  C  986  1  0.43495900  0.92837100  0.22138300  1
  C  987  1  0.41231900  0.95073100  0.23510900  1
  C  988  1  0.40832700  0.95512700  0.26979700  1
  C  989  1  0.42772200  0.93430000  0.29039600  1
  C  990  1  0.45043100  0.91134200  0.27671600  1
  C  995  1  0.41224000  0.95452400  0.18229200  1
  C  997  1  0.55654000  0.90837500  0.76983000  1
  C  998  1  0.57694100  0.92823700  0.79030300  1
  C  999  1  0.59962500  0.95054200  0.77656600  1
  C  1000  1  0.60351100  0.95502600  0.74187500  1
  C  1001  1  0.58402400  0.93427300  0.72129500  1
  C  1002  1  0.56137600  0.91125800  0.73498000  1
  C  1007  1  0.59982600  0.95423900  0.82941000  1
  C  1009  1  0.10329300  0.76986700  0.45523000  1
  C  1010  1  0.08336000  0.79035000  0.43490900  1
  C  1011  1  0.06098900  0.77662300  0.41228400  1
  C  1012  1  0.05659400  0.74193400  0.40829000  1
  C  1013  1  0.07743200  0.72133800  0.42767200  1
  C  1014  1  0.10040200  0.73501700  0.45036900  1
  C  1019  1  0.05719000  0.82944000  0.41221200  1
  C  1021  1  0.10333400  0.24186800  0.55654500  1
  C  1022  1  0.08347900  0.22140000  0.57695800  1
  C  1023  1  0.06118200  0.23514600  0.59964500  1
  C  1024  1  0.05671200  0.26983900  0.60353000  1
  C  1025  1  0.07747200  0.29041300  0.58404100  1
  C  1026  1  0.10047600  0.27671800  0.56139100  1
  C  1031  1  0.05746500  0.18230300  0.59984900  1
  C  1033  1  0.90845200  0.76986500  0.55644600  1
  C  1034  1  0.92838900  0.79033200  0.57677400  1
  C  1035  1  0.95075300  0.77659000  0.59939900  1
  C  1036  1  0.95512700  0.74190000  0.60339600  1
  C  1037  1  0.93430000  0.72132000  0.58398200  1
  C  1038  1  0.91133500  0.73501500  0.56129000  1
  C  1043  1  0.95457600  0.82940500  0.59948400  1
  C  1045  1  0.90838500  0.24191200  0.45521300  1
  C  1046  1  0.92823200  0.22142800  0.43481000  1
  C  1047  1  0.95053200  0.23515300  0.41211300  1
  C  1048  1  0.95502100  0.26984400  0.40822800  1
  C  1049  1  0.93426000  0.29043800  0.42769500  1
  C  1050  1  0.91125500  0.27676100  0.45035400  1
  C  1055  1  0.95421600  0.18230800  0.41192200  1
  N  489  1  0.38538900  0.20714300  0.94951400  1
  N  501  1  0.62609800  0.80436200  0.94961600  1
  N  513  1  0.62641100  0.20714200  0.06219200  1
  N  525  1  0.38558000  0.80442900  0.06212900  1
  N  537  1  0.94950200  0.38539400  0.20711400  1
  N  549  1  0.94962100  0.62610100  0.80436000  1
  N  561  1  0.06219800  0.62639900  0.20713800  1
  N  573  1  0.06212600  0.38558300  0.80441400  1
  N  585  1  0.20717000  0.94949200  0.38535700  1
  N  597  1  0.80440900  0.94963800  0.62606400  1
  N  609  1  0.20710900  0.06218400  0.62637900  1
  N  621  1  0.80439200  0.06215100  0.38555600  1
  N  633  1  0.20708600  0.38535200  0.06220100  1
  N  645  1  0.80439400  0.62612300  0.06208500  1
  N  657  1  0.20720200  0.62637400  0.94959600  1
  N  669  1  0.80446400  0.38559300  0.94962600  1
  N  681  1  0.38533200  0.94952900  0.80463500  1
  N  693  1  0.62619500  0.94964300  0.20733100  1
  N  705  1  0.62636600  0.06214900  0.80453600  1
  N  717  1  0.38557000  0.06210600  0.20727300  1
  N  729  1  0.94958800  0.20720800  0.62635600  1
  N  741  1  0.94964100  0.80446600  0.38557500  1
  N  753  1  0.06211900  0.20717700  0.38540400  1
  N  765  1  0.06209400  0.80439200  0.62610600  1
  N  777  1  0.61344600  0.80178500  0.04478400  1
  N  789  1  0.39816300  0.20992300  0.04493700  1
  N  801  1  0.39832900  0.80183500  0.96697500  1
  N  813  1  0.61356600  0.20991100  0.96678100  1
  N  825  1  0.04477600  0.61345400  0.80179000  1
  N  837  1  0.04492400  0.39815800  0.20989600  1
  N  849  1  0.96695800  0.39833200  0.80181500  1
  N  861  1  0.96676900  0.61355300  0.20991600  1
  N  873  1  0.80181500  0.04479200  0.61344100  1
  N  885  1  0.20993000  0.04491000  0.39814800  1
  N  897  1  0.80181000  0.96697500  0.39832400  1
  N  909  1  0.20990000  0.96675600  0.61354600  1
  N  921  1  0.80182700  0.61344600  0.96690300  1
  N  933  1  0.20989400  0.39816000  0.96673400  1
  N  945  1  0.80186900  0.39827900  0.04482100  1
  N  957  1  0.20991100  0.61361000  0.04496300  1
  N  969  1  0.61350100  0.04483700  0.20988500  1
  N  981  1  0.39815300  0.04496500  0.80185000  1
  N  993  1  0.39828200  0.96687300  0.20986300  1
  N  1005  1  0.61357500  0.96676100  0.80181200  1
  N  1017  1  0.04483700  0.80186900  0.39826000  1
  N  1029  1  0.04495600  0.20990700  0.61359800  1
  N  1041  1  0.96691500  0.80182700  0.61343100  1
  N  1053  1  0.96673900  0.20990100  0.39816300  1
  O  17  1  0.32507900  0.36351200  0.94997100  1
  O  18  1  0.36348700  0.32509700  0.06173000  1
  O  37  1  0.68670100  0.64819200  0.94997800  1
  O  38  1  0.64819700  0.68668100  0.06174500  1
  O  57  1  0.68675300  0.36348900  0.06173600  1
  O  58  1  0.64822900  0.32509900  0.94997800  1
  O  77  1  0.32509200  0.64824900  0.06177700  1
  O  78  1  0.36350900  0.68674900  0.95000600  1
  O  97  1  0.94994600  0.32506200  0.36346900  1
  O  98  1  0.06171400  0.36348700  0.32507400  1
  O  117  1  0.94998300  0.68670600  0.64818200  1
  O  118  1  0.06175000  0.64820400  0.68668400  1
  O  137  1  0.06174600  0.68674900  0.36347700  1
  O  138  1  0.94998600  0.64822200  0.32510100  1
  O  157  1  0.06177900  0.32508700  0.64824200  1
  O  158  1  0.95000300  0.36351700  0.68672900  1
  O  177  1  0.36351400  0.94996800  0.32498000  1
  O  178  1  0.32511900  0.06172300  0.36351200  1
  O  197  1  0.64822700  0.94996800  0.68663400  1
  O  198  1  0.68672400  0.06174800  0.64823400  1
  O  217  1  0.36347200  0.06174000  0.68666900  1
  O  218  1  0.32507200  0.94998100  0.64825900  1
  O  237  1  0.64822900  0.06177100  0.32501500  1
  O  238  1  0.68671100  0.95001100  0.36354100  1
  O  257  1  0.82483200  0.86343800  0.44994200  1
  O  258  1  0.86341100  0.82485200  0.56175900  1
  O  277  1  0.18690100  0.14833200  0.44991000  1
  O  278  1  0.14835100  0.18686300  0.56181800  1
  O  297  1  0.18694200  0.86333700  0.56180300  1
  O  298  1  0.14834200  0.82484200  0.44993700  1
  O  317  1  0.82483000  0.14834400  0.56180800  1
  O  318  1  0.86334900  0.18692700  0.44993500  1
  O  337  1  0.44996700  0.82485400  0.86345300  1
  O  338  1  0.56182600  0.86334100  0.82481700  1
  O  357  1  0.44992500  0.18692000  0.14835600  1
  O  358  1  0.56180100  0.14832300  0.18686800  1
  O  377  1  0.56181800  0.18691000  0.86336400  1
  O  378  1  0.44991700  0.14836900  0.82481700  1
  O  397  1  0.56182100  0.82481500  0.14834300  1
  O  398  1  0.44998400  0.86340100  0.18690400  1
  O  417  1  0.86342800  0.44996200  0.82482200  1
  O  418  1  0.82484200  0.56178100  0.86339100  1
  O  437  1  0.14834700  0.44991700  0.18689600  1
  O  438  1  0.18688500  0.56183100  0.14836200  1
  O  457  1  0.86334100  0.56182300  0.18693500  1
  O  458  1  0.82484900  0.44996000  0.14831900  1
  O  477  1  0.14833100  0.56182100  0.82483000  1
  O  478  1  0.18692100  0.44995000  0.86335900  1
  O  490  1  0.42282100  0.18828900  0.91136500  1
  O  502  1  0.58862900  0.82322600  0.91161000  1
  O  514  1  0.58896900  0.18825900  0.10032000  1
  O  526  1  0.42306200  0.82332500  0.10010700  1
  O  538  1  0.91134700  0.42282900  0.18827300  1
  O  550  1  0.91161800  0.58863200  0.82322600  1
  O  562  1  0.10032600  0.58895900  0.18825600  1
  O  574  1  0.10010200  0.42306400  0.82331500  1
  O  586  1  0.18831500  0.91134200  0.42278900  1
  O  598  1  0.82326300  0.91163000  0.58859400  1
  O  610  1  0.18823700  0.10031500  0.58893700  1
  O  622  1  0.82329500  0.10012400  0.42303700  1
  O  634  1  0.18824500  0.42278400  0.10035400  1
  O  646  1  0.82326300  0.58867900  0.10011600  1
  O  658  1  0.18831700  0.58898400  0.91142200  1
  O  670  1  0.82332000  0.42305700  0.91161300  1
  O  682  1  0.42277400  0.91139900  0.82350900  1
  O  694  1  0.58875600  0.91161000  0.18846200  1
  O  706  1  0.58896400  0.10030800  0.82343200  1
  O  718  1  0.42303200  0.10011900  0.18841400  1
  O  730  1  0.91141200  0.18832600  0.58896900  1
  O  742  1  0.91162800  0.82332300  0.42304000  1
  O  754  1  0.10026200  0.18828000  0.42281600  1
  O  766  1  0.10012400  0.82326100  0.58866400  1
  O  778  1  0.57545800  0.82397800  0.08044100  1
  O  790  1  0.43626700  0.18777600  0.08044700  1
  O  802  1  0.43633900  0.82401000  0.93133100  1
  O  814  1  0.57546100  0.18776400  0.93127100  1
  O  826  1  0.08043000  0.57546800  0.82398600  1
  O  838  1  0.08043800  0.43625800  0.18775000  1
  O  850  1  0.93131100  0.43633900  0.82398800  1
  O  862  1  0.93125100  0.57545300  0.18777600  1
  O  874  1  0.82399800  0.08044600  0.57544600  1
  O  886  1  0.18777100  0.08042100  0.43624500  1
  O  898  1  0.82399000  0.93132600  0.43632200  1
  O  910  1  0.18777300  0.93124400  0.57543100  1
  O  922  1  0.82401800  0.57542600  0.93128100  1
  O  934  1  0.18775000  0.43628500  0.93124600  1
  O  946  1  0.82403500  0.43631000  0.08044700  1
  O  958  1  0.18774000  0.57550100  0.08045200  1
  O  970  1  0.57546600  0.08044100  0.18768800  1
  O  982  1  0.43627000  0.08046900  0.82398600  1
  O  994  1  0.43633200  0.93126400  0.18769600  1
  O  1006  1  0.57547300  0.93125600  0.82397300  1
  O  1018  1  0.08046600  0.82403500  0.43629000  1
  O  1030  1  0.08044300  0.18773200  0.57549100  1
  O  1042  1  0.93129800  0.82401800  0.57540600  1
  O  1054  1  0.93124900  0.18775800  0.43628500  1
