# generated using pymatgen
data_H16C25N3
_symmetry_space_group_name_H-M   'P 1'
_cell_length_a   42.01840000
_cell_length_b   85.34515000
_cell_length_c   85.34510000
_cell_angle_alpha   119.99994186
_cell_angle_beta   90.00000000
_cell_angle_gamma   90.00000000
_symmetry_Int_Tables_number   1
_chemical_formula_structural   H16C25N3
_chemical_formula_sum   'H384 C600 N72'
_cell_volume   265050.01604016
_cell_formula_units_Z   24
loop_
 _symmetry_equiv_pos_site_id
 _symmetry_equiv_pos_as_xyz
  1  'x, y, z'
loop_
 _atom_site_type_symbol
 _atom_site_label
 _atom_site_symmetry_multiplicity
 _atom_site_fract_x
 _atom_site_fract_y
 _atom_site_fract_z
 _atom_site_occupancy
  H  19  1  0.71909200  0.58252300  0.41934100  1
  H  20  1  0.67977600  0.57267200  0.43260200  1
  H  21  1  0.79184200  0.56257400  0.43874800  1
  H  22  1  0.58197200  0.53915000  0.46626600  1
  H  23  1  0.60871900  0.56680800  0.43856200  1
  H  24  1  0.55404800  0.57096300  0.43425400  1
  H  25  1  0.52709300  0.54347600  0.46177600  1
  H  26  1  0.64024600  0.52344500  0.48196500  1
  H  27  1  0.75450800  0.51823800  0.48694200  1
  H  28  1  0.73517100  0.53323000  0.47208900  1
  H  29  1  0.66044700  0.50814100  0.49711100  1
  H  36  1  0.75262300  0.55252500  0.45213900  1
  H  58  1  0.71905400  0.83167800  0.42276900  1
  H  59  1  0.67973600  0.85479700  0.43262700  1
  H  60  1  0.79180200  0.87102900  0.44271600  1
  H  61  1  0.58016000  0.92150100  0.46590800  1
  H  62  1  0.60959500  0.86669300  0.43853200  1
  H  63  1  0.55631400  0.85724700  0.43388500  1
  H  64  1  0.52549200  0.91160000  0.46103900  1
  H  65  1  0.64023400  0.95341000  0.48186400  1
  H  66  1  0.75452000  0.96350900  0.48702900  1
  H  67  1  0.73511600  0.93368000  0.47204500  1
  H  68  1  0.66049900  0.98383900  0.49715800  1
  H  75  1  0.75257300  0.89447000  0.45276800  1
  H  97  1  0.71911400  0.58595400  0.17363500  1
  H  98  1  0.67979500  0.57269300  0.15053400  1
  H  99  1  0.79185400  0.56654000  0.13427100  1
  H  100  1  0.58263600  0.53900900  0.08330000  1
  H  101  1  0.60799800  0.56679600  0.13883700  1
  H  102  1  0.55272700  0.57089200  0.14688100  1
  H  103  1  0.52802100  0.54319900  0.09150800  1
  H  104  1  0.64022200  0.52334200  0.05196700  1
  H  105  1  0.75446500  0.51832700  0.04170600  1
  H  106  1  0.73517800  0.53319200  0.07157600  1
  H  107  1  0.66036300  0.50819200  0.02150800  1
  H  114  1  0.75263200  0.55314700  0.11083500  1
  H  136  1  0.71915200  0.41755400  0.59116700  1
  H  137  1  0.67982600  0.42738200  0.57791400  1
  H  138  1  0.79186600  0.43751200  0.57174300  1
  H  139  1  0.58341900  0.46099700  0.54416700  1
  H  140  1  0.60685400  0.43312700  0.57206400  1
  H  141  1  0.55106600  0.42950300  0.57583700  1
  H  142  1  0.52885000  0.45736800  0.54797000  1
  H  143  1  0.64024400  0.47661100  0.52855000  1
  H  144  1  0.75449100  0.48183600  0.52355300  1
  H  145  1  0.73516100  0.46683900  0.53841000  1
  H  146  1  0.66042500  0.49192300  0.51339700  1
  H  153  1  0.75262000  0.44755200  0.55835400  1
  H  175  1  0.71909200  0.16842400  0.58771600  1
  H  176  1  0.67977900  0.14531400  0.57787200  1
  H  177  1  0.79184500  0.12906900  0.56777100  1
  H  178  1  0.58212400  0.07810400  0.54433900  1
  H  179  1  0.60857900  0.13350900  0.57201900  1
  H  180  1  0.55384300  0.14185300  0.57611400  1
  H  181  1  0.52718800  0.08679700  0.54860100  1
  H  182  1  0.64023200  0.04674000  0.52865300  1
  H  183  1  0.75448900  0.03652100  0.52342900  1
  H  184  1  0.73517600  0.06637900  0.53842800  1
  H  185  1  0.66040600  0.01628700  0.51334800  1
  H  192  1  0.75262800  0.10562800  0.55772700  1
  H  214  1  0.71902300  0.41416400  0.83689700  1
  H  215  1  0.67970000  0.42742100  0.86000900  1
  H  216  1  0.79175500  0.43357100  0.87625300  1
  H  217  1  0.57971300  0.46065400  0.92633300  1
  H  218  1  0.60961400  0.43328100  0.87164300  1
  H  219  1  0.55618300  0.42837900  0.86199600  1
  H  220  1  0.52541300  0.45556500  0.91632700  1
  H  221  1  0.64019400  0.47680700  0.95864700  1
  H  222  1  0.75450300  0.48169900  0.96866300  1
  H  223  1  0.73502100  0.46686500  0.93885100  1
  H  224  1  0.66053700  0.49193400  0.98906200  1
  H  231  1  0.75250600  0.44695900  0.89969300  1
  H  253  1  0.26689100  0.16841500  0.59114200  1
  H  254  1  0.30620700  0.14529800  0.57787500  1
  H  255  1  0.19413900  0.12906400  0.57173800  1
  H  256  1  0.40529900  0.07839700  0.54435600  1
  H  257  1  0.37650900  0.13336100  0.57186400  1
  H  258  1  0.42998400  0.14254300  0.57653200  1
  H  259  1  0.46017500  0.08803800  0.54925700  1
  H  260  1  0.34575900  0.04672500  0.52852200  1
  H  261  1  0.23149900  0.03651500  0.52353300  1
  H  262  1  0.25081900  0.06637600  0.53839200  1
  H  263  1  0.32557900  0.01628000  0.51337900  1
  H  270  1  0.23336300  0.10562400  0.55834300  1
  H  292  1  0.26692400  0.41416300  0.58771400  1
  H  293  1  0.30625200  0.42741800  0.57786000  1
  H  294  1  0.19420100  0.43357000  0.56776000  1
  H  295  1  0.40624200  0.46065400  0.54476000  1
  H  296  1  0.37634800  0.43328200  0.57207900  1
  H  297  1  0.42977400  0.42838300  0.57682400  1
  H  298  1  0.46054900  0.45556900  0.54968000  1
  H  299  1  0.34580100  0.47679000  0.52861900  1
  H  300  1  0.23150900  0.48172000  0.52345700  1
  H  301  1  0.25093800  0.46687100  0.53844500  1
  H  302  1  0.32552000  0.49192100  0.51332800  1
  H  309  1  0.23345100  0.44695600  0.55770900  1
  H  331  1  0.26681000  0.41754900  0.83682800  1
  H  332  1  0.30613600  0.42738000  0.85990800  1
  H  333  1  0.19409400  0.43750900  0.87620800  1
  H  334  1  0.40252400  0.46100100  0.92727800  1
  H  335  1  0.37913700  0.43312600  0.87150500  1
  H  336  1  0.43493600  0.42951100  0.86412400  1
  H  337  1  0.45709800  0.45738000  0.91986300  1
  H  338  1  0.34572300  0.47660800  0.95850000  1
  H  339  1  0.23147800  0.48184100  0.96873200  1
  H  340  1  0.25080000  0.46684200  0.93887400  1
  H  341  1  0.32555100  0.49192100  0.98896500  1
  H  348  1  0.23333700  0.44755000  0.89963800  1
  H  370  1  0.26686500  0.83165400  0.41933500  1
  H  371  1  0.30617600  0.85476000  0.43259700  1
  H  372  1  0.19411600  0.87101100  0.43874400  1
  H  373  1  0.40342400  0.92198400  0.46627800  1
  H  374  1  0.37784700  0.86647300  0.43850100  1
  H  375  1  0.43304600  0.85836100  0.43437000  1
  H  376  1  0.45806400  0.91368300  0.46204100  1
  H  377  1  0.34568700  0.95336900  0.48196800  1
  H  378  1  0.23141600  0.96351000  0.48692300  1
  H  379  1  0.25078600  0.93368000  0.47207700  1
  H  380  1  0.32544800  0.98381700  0.49711300  1
  H  387  1  0.23333400  0.89445200  0.45213700  1
  H  409  1  0.26688800  0.58594100  0.42277000  1
  H  410  1  0.30621200  0.57267600  0.43262200  1
  H  411  1  0.19414400  0.56653200  0.44271800  1
  H  412  1  0.40519900  0.53913900  0.46601800  1
  H  413  1  0.37655500  0.56666200  0.43855000  1
  H  414  1  0.43004100  0.57130500  0.43406000  1
  H  415  1  0.46010400  0.54401400  0.46130500  1
  H  416  1  0.34572500  0.52330900  0.48185400  1
  H  417  1  0.23145200  0.51835300  0.48704200  1
  H  418  1  0.25081700  0.53320300  0.47205200  1
  H  419  1  0.32549600  0.50817000  0.49715100  1
  H  426  1  0.23337000  0.55313900  0.45276300  1
  H  448  1  0.26690300  0.58251500  0.17360700  1
  H  449  1  0.30622800  0.57265700  0.15049000  1
  H  450  1  0.19416300  0.56256600  0.13425100  1
  H  451  1  0.40587700  0.53939500  0.08382300  1
  H  452  1  0.37635200  0.56676100  0.13860800  1
  H  453  1  0.42963100  0.57142600  0.14809100  1
  H  454  1  0.46050300  0.54427900  0.09375500  1
  H  455  1  0.34574200  0.52342400  0.05188200  1
  H  456  1  0.23146400  0.51825000  0.04176200  1
  H  457  1  0.25085300  0.53323900  0.07160000  1
  H  458  1  0.32549100  0.50812900  0.02145000  1
  H  465  1  0.23339600  0.55251400  0.11081200  1
  H  494  1  0.94771000  0.63203300  0.41649900  1
  H  495  1  0.89692100  0.64010300  0.41187600  1
  H  496  1  0.93814200  0.58101100  0.36890800  1
  H  497  1  0.88666000  0.58920900  0.36466400  1
  H  498  1  0.82757100  0.58759800  0.37331200  1
  H  499  1  0.80115900  0.57669700  0.39048400  1
  H  500  1  0.81473100  0.62732700  0.43793000  1
  H  501  1  0.84084600  0.63814300  0.42070700  1
  H  502  1  0.79966000  0.64315100  0.39807900  1
  H  503  1  0.79381900  0.67507600  0.41119400  1
  H  504  1  0.88823100  0.67840400  0.39617400  1
  H  505  1  0.89428900  0.64674400  0.38362900  1
  H  506  1  0.89035400  0.61647800  0.35548700  1
  H  507  1  0.79466300  0.61076800  0.36663800  1
  H  508  1  0.78115100  0.60074600  0.33590800  1
  H  509  1  0.87708000  0.60709400  0.32546100  1
  H  512  1  0.77586600  0.60537400  0.43708900  1
  H  513  1  0.98881400  0.59043800  0.38162000  1
  H  515  1  0.85756200  0.70577900  0.42018300  1
  H  517  1  0.80271500  0.60825900  0.31107600  1
  H  543  1  0.94771400  0.77932000  0.37326700  1
  H  544  1  0.89692300  0.76663900  0.36520600  1
  H  545  1  0.93817100  0.78272800  0.42428500  1
  H  546  1  0.88667100  0.77029700  0.41608800  1
  H  547  1  0.82758400  0.78056400  0.41769900  1
  H  548  1  0.80115000  0.80863200  0.42859500  1
  H  549  1  0.81472800  0.80544400  0.37796200  1
  H  550  1  0.84086200  0.77741100  0.36715300  1
  H  551  1  0.79967500  0.74976000  0.36214400  1
  H  552  1  0.79383600  0.73092700  0.33021900  1
  H  553  1  0.88829000  0.71263800  0.32690400  1
  H  554  1  0.89432900  0.73175300  0.35856100  1
  H  555  1  0.89033700  0.73383900  0.38880600  1
  H  556  1  0.79466000  0.75071900  0.39452400  1
  H  557  1  0.78114700  0.73001500  0.40454600  1
  H  558  1  0.87703800  0.71319800  0.39818800  1
  H  561  1  0.77586400  0.82655900  0.39991300  1
  H  562  1  0.98884800  0.78607400  0.41487300  1
  H  564  1  0.85747800  0.70918200  0.29944300  1
  H  566  1  0.80267500  0.69766400  0.39703300  1
  H  592  1  0.94769100  0.58879200  0.22597000  1
  H  593  1  0.89690000  0.59340900  0.23865100  1
  H  594  1  0.93815500  0.63640200  0.22257200  1
  H  595  1  0.88665300  0.64063500  0.23499400  1
  H  596  1  0.82757600  0.63197100  0.22471600  1
  H  597  1  0.80116400  0.61479800  0.19664600  1
  H  598  1  0.81472900  0.56735500  0.19983900  1
  H  599  1  0.84083300  0.58458100  0.22788000  1
  H  600  1  0.79964500  0.60720700  0.25550700  1
  H  601  1  0.79380600  0.59409600  0.27432200  1
  H  602  1  0.88824000  0.60909400  0.29264600  1
  H  603  1  0.89428500  0.62164700  0.27353800  1
  H  604  1  0.89027800  0.64980300  0.27146100  1
  H  605  1  0.79462700  0.63863600  0.25453700  1
  H  606  1  0.78110300  0.66937000  0.27521900  1
  H  607  1  0.87697500  0.67981900  0.29208800  1
  H  610  1  0.77587400  0.56819600  0.17873000  1
  H  611  1  0.98884400  0.62360300  0.21916000  1
  H  613  1  0.85748100  0.58508800  0.29609300  1
  H  615  1  0.80269000  0.69418800  0.30762000  1
  H  641  1  0.94773200  0.36805100  0.59400200  1
  H  642  1  0.89692000  0.36000300  0.59861600  1
  H  643  1  0.93819100  0.41907400  0.64160000  1
  H  644  1  0.88668900  0.41088800  0.64583700  1
  H  645  1  0.82757700  0.41249300  0.63717800  1
  H  646  1  0.80115600  0.42338900  0.62000500  1
  H  647  1  0.81472800  0.37275800  0.57255600  1
  H  648  1  0.84085300  0.36194300  0.58977800  1
  H  649  1  0.79966500  0.35695600  0.61241500  1
  H  650  1  0.79382700  0.32502800  0.59930800  1
  H  651  1  0.88826500  0.32171000  0.61430600  1
  H  652  1  0.89430500  0.35337000  0.62686000  1
  H  653  1  0.89033400  0.38361200  0.65501100  1
  H  654  1  0.79465600  0.38933200  0.64385200  1
  H  655  1  0.78113300  0.39932200  0.67457500  1
  H  656  1  0.87704400  0.39296700  0.68502500  1
  H  659  1  0.77586800  0.39470900  0.57340800  1
  H  660  1  0.98887600  0.40966600  0.62883900  1
  H  662  1  0.85748000  0.29426800  0.59030500  1
  H  664  1  0.80270100  0.39184200  0.69948800  1
  H  690  1  0.94772000  0.22076500  0.63722400  1
  H  691  1  0.89691200  0.23343800  0.64528600  1
  H  692  1  0.93817500  0.21736500  0.58621400  1
  H  693  1  0.88667400  0.22978500  0.59440300  1
  H  694  1  0.82759000  0.21951200  0.59279200  1
  H  695  1  0.80114700  0.19145000  0.58189700  1
  H  696  1  0.81469800  0.19463400  0.63253100  1
  H  697  1  0.84084000  0.22266700  0.64334600  1
  H  698  1  0.79965900  0.25030000  0.64833500  1
  H  699  1  0.79382500  0.26913000  0.68026100  1
  H  700  1  0.88826600  0.28744100  0.68357300  1
  H  701  1  0.89430500  0.26832500  0.65191500  1
  H  702  1  0.89030800  0.26622400  0.62167300  1
  H  703  1  0.79463200  0.24934400  0.61595900  1
  H  704  1  0.78110700  0.27005900  0.60594700  1
  H  705  1  0.87702200  0.28685800  0.61229400  1
  H  708  1  0.77586000  0.17352500  0.61057100  1
  H  709  1  0.98885200  0.21399600  0.59561200  1
  H  711  1  0.85747100  0.29088800  0.71102000  1
  H  713  1  0.80268900  0.30243600  0.61344500  1
  H  739  1  0.94775700  0.41128500  0.78448200  1
  H  740  1  0.89694300  0.40667900  0.77181300  1
  H  741  1  0.93816000  0.36370300  0.78792500  1
  H  742  1  0.88666900  0.35947300  0.77549900  1
  H  743  1  0.82761700  0.36812900  0.78576800  1
  H  744  1  0.80116100  0.38528300  0.81382400  1
  H  745  1  0.81468900  0.43273600  0.81065000  1
  H  746  1  0.84084800  0.41552400  0.78261800  1
  H  747  1  0.79966700  0.39289600  0.75498800  1
  H  748  1  0.79382100  0.40602100  0.73619100  1
  H  749  1  0.88820300  0.39096800  0.71779800  1
  H  750  1  0.89427500  0.37841800  0.73691000  1
  H  751  1  0.89029200  0.35028500  0.73903100  1
  H  752  1  0.79463800  0.36146100  0.75592500  1
  H  753  1  0.78110400  0.33073500  0.73522800  1
  H  754  1  0.87700400  0.32027500  0.71841200  1
  H  757  1  0.77583000  0.43188400  0.83175900  1
  H  758  1  0.98886700  0.37642100  0.79121300  1
  H  760  1  0.85755300  0.41498400  0.71443700  1
  H  762  1  0.80267800  0.30584300  0.70284100  1
  H  788  1  0.03826700  0.22077600  0.59398600  1
  H  789  1  0.08905500  0.23347200  0.59861400  1
  H  790  1  0.04782700  0.21735600  0.64158500  1
  H  791  1  0.09930500  0.22980000  0.64582900  1
  H  792  1  0.15837900  0.21953900  0.63717800  1
  H  793  1  0.18479600  0.19146900  0.62001300  1
  H  794  1  0.17124700  0.19464900  0.57256300  1
  H  795  1  0.14513500  0.22269100  0.58978500  1
  H  796  1  0.18631200  0.25032700  0.61242500  1
  H  797  1  0.19215500  0.26912200  0.59929600  1
  H  798  1  0.09774600  0.28747800  0.61430500  1
  H  799  1  0.09168200  0.26837600  0.62686700  1
  H  800  1  0.09563700  0.26626800  0.65501500  1
  H  801  1  0.19130500  0.24938900  0.64387100  1
  H  802  1  0.20482300  0.27010100  0.67459300  1
  H  803  1  0.10891500  0.28693000  0.68503600  1
  H  806  1  0.21009000  0.17354000  0.57340900  1
  H  807  1  0.99716100  0.21402700  0.62884200  1
  H  809  1  0.12846100  0.29088700  0.59028100  1
  H  811  1  0.18326300  0.30246200  0.69943300  1
  H  837  1  0.03827500  0.41131600  0.63723100  1
  H  838  1  0.08904500  0.40667700  0.64530600  1
  H  839  1  0.04781600  0.36370600  0.58622000  1
  H  840  1  0.09928600  0.35945900  0.59442100  1
  H  841  1  0.15837900  0.36809900  0.59279400  1
  H  842  1  0.18480500  0.38526700  0.58189100  1
  H  843  1  0.17124500  0.43271500  0.63251600  1
  H  844  1  0.14511600  0.41549800  0.64333700  1
  H  845  1  0.18631000  0.39288000  0.64834500  1
  H  846  1  0.19215900  0.40600700  0.68026900  1
  H  847  1  0.09775300  0.39099400  0.68361800  1
  H  848  1  0.09168200  0.37843400  0.65195600  1
  H  849  1  0.09560400  0.35027600  0.62168900  1
  H  850  1  0.19128400  0.36142200  0.61596200  1
  H  851  1  0.20479900  0.33069500  0.60594400  1
  H  852  1  0.10888900  0.32024600  0.61231600  1
  H  855  1  0.21011300  0.43186500  0.61057200  1
  H  856  1  0.99715000  0.37646000  0.59560200  1
  H  858  1  0.12845400  0.41500700  0.71104400  1
  H  860  1  0.18322500  0.30587600  0.61348200  1
  H  886  1  0.03829100  0.36806300  0.78454600  1
  H  887  1  0.08904700  0.35998000  0.77181400  1
  H  888  1  0.04782000  0.41907000  0.78793800  1
  H  889  1  0.09929100  0.41086800  0.77548300  1
  H  890  1  0.15839100  0.41248200  0.78574300  1
  H  891  1  0.18480100  0.42338200  0.81381500  1
  H  892  1  0.17122800  0.37275300  0.81063400  1
  H  893  1  0.14511600  0.36193500  0.78259400  1
  H  894  1  0.18629800  0.35693200  0.75496300  1
  H  895  1  0.19214700  0.32500900  0.73616300  1
  H  896  1  0.09774600  0.32166400  0.71779700  1
  H  897  1  0.09167300  0.35332600  0.73691300  1
  H  898  1  0.09559200  0.38360200  0.73904000  1
  H  899  1  0.19128800  0.38931200  0.75589500  1
  H  900  1  0.20479400  0.39932000  0.73517500  1
  H  901  1  0.10886300  0.39297500  0.71838500  1
  H  904  1  0.21008700  0.39470800  0.83174600  1
  H  905  1  0.99716600  0.40971300  0.79135800  1
  H  907  1  0.12841400  0.29428000  0.71442200  1
  H  909  1  0.18322300  0.39182200  0.70283100  1
  H  935  1  0.03824400  0.77931800  0.41649600  1
  H  936  1  0.08904000  0.76664200  0.41187900  1
  H  937  1  0.04778000  0.78271900  0.36888200  1
  H  938  1  0.09928800  0.77029800  0.36465300  1
  H  939  1  0.15837400  0.78056900  0.37331200  1
  H  940  1  0.18481300  0.80863300  0.39048300  1
  H  941  1  0.17123300  0.80544700  0.43792900  1
  H  942  1  0.14509900  0.77741400  0.42070600  1
  H  943  1  0.18629300  0.74976700  0.39806400  1
  H  944  1  0.19213100  0.73093600  0.41115900  1
  H  945  1  0.09767700  0.71264500  0.39618500  1
  H  946  1  0.09164200  0.73175600  0.38363700  1
  H  947  1  0.09564200  0.73384300  0.35547800  1
  H  948  1  0.19131200  0.75073200  0.36665000  1
  H  949  1  0.20483200  0.73004300  0.33592200  1
  H  950  1  0.10894600  0.71321800  0.32545800  1
  H  953  1  0.21009900  0.82655700  0.43708800  1
  H  954  1  0.99709100  0.78610500  0.38166300  1
  H  956  1  0.12847800  0.70919300  0.42019000  1
  H  958  1  0.18333700  0.69765800  0.31104400  1
  H  984  1  0.03825300  0.58879300  0.37327000  1
  H  985  1  0.08905000  0.59340600  0.36521000  1
  H  986  1  0.04778700  0.63640600  0.42427600  1
  H  987  1  0.09929300  0.64063600  0.41608900  1
  H  988  1  0.15837900  0.63196800  0.41770300  1
  H  989  1  0.18480100  0.61479600  0.42860000  1
  H  990  1  0.17123500  0.56735300  0.37796400  1
  H  991  1  0.14511800  0.58457800  0.36715100  1
  H  992  1  0.18630200  0.60720500  0.36214700  1
  H  993  1  0.19213600  0.59410900  0.33022000  1
  H  994  1  0.09769600  0.60910800  0.32691000  1
  H  995  1  0.09165800  0.62165000  0.35857000  1
  H  996  1  0.09567100  0.64980000  0.38879500  1
  H  997  1  0.19132900  0.63863200  0.39454000  1
  H  998  1  0.20485400  0.66936600  0.40458400  1
  H  999  1  0.10897200  0.67981800  0.39818300  1
  H  1002  1  0.21009400  0.56819500  0.39991300  1
  H  1003  1  0.99709400  0.62360200  0.41489900  1
  H  1005  1  0.12848500  0.58511000  0.29946100  1
  H  1007  1  0.18326100  0.69418000  0.39701200  1
  H  1033  1  0.03824600  0.63202800  0.22597900  1
  H  1034  1  0.08905000  0.64008600  0.23864800  1
  H  1035  1  0.04780600  0.58100700  0.22255700  1
  H  1036  1  0.09929800  0.58920200  0.23498700  1
  H  1037  1  0.15837900  0.58760000  0.22471900  1
  H  1038  1  0.18480300  0.57669900  0.19665000  1
  H  1039  1  0.17125700  0.62733000  0.19983300  1
  H  1040  1  0.14513700  0.63815400  0.22787400  1
  H  1041  1  0.18629500  0.64314500  0.25550600  1
  H  1042  1  0.19213300  0.67506800  0.27433700  1
  H  1043  1  0.09770800  0.67838300  0.29266400  1
  H  1044  1  0.09165600  0.64672400  0.27353500  1
  H  1045  1  0.09566100  0.61647900  0.27143400  1
  H  1046  1  0.19132900  0.61075600  0.25454000  1
  H  1047  1  0.20485600  0.60072600  0.27524000  1
  H  1048  1  0.10894800  0.60709100  0.29205900  1
  H  1051  1  0.21010900  0.60537500  0.17872700  1
  H  1052  1  0.99713700  0.59044100  0.21926700  1
  H  1054  1  0.12844900  0.70578300  0.29606600  1
  H  1056  1  0.18328700  0.60823800  0.30764100  1
  C  1  1  0.60109200  0.55254500  0.45290100  1
  C  2  1  0.71206200  0.56153800  0.44374900  1
  C  3  1  0.68556900  0.52994600  0.47547500  1
  C  4  1  0.74503300  0.55889500  0.44536000  1
  C  5  1  0.76823800  0.56467800  0.43745900  1
  C  6  1  0.75885100  0.57346200  0.42796900  1
  C  7  1  0.72623700  0.57624000  0.42630000  1
  C  8  1  0.70318300  0.57044700  0.43417600  1
  C  9  1  0.59206500  0.56173800  0.44359000  1
  C  10  1  0.55992700  0.56424800  0.44098200  1
  C  11  1  0.53614900  0.55755700  0.44766800  1
  C  12  1  0.54439000  0.54835300  0.45689400  1
  C  13  1  0.57664100  0.54586900  0.45947800  1
  C  14  1  0.66435200  0.52242400  0.48290600  1
  C  15  1  0.67602300  0.51343500  0.49180600  1
  C  16  1  0.70915100  0.51191000  0.49330600  1
  C  17  1  0.73033700  0.51923600  0.48596500  1
  C  18  1  0.71871600  0.52811500  0.47717500  1
  C  30  1  0.67482600  0.53917900  0.46651600  1
  C  32  1  0.63382300  0.55024600  0.45546200  1
  C  34  1  0.68835600  0.55504200  0.45100300  1
  C  40  1  0.60074900  0.89515400  0.45271800  1
  C  41  1  0.71200000  0.87708000  0.44376000  1
  C  42  1  0.68551900  0.94038200  0.47534600  1
  C  43  1  0.74498600  0.88132000  0.44639700  1
  C  44  1  0.76819800  0.86763500  0.44061200  1
  C  45  1  0.75882000  0.84935800  0.43182300  1
  C  46  1  0.72620400  0.84491900  0.42905100  1
  C  47  1  0.70314200  0.85859300  0.43484900  1
  C  48  1  0.59255500  0.87657600  0.44348900  1
  C  49  1  0.56083800  0.87087700  0.44068500  1
  C  50  1  0.53571800  0.88337900  0.44693200  1
  C  51  1  0.54326000  0.90213700  0.45630300  1
  C  52  1  0.57543400  0.90791200  0.45914500  1
  C  53  1  0.66434700  0.95535100  0.48287600  1
  C  54  1  0.67605900  0.97323100  0.49186000  1
  C  55  1  0.70919200  0.97623500  0.49337400  1
  C  56  1  0.73034500  0.96155100  0.48604000  1
  C  57  1  0.71868300  0.94389100  0.47716500  1
  C  69  1  0.67467400  0.92220800  0.46612200  1
  C  71  1  0.63356300  0.90013400  0.45507800  1
  C  73  1  0.68826300  0.89084000  0.45026300  1
  C  79  1  0.60110600  0.55244600  0.11020600  1
  C  80  1  0.71207900  0.56154100  0.12824800  1
  C  81  1  0.68556400  0.52982200  0.06493600  1
  C  82  1  0.74504500  0.55992900  0.12398600  1
  C  83  1  0.76825100  0.56783100  0.13766800  1
  C  84  1  0.75886300  0.57732300  0.15594000  1
  C  85  1  0.72625600  0.57899500  0.16039300  1
  C  86  1  0.70319900  0.57111600  0.14672700  1
  C  87  1  0.59150800  0.56172400  0.12864800  1
  C  88  1  0.55907400  0.56420700  0.13351900  1
  C  89  1  0.53562100  0.55738600  0.11986500  1
  C  90  1  0.54480200  0.54823400  0.10157900  1
  C  91  1  0.57706200  0.54578200  0.09677700  1
  C  92  1  0.66432600  0.52239700  0.04999400  1
  C  93  1  0.67596100  0.51349200  0.03209500  1
  C  94  1  0.70907800  0.51198400  0.02905300  1
  C  95  1  0.73029900  0.51931600  0.04370500  1
  C  96  1  0.71870900  0.52811000  0.06138100  1
  C  108  1  0.67484500  0.53878500  0.08314000  1
  C  110  1  0.63384900  0.54987400  0.10532300  1
  C  112  1  0.68836300  0.55429500  0.11451300  1
  C  118  1  0.60100400  0.44743500  0.55769300  1
  C  119  1  0.71208600  0.43852400  0.56675800  1
  C  120  1  0.68555700  0.47010900  0.53504000  1
  C  121  1  0.74505000  0.44118000  0.56513600  1
  C  122  1  0.76826600  0.43540500  0.57303500  1
  C  123  1  0.75888700  0.42662400  0.58252900  1
  C  124  1  0.72628400  0.42383700  0.58420700  1
  C  125  1  0.70322300  0.42961500  0.57633100  1
  C  126  1  0.59067000  0.43832300  0.56691400  1
  C  127  1  0.55794900  0.43613500  0.56919400  1
  C  128  1  0.53496600  0.44312600  0.56221700  1
  C  129  1  0.54507100  0.45217700  0.55315200  1
  C  130  1  0.57744500  0.45432000  0.55091000  1
  C  131  1  0.66435000  0.47763400  0.52760300  1
  C  132  1  0.67601100  0.48663100  0.51870100  1
  C  133  1  0.70913500  0.48816300  0.51719300  1
  C  134  1  0.73032100  0.48083700  0.52453500  1
  C  135  1  0.71870200  0.47195300  0.53332600  1
  C  147  1  0.67483300  0.46085900  0.54401500  1
  C  149  1  0.63381500  0.44972200  0.55514800  1
  C  151  1  0.68832500  0.44499900  0.55953400  1
  C  157  1  0.60109900  0.10489600  0.55774900  1
  C  158  1  0.71206700  0.12303200  0.56674000  1
  C  159  1  0.68556900  0.05971900  0.53514900  1
  C  160  1  0.74503800  0.11877800  0.56409700  1
  C  161  1  0.76824100  0.13246200  0.56987600  1
  C  162  1  0.75884900  0.15073300  0.57865400  1
  C  163  1  0.72623900  0.15518200  0.58143500  1
  C  164  1  0.70318500  0.14151400  0.57564800  1
  C  165  1  0.59197700  0.12338200  0.56693300  1
  C  166  1  0.55979800  0.12841900  0.56940200  1
  C  167  1  0.53608200  0.11501400  0.56269300  1
  C  168  1  0.54442400  0.09659200  0.55349700  1
  C  169  1  0.57671700  0.09160000  0.55105000  1
  C  170  1  0.66434000  0.04477300  0.52763100  1
  C  171  1  0.67599200  0.02688100  0.51863900  1
  C  172  1  0.70911300  0.02384900  0.51711000  1
  C  173  1  0.73032100  0.03850800  0.52443300  1
  C  174  1  0.71871400  0.05617900  0.53331200  1
  C  186  1  0.67483300  0.07791200  0.54438400  1
  C  188  1  0.63383500  0.10004200  0.55545300  1
  C  190  1  0.68836100  0.10928600  0.56024700  1
  C  196  1  0.60058700  0.44754000  0.90007100  1
  C  197  1  0.71193800  0.43856900  0.88230000  1
  C  198  1  0.68542600  0.47027900  0.94557900  1
  C  199  1  0.74492600  0.44017300  0.88654100  1
  C  200  1  0.76815200  0.43227700  0.87285700  1
  C  201  1  0.75878900  0.42279200  0.85457700  1
  C  202  1  0.72617000  0.42112300  0.85013900  1
  C  203  1  0.70310400  0.42899200  0.86381100  1
  C  204  1  0.59245000  0.43817100  0.88145400  1
  C  205  1  0.56071200  0.43520300  0.87561400  1
  C  206  1  0.53549200  0.44143500  0.88807500  1
  C  207  1  0.54313100  0.45082700  0.90683500  1
  C  208  1  0.57517200  0.45381900  0.91272500  1
  C  209  1  0.66431200  0.47773000  0.96057100  1
  C  210  1  0.67607100  0.48662100  0.97844500  1
  C  211  1  0.70921300  0.48810000  0.98143000  1
  C  212  1  0.73032100  0.48074200  0.96672600  1
  C  213  1  0.71860700  0.47196100  0.94907400  1
  C  225  1  0.67448100  0.46132800  0.92740500  1
  C  227  1  0.63337000  0.45026000  0.90525700  1
  C  229  1  0.68815800  0.44582300  0.89604800  1
  C  235  1  0.38509100  0.10485500  0.55756800  1
  C  236  1  0.27393300  0.12301700  0.56672900  1
  C  237  1  0.30042900  0.05971000  0.53500900  1
  C  238  1  0.24095200  0.11877300  0.56512300  1
  C  239  1  0.21774300  0.13245900  0.57302500  1
  C  240  1  0.22712500  0.15073200  0.58251600  1
  C  241  1  0.25974200  0.15517400  0.58418200  1
  C  242  1  0.28280100  0.14150100  0.57630600  1
  C  243  1  0.39343300  0.12341000  0.56690700  1
  C  244  1  0.42520700  0.12893100  0.56971500  1
  C  245  1  0.44996300  0.11618400  0.56333500  1
  C  246  1  0.44244500  0.09751900  0.55399600  1
  C  247  1  0.41020900  0.09195800  0.55117000  1
  C  248  1  0.32165300  0.04476300  0.52758000  1
  C  249  1  0.30999300  0.02687400  0.51868000  1
  C  250  1  0.27687500  0.02384700  0.51718100  1
  C  251  1  0.25566700  0.03850500  0.52451600  1
  C  252  1  0.26727600  0.05617600  0.53330700  1
  C  264  1  0.31122100  0.07788800  0.54395900  1
  C  266  1  0.35229900  0.09995400  0.55498800  1
  C  268  1  0.29765600  0.10925600  0.55946900  1
  C  274  1  0.38537000  0.44753900  0.55790900  1
  C  275  1  0.27401600  0.43857000  0.56671800  1
  C  276  1  0.30054300  0.47027500  0.53514500  1
  C  277  1  0.24102800  0.44017700  0.56408200  1
  C  278  1  0.21780000  0.43228000  0.56987000  1
  C  279  1  0.22716100  0.42279200  0.57866200  1
  C  280  1  0.25978000  0.42112400  0.58143300  1
  C  281  1  0.28284800  0.42899200  0.57563000  1
  C  282  1  0.39350700  0.43817200  0.56715700  1
  C  283  1  0.42524500  0.43520600  0.57002900  1
  C  284  1  0.45046700  0.44144000  0.56380200  1
  C  285  1  0.44282800  0.45082800  0.55443000  1
  C  286  1  0.41078500  0.45381900  0.55153300  1
  C  287  1  0.32168800  0.47771900  0.52761200  1
  C  288  1  0.30996500  0.48661200  0.51862700  1
  C  289  1  0.27683400  0.48810000  0.51711200  1
  C  290  1  0.25568600  0.48075000  0.52444700  1
  C  291  1  0.26736700  0.47196500  0.53332400  1
  C  303  1  0.31147100  0.46132500  0.54437000  1
  C  305  1  0.35258400  0.45025800  0.55544800  1
  C  307  1  0.29779600  0.44582100  0.56022100  1
  C  313  1  0.38496000  0.44743600  0.90018600  1
  C  314  1  0.27387300  0.43852300  0.88220800  1
  C  315  1  0.30040700  0.47010800  0.94551100  1
  C  316  1  0.24090900  0.44118000  0.88648600  1
  C  317  1  0.21769300  0.43540200  0.87280900  1
  C  318  1  0.22707300  0.42661900  0.85453500  1
  C  319  1  0.25967500  0.42383300  0.85007100  1
  C  320  1  0.28273600  0.42961500  0.86372600  1
  C  321  1  0.39531100  0.43832500  0.88185600  1
  C  322  1  0.42803900  0.43614200  0.87739700  1
  C  323  1  0.45100800  0.44313700  0.89137200  1
  C  324  1  0.44088800  0.45218900  0.90948500  1
  C  325  1  0.40851000  0.45432400  0.91385900  1
  C  326  1  0.32161700  0.47763400  0.96047000  1
  C  327  1  0.30996200  0.48662900  0.97837200  1
  C  328  1  0.27683900  0.48816300  0.98141300  1
  C  329  1  0.25564800  0.48083700  0.96674800  1
  C  330  1  0.26726200  0.47195400  0.94907100  1
  C  342  1  0.31112900  0.46085800  0.92728400  1
  C  344  1  0.35214600  0.44972100  0.90501400  1
  C  346  1  0.29763700  0.44499300  0.89590500  1
  C  352  1  0.38485300  0.89510000  0.45285000  1
  C  353  1  0.27389000  0.87704400  0.44374700  1
  C  354  1  0.30038300  0.94036100  0.47546900  1
  C  355  1  0.24092100  0.88130100  0.44535600  1
  C  356  1  0.21771700  0.86761800  0.43745500  1
  C  357  1  0.22710800  0.84934500  0.42796500  1
  C  358  1  0.25971800  0.84489600  0.42629500  1
  C  359  1  0.28277200  0.85856300  0.43417100  1
  C  360  1  0.39436600  0.87664500  0.44356600  1
  C  361  1  0.42676100  0.87173300  0.44106200  1
  C  362  1  0.45025600  0.88534900  0.44786500  1
  C  363  1  0.44120700  0.90365500  0.45702700  1
  C  364  1  0.40895700  0.90850300  0.45950200  1
  C  365  1  0.32157900  0.95532400  0.48290400  1
  C  366  1  0.30988400  0.97321400  0.49180500  1
  C  367  1  0.27674800  0.97622800  0.49330000  1
  C  368  1  0.25559100  0.96154800  0.48595300  1
  C  369  1  0.26723400  0.94388500  0.47716500  1
  C  381  1  0.31112400  0.92215900  0.46650500  1
  C  383  1  0.35211800  0.89998400  0.45542400  1
  C  385  1  0.29760600  0.89078100  0.45099200  1
  C  391  1  0.38507500  0.55236300  0.45276300  1
  C  392  1  0.27393800  0.56152600  0.44375300  1
  C  393  1  0.30041900  0.52980800  0.47534500  1
  C  394  1  0.24095900  0.55992100  0.44639500  1
  C  395  1  0.21774800  0.56782300  0.44061300  1
  C  396  1  0.22713000  0.57731400  0.43182900  1
  C  397  1  0.25974400  0.57898200  0.42905300  1
  C  398  1  0.28280300  0.57110300  0.43484600  1
  C  399  1  0.39345400  0.56169700  0.44354900  1
  C  400  1  0.42524500  0.56448800  0.44085400  1
  C  401  1  0.44999400  0.55810900  0.44722800  1
  C  402  1  0.44240900  0.54876400  0.45655200  1
  C  403  1  0.41015200  0.54595100  0.45927200  1
  C  404  1  0.32161400  0.52237500  0.48287100  1
  C  405  1  0.30992700  0.51347700  0.49185800  1
  C  406  1  0.27679600  0.51198300  0.49337800  1
  C  407  1  0.25562400  0.51932700  0.48604800  1
  C  408  1  0.26726200  0.52811600  0.47717200  1
  C  420  1  0.31121700  0.53875900  0.46611700  1
  C  422  1  0.35228700  0.54978700  0.45507800  1
  C  424  1  0.29765600  0.55426700  0.45025500  1
  C  430  1  0.38523200  0.55257900  0.11015400  1
  C  431  1  0.27396600  0.56152200  0.12820600  1
  C  432  1  0.30045200  0.52994000  0.06490400  1
  C  433  1  0.24098300  0.55888700  0.12396200  1
  C  434  1  0.21776700  0.56467200  0.13764700  1
  C  435  1  0.22714200  0.57345700  0.15592400  1
  C  436  1  0.25975600  0.57623100  0.16036500  1
  C  437  1  0.28282000  0.57043600  0.14669200  1
  C  438  1  0.39341200  0.56181100  0.12873700  1
  C  439  1  0.42512400  0.56462700  0.13446200  1
  C  440  1  0.45027700  0.55838800  0.12197900  1
  C  441  1  0.44273300  0.54901700  0.10321600  1
  C  442  1  0.41057300  0.54616100  0.09741400  1
  C  443  1  0.32163100  0.52241400  0.04993900  1
  C  444  1  0.30992900  0.51342700  0.03205600  1
  C  445  1  0.27679800  0.51190800  0.02904600  1
  C  446  1  0.25563600  0.51924200  0.04372700  1
  C  447  1  0.26729100  0.52811800  0.06139000  1
  C  459  1  0.31130200  0.53916400  0.08307900  1
  C  461  1  0.35241800  0.55020800  0.10515500  1
  C  463  1  0.29770600  0.55501700  0.11444500  1
  C  469  1  0.82811000  0.60144400  0.32707700  1
  C  470  1  0.80461400  0.60297300  0.33964100  1
  C  471  1  0.81266700  0.60898500  0.35784200  1
  C  472  1  0.84453300  0.61328100  0.36420200  1
  C  473  1  0.86747200  0.61230500  0.35154100  1
  C  474  1  0.85963200  0.60646600  0.33350400  1
  C  475  1  0.85347900  0.62144400  0.38412100  1
  C  476  1  0.84861600  0.64163500  0.39095500  1
  C  477  1  0.87299000  0.65239200  0.38953400  1
  C  478  1  0.86951700  0.67118100  0.39705900  1
  C  479  1  0.84101000  0.67997300  0.40588400  1
  C  480  1  0.81525700  0.66924400  0.40563100  1
  C  481  1  0.81888400  0.65039300  0.39788900  1
  C  482  1  0.83462700  0.61461400  0.39477800  1
  C  483  1  0.88694600  0.61618500  0.38693600  1
  C  484  1  0.90524000  0.62762200  0.40251600  1
  C  485  1  0.93553000  0.62260500  0.40544600  1
  C  486  1  0.94910200  0.60559900  0.39309500  1
  C  487  1  0.92977200  0.59350400  0.37834400  1
  C  488  1  0.89934900  0.59853600  0.37558800  1
  C  489  1  0.82435900  0.59636000  0.38681900  1
  C  490  1  0.80938700  0.58973300  0.39707000  1
  C  491  1  0.80507600  0.60096400  0.41595200  1
  C  492  1  0.81706100  0.61878600  0.42426800  1
  C  493  1  0.83201600  0.62526800  0.41393300  1
  C  510  1  0.98157700  0.60141200  0.39273400  1
  C  511  1  0.81961600  0.59979500  0.31050500  1
  C  514  1  0.83878200  0.69858100  0.41312400  1
  C  516  1  0.78676100  0.59574500  0.42606000  1
  C  518  1  0.82808200  0.72047300  0.40386500  1
  C  519  1  0.80460700  0.73149600  0.40229200  1
  C  520  1  0.81266200  0.74370100  0.39630200  1
  C  521  1  0.84452700  0.74576900  0.39201600  1
  C  522  1  0.86745400  0.73407200  0.39298100  1
  C  523  1  0.85960100  0.72188000  0.39882900  1
  C  524  1  0.85349500  0.75752500  0.38385500  1
  C  525  1  0.84864100  0.74417200  0.36366400  1
  C  526  1  0.87303100  0.73200800  0.35291000  1
  C  527  1  0.86957300  0.72074900  0.33412200  1
  C  528  1  0.84105700  0.72076300  0.32532900  1
  C  529  1  0.81528500  0.73122200  0.33605300  1
  C  530  1  0.81890800  0.74233900  0.35490300  1
  C  531  1  0.83464400  0.77501300  0.39068300  1
  C  532  1  0.88696300  0.76559600  0.38911500  1
  C  533  1  0.90524300  0.76975800  0.37768600  1
  C  534  1  0.93553800  0.77769800  0.38269700  1
  C  535  1  0.94913700  0.78229600  0.39968400  1
  C  536  1  0.92979700  0.77967000  0.41179200  1
  C  537  1  0.89937800  0.77187800  0.40675800  1
  C  538  1  0.82437000  0.78530800  0.40893600  1
  C  539  1  0.80940300  0.80218800  0.41556300  1
  C  540  1  0.80505900  0.80982600  0.40432300  1
  C  541  1  0.81706300  0.80032600  0.38650500  1
  C  542  1  0.83202800  0.78351200  0.38002700  1
  C  559  1  0.98159400  0.78618700  0.40389200  1
  C  560  1  0.81953400  0.70556000  0.40552200  1
  C  563  1  0.83884500  0.70933400  0.30674800  1
  C  565  1  0.78675000  0.82515800  0.40954500  1
  C  567  1  0.82802900  0.67823000  0.28476500  1
  C  568  1  0.80456400  0.66563500  0.27373900  1
  C  569  1  0.81262200  0.64743500  0.26156300  1
  C  570  1  0.84448800  0.64108500  0.25950800  1
  C  571  1  0.86741100  0.65375200  0.27120000  1
  C  572  1  0.85955700  0.67179500  0.28337800  1
  C  573  1  0.85346500  0.62116800  0.24776100  1
  C  574  1  0.84860100  0.61433400  0.26111600  1
  C  575  1  0.87299500  0.61573100  0.27327400  1
  C  576  1  0.86952200  0.60821100  0.28454100  1
  C  577  1  0.84100000  0.59941000  0.28452600  1
  C  578  1  0.81524400  0.59965400  0.27404600  1
  C  579  1  0.81885900  0.60741600  0.26295300  1
  C  580  1  0.83462300  0.61050700  0.23027300  1
  C  581  1  0.88693600  0.61835900  0.23969100  1
  C  582  1  0.90521700  0.60277000  0.23553100  1
  C  583  1  0.93551200  0.59984300  0.22759000  1
  C  584  1  0.94910900  0.61221700  0.22297200  1
  C  585  1  0.92977900  0.62696500  0.22562500  1
  C  586  1  0.89935500  0.62972000  0.23341100  1
  C  587  1  0.82435900  0.61846500  0.21997500  1
  C  588  1  0.80938600  0.60821300  0.20309900  1
  C  589  1  0.80507200  0.58933200  0.19545300  1
  C  590  1  0.81705600  0.58101600  0.20495800  1
  C  591  1  0.83200700  0.59135300  0.22177600  1
  C  608  1  0.98157200  0.61255100  0.21913400  1
  C  609  1  0.81948800  0.69479200  0.29970700  1
  C  612  1  0.83880900  0.59218400  0.29589400  1
  C  614  1  0.78678400  0.57921700  0.18011700  1
  C  616  1  0.82807500  0.39864600  0.68342400  1
  C  617  1  0.80459200  0.39706900  0.67083600  1
  C  618  1  0.81265200  0.39109700  0.65264500  1
  C  619  1  0.84452300  0.38682600  0.64629600  1
  C  620  1  0.86745200  0.38778700  0.65895600  1
  C  621  1  0.85960800  0.39363400  0.67699800  1
  C  622  1  0.85348900  0.37866400  0.62637800  1
  C  623  1  0.84862300  0.35847400  0.61954200  1
  C  624  1  0.87302100  0.34771500  0.62093500  1
  C  625  1  0.86955500  0.32892900  0.61340800  1
  C  626  1  0.84103300  0.32014400  0.60460800  1
  C  627  1  0.81527100  0.33086300  0.60485500  1
  C  628  1  0.81888300  0.34971800  0.61261700  1
  C  629  1  0.83465600  0.38547900  0.61570200  1
  C  630  1  0.88696000  0.38391700  0.62356100  1
  C  631  1  0.90524600  0.37248200  0.60797700  1
  C  632  1  0.93553600  0.37749200  0.60504000  1
  C  633  1  0.94912700  0.39448800  0.61740600  1
  C  634  1  0.92981300  0.40658200  0.63216100  1
  C  635  1  0.89938700  0.40155700  0.63492100  1
  C  636  1  0.82436600  0.40373100  0.62367100  1
  C  637  1  0.80939500  0.41035500  0.61341800  1
  C  638  1  0.80507900  0.39912100  0.59453600  1
  C  639  1  0.81705500  0.38129800  0.58621900  1
  C  640  1  0.83202800  0.37482000  0.59655100  1
  C  657  1  0.98159600  0.39866600  0.61776600  1
  C  658  1  0.81962200  0.40025500  0.69997900  1
  C  661  1  0.83882900  0.30156200  0.59744500  1
  C  663  1  0.78678800  0.40434200  0.58442300  1
  C  665  1  0.82805300  0.27956700  0.60659800  1
  C  666  1  0.80457400  0.26854400  0.60815800  1
  C  667  1  0.81263000  0.25636100  0.61417600  1
  C  668  1  0.84450000  0.25429000  0.61845500  1
  C  669  1  0.86743300  0.26597900  0.61748100  1
  C  670  1  0.85957600  0.27817300  0.61164000  1
  C  671  1  0.85347900  0.24254400  0.62662300  1
  C  672  1  0.84862000  0.25590200  0.64681300  1
  C  673  1  0.87302200  0.26805400  0.65757000  1
  C  674  1  0.86955500  0.27932200  0.67635500  1
  C  675  1  0.84103200  0.27931400  0.68514300  1
  C  676  1  0.81526700  0.26884200  0.67442400  1
  C  677  1  0.81888400  0.25773700  0.65557200  1
  C  678  1  0.83464700  0.22505500  0.61980900  1
  C  679  1  0.88695100  0.23447100  0.62137300  1
  C  680  1  0.90523900  0.23032600  0.63280900  1
  C  681  1  0.93554300  0.22239900  0.62780100  1
  C  682  1  0.94911400  0.21775000  0.61079700  1
  C  683  1  0.92978400  0.22039400  0.59869500  1
  C  684  1  0.89937300  0.22819700  0.60373100  1
  C  685  1  0.82436700  0.21477000  0.60155500  1
  C  686  1  0.80939800  0.19789300  0.59492900  1
  C  687  1  0.80504600  0.19025700  0.60617100  1
  C  688  1  0.81704700  0.19975200  0.62398900  1
  C  689  1  0.83201200  0.21656500  0.63047100  1
  C  706  1  0.98158500  0.21394000  0.60662400  1
  C  707  1  0.81962000  0.29453300  0.60502000  1
  C  710  1  0.83882500  0.29073700  0.70372400  1
  C  712  1  0.78674600  0.17492300  0.60093700  1
  C  714  1  0.82804600  0.32186500  0.72572400  1
  C  715  1  0.80457500  0.33445500  0.73674400  1
  C  716  1  0.81263900  0.35265500  0.74892300  1
  C  717  1  0.84450700  0.35900800  0.75098900  1
  C  718  1  0.86742500  0.34633900  0.73929400  1
  C  719  1  0.85957500  0.32829600  0.72711700  1
  C  720  1  0.85348500  0.37892300  0.76272100  1
  C  721  1  0.84861500  0.38575300  0.74936100  1
  C  722  1  0.87298700  0.38434300  0.73718600  1
  C  723  1  0.86949800  0.39185600  0.72591300  1
  C  724  1  0.84098200  0.40067000  0.72594100  1
  C  725  1  0.81524900  0.40043900  0.73644200  1
  C  726  1  0.81887600  0.39268000  0.74753500  1
  C  727  1  0.83465600  0.38959500  0.78021300  1
  C  728  1  0.88696500  0.38173700  0.77077900  1
  C  729  1  0.90526400  0.39731500  0.77492700  1
  C  730  1  0.93556900  0.40023400  0.78285500  1
  C  731  1  0.94912900  0.38788300  0.78751400  1
  C  732  1  0.92979900  0.37313500  0.78486000  1
  C  733  1  0.89937800  0.37038100  0.77707000  1
  C  734  1  0.82439600  0.38163400  0.79051100  1
  C  735  1  0.80941100  0.39187800  0.80738700  1
  C  736  1  0.80504200  0.41075300  0.81502600  1
  C  737  1  0.81704900  0.41907800  0.80553300  1
  C  738  1  0.83202800  0.40874900  0.78872100  1
  C  755  1  0.98159800  0.38751600  0.79132300  1
  C  756  1  0.81957200  0.30532500  0.71076000  1
  C  759  1  0.83875800  0.40796500  0.71461600  1
  C  761  1  0.78667200  0.42083100  0.83033800  1
  C  763  1  0.15786700  0.27963900  0.68343300  1
  C  764  1  0.18135700  0.26859600  0.67086500  1
  C  765  1  0.17330100  0.25640100  0.65266800  1
  C  766  1  0.14143900  0.25432700  0.64630500  1
  C  767  1  0.11851100  0.26603300  0.65896600  1
  C  768  1  0.12633300  0.27821500  0.67701500  1
  C  769  1  0.13248800  0.24258300  0.62638500  1
  C  770  1  0.13735500  0.25594000  0.61955200  1
  C  771  1  0.11297300  0.26810500  0.62094800  1
  C  772  1  0.11645900  0.27937300  0.61342900  1
  C  773  1  0.14497800  0.27934900  0.60462000  1
  C  774  1  0.17072400  0.26886600  0.60487100  1
  C  775  1  0.16709700  0.25777300  0.61263200  1
  C  776  1  0.15133400  0.22509600  0.61571400  1
  C  777  1  0.09901700  0.23451400  0.62356300  1
  C  778  1  0.08073400  0.23035300  0.60797600  1
  C  779  1  0.05045500  0.22239100  0.60503400  1
  C  780  1  0.03687500  0.21775000  0.61739300  1
  C  781  1  0.05620200  0.22040300  0.63214300  1
  C  782  1  0.08660600  0.22821700  0.63491400  1
  C  783  1  0.16159700  0.21479500  0.62367000  1
  C  784  1  0.17655900  0.19791400  0.61342300  1
  C  785  1  0.18090500  0.19027100  0.59454500  1
  C  786  1  0.16891200  0.19977000  0.58622400  1
  C  787  1  0.15395700  0.21658900  0.59655900  1
  C  804  1  0.00440100  0.21393400  0.61775100  1
  C  805  1  0.16644200  0.29454300  0.70001200  1
  C  808  1  0.14718400  0.29067100  0.59732900  1
  C  810  1  0.19920900  0.17493400  0.58444000  1
  C  812  1  0.15784600  0.32186200  0.60665300  1
  C  813  1  0.18133600  0.33442600  0.60817400  1
  C  814  1  0.17328200  0.35262500  0.61417900  1
  C  815  1  0.14141700  0.35898700  0.61848000  1
  C  816  1  0.11848200  0.34632500  0.61750900  1
  C  817  1  0.12631900  0.32828500  0.61166800  1
  C  818  1  0.13248100  0.37890900  0.62664300  1
  C  819  1  0.13736000  0.38574500  0.64683300  1
  C  820  1  0.11298900  0.38433100  0.65759700  1
  C  821  1  0.11646600  0.39187000  0.67638800  1
  C  822  1  0.14498500  0.40068200  0.68517300  1
  C  823  1  0.17072800  0.40043300  0.67443800  1
  C  824  1  0.16710100  0.39267000  0.65558500  1
  C  825  1  0.15132500  0.38956600  0.61980900  1
  C  826  1  0.09900500  0.38172900  0.62139800  1
  C  827  1  0.08072000  0.39731400  0.63282700  1
  C  828  1  0.05043300  0.40024800  0.62780900  1
  C  829  1  0.03685800  0.38789900  0.61080400  1
  C  830  1  0.05619300  0.37315200  0.59870600  1
  C  831  1  0.08660300  0.37038500  0.60374700  1
  C  832  1  0.16159200  0.38160600  0.60155400  1
  C  833  1  0.17657100  0.39185600  0.59492600  1
  C  834  1  0.18089500  0.41073500  0.60615400  1
  C  835  1  0.16890300  0.41905500  0.62397600  1
  C  836  1  0.15394000  0.40872200  0.63046000  1
  C  853  1  0.00439200  0.38754500  0.60659900  1
  C  854  1  0.16638500  0.30528000  0.60498100  1
  C  857  1  0.14718400  0.40797000  0.70378400  1
  C  859  1  0.19925900  0.42082600  0.60093000  1
  C  861  1  0.15783400  0.39861600  0.72564600  1
  C  862  1  0.18133300  0.39709200  0.73668300  1
  C  863  1  0.17328200  0.39109000  0.74888000  1
  C  864  1  0.14141500  0.38679700  0.75094800  1
  C  865  1  0.11847500  0.38777000  0.73926200  1
  C  866  1  0.12631200  0.39360100  0.72705600  1
  C  867  1  0.13247600  0.37863500  0.76270600  1
  C  868  1  0.13734500  0.35844300  0.74934800  1
  C  869  1  0.11297700  0.34768200  0.73716800  1
  C  870  1  0.11646200  0.32889300  0.72590100  1
  C  871  1  0.14497300  0.32010300  0.72593200  1
  C  872  1  0.17071400  0.33083900  0.73642100  1
  C  873  1  0.16708000  0.34968900  0.74752700  1
  C  874  1  0.15133000  0.38546600  0.78019500  1
  C  875  1  0.09901000  0.38389300  0.77078100  1
  C  876  1  0.08072500  0.37246000  0.77493300  1
  C  877  1  0.05044800  0.37748200  0.78289700  1
  C  878  1  0.03686600  0.39448600  0.78754600  1
  C  879  1  0.05618800  0.40657500  0.78487700  1
  C  880  1  0.08660600  0.40154100  0.77708200  1
  C  881  1  0.16159900  0.40372000  0.79048900  1
  C  882  1  0.17655200  0.41035000  0.80737200  1
  C  883  1  0.18087400  0.39911700  0.81502000  1
  C  884  1  0.16889600  0.38129400  0.80551400  1
  C  885  1  0.15394300  0.37481200  0.78869600  1
  C  902  1  0.00440100  0.39869600  0.79141000  1
  C  903  1  0.16631600  0.40027800  0.71072800  1
  C  906  1  0.14720100  0.30148500  0.71460300  1
  C  908  1  0.19918200  0.40433500  0.83034600  1
  C  910  1  0.15789800  0.72050700  0.32705000  1
  C  911  1  0.18136900  0.73152500  0.33965400  1
  C  912  1  0.17331000  0.74371800  0.35785000  1
  C  913  1  0.14144600  0.74577900  0.36420100  1
  C  914  1  0.11852300  0.73408400  0.35153700  1
  C  915  1  0.12638100  0.72190400  0.33349600  1
  C  916  1  0.13247100  0.75753000  0.38411700  1
  C  917  1  0.13732600  0.74417700  0.39095500  1
  C  918  1  0.11293700  0.73201100  0.38954400  1
  C  919  1  0.11639500  0.72075600  0.39707700  1
  C  920  1  0.14490900  0.72077300  0.40588600  1
  C  921  1  0.17068300  0.73123000  0.40561900  1
  C  922  1  0.16706100  0.74234500  0.39788300  1
  C  923  1  0.15131500  0.77501800  0.39477800  1
  C  924  1  0.09900000  0.76559900  0.38692700  1
  C  925  1  0.08071800  0.76975800  0.40251600  1
  C  926  1  0.05042200  0.77769600  0.40544400  1
  C  927  1  0.03682300  0.78229200  0.39305300  1
  C  928  1  0.05615700  0.77966300  0.37831800  1
  C  929  1  0.08658200  0.77187800  0.37556500  1
  C  930  1  0.16158700  0.78531300  0.38681900  1
  C  931  1  0.17655700  0.80219000  0.39707000  1
  C  932  1  0.18090000  0.80982500  0.41594700  1
  C  933  1  0.16889800  0.80032900  0.42426800  1
  C  934  1  0.15393100  0.78351500  0.41393300  1
  C  951  1  0.00437000  0.78617700  0.39273300  1
  C  952  1  0.16648700  0.70558100  0.31050300  1
  C  955  1  0.14711500  0.70934700  0.41304000  1
  C  957  1  0.19920400  0.82515600  0.42605800  1
  C  959  1  0.15792700  0.67822200  0.40389500  1
  C  960  1  0.18139500  0.66563000  0.40232800  1
  C  961  1  0.17333400  0.64743000  0.39631200  1
  C  962  1  0.14146700  0.64108100  0.39202300  1
  C  963  1  0.11854200  0.65374700  0.39299700  1
  C  964  1  0.12640500  0.67178300  0.39883800  1
  C  965  1  0.13248600  0.62116600  0.38385900  1
  C  966  1  0.13734300  0.61432900  0.36366900  1
  C  967  1  0.11294400  0.61572800  0.35291300  1
  C  968  1  0.11640900  0.60821100  0.33412900  1
  C  969  1  0.14492800  0.59941000  0.32533800  1
  C  970  1  0.17069300  0.59965500  0.33605700  1
  C  971  1  0.16708200  0.60741000  0.35491000  1
  C  972  1  0.15133000  0.61050500  0.39068500  1
  C  973  1  0.09901500  0.61835700  0.38911900  1
  C  974  1  0.08073000  0.60276900  0.37769000  1
  C  975  1  0.05043100  0.59984500  0.38270100  1
  C  976  1  0.03683200  0.61222000  0.39969300  1
  C  977  1  0.05616200  0.62696800  0.41178600  1
  C  978  1  0.08658900  0.62972100  0.40675800  1
  C  979  1  0.16159900  0.61846300  0.40893900  1
  C  980  1  0.17657600  0.60821000  0.41556200  1
  C  981  1  0.18089300  0.58933000  0.40432800  1
  C  982  1  0.16890500  0.58101400  0.38650700  1
  C  983  1  0.15394800  0.59135000  0.38002700  1
  C  1000  1  0.00437300  0.61255300  0.40387500  1
  C  1001  1  0.16642500  0.69478800  0.40551700  1
  C  1004  1  0.14713400  0.59225100  0.30675600  1
  C  1006  1  0.19919000  0.57921600  0.40954800  1
  C  1008  1  0.15791700  0.60138700  0.28476100  1
  C  1009  1  0.18139500  0.60297900  0.27375700  1
  C  1010  1  0.17333400  0.60898100  0.26156300  1
  C  1011  1  0.14146500  0.61326400  0.25949800  1
  C  1012  1  0.11853900  0.61229400  0.27119200  1
  C  1013  1  0.12638600  0.60641900  0.28336300  1
  C  1014  1  0.13248600  0.62143200  0.24775100  1
  C  1015  1  0.13733800  0.64162300  0.26111300  1
  C  1016  1  0.11294200  0.65238000  0.27327000  1
  C  1017  1  0.11641400  0.67116500  0.28454300  1
  C  1018  1  0.14493500  0.67995600  0.28453300  1
  C  1019  1  0.17069000  0.66923300  0.27405100  1
  C  1020  1  0.16707800  0.65038100  0.26295000  1
  C  1021  1  0.15131800  0.61461600  0.23026000  1
  C  1022  1  0.09901700  0.61617200  0.23968000  1
  C  1023  1  0.08073000  0.62760500  0.23552800  1
  C  1024  1  0.05044100  0.62258900  0.22758000  1
  C  1025  1  0.03686300  0.60558900  0.22294100  1
  C  1026  1  0.05619500  0.59348800  0.22558500  1
  C  1027  1  0.08660100  0.59853000  0.23339600  1
  C  1028  1  0.16159700  0.59636100  0.21997400  1
  C  1029  1  0.17657100  0.58973500  0.20309700  1
  C  1030  1  0.18089800  0.60096600  0.19544700  1
  C  1031  1  0.16892400  0.61879100  0.20495500  1
  C  1032  1  0.15395500  0.62527500  0.22176900  1
  C  1049  1  0.00438200  0.60142200  0.21914300  1
  C  1050  1  0.16639000  0.59980500  0.29972200  1
  C  1053  1  0.14716700  0.69854700  0.29594500  1
  C  1055  1  0.19920200  0.59574000  0.18011300  1
  N  31  1  0.64350600  0.54140200  0.46418200  1
  N  33  1  0.65675800  0.55683500  0.44904300  1
  N  35  1  0.69640500  0.54610900  0.45976300  1
  N  37  1  0.72344800  0.50413200  0.50113000  1
  N  38  1  0.50626900  0.55989900  0.44537300  1
  N  39  1  0.77992400  0.57907400  0.42038700  1
  N  70  1  0.64328800  0.91768600  0.46391600  1
  N  72  1  0.65663600  0.88715200  0.44850300  1
  N  74  1  0.69627900  0.90853000  0.45919500  1
  N  76  1  0.72355200  0.99181700  0.50114300  1
  N  77  1  0.50720700  0.87549400  0.44299000  1
  N  78  1  0.77989800  0.83616000  0.42621300  1
  N  109  1  0.64354700  0.54114200  0.08774000  1
  N  111  1  0.65676700  0.55628000  0.11831300  1
  N  113  1  0.69642100  0.54553400  0.09681700  1
  N  115  1  0.72326700  0.50414500  0.01342500  1
  N  116  1  0.50472000  0.55859900  0.12234000  1
  N  117  1  0.77993900  0.58490000  0.16912800  1
  N  148  1  0.64356600  0.45858100  0.54640600  1
  N  150  1  0.65672700  0.44314800  0.56154800  1
  N  152  1  0.69639500  0.45393200  0.55076400  1
  N  154  1  0.72341900  0.49594400  0.50936600  1
  N  155  1  0.50378700  0.44240000  0.56290800  1
  N  156  1  0.77996200  0.42101400  0.59010500  1
  N  187  1  0.64351800  0.08247500  0.54660900  1
  N  189  1  0.65676300  0.11304700  0.56204200  1
  N  191  1  0.69641400  0.09159300  0.55131300  1
  N  193  1  0.72335500  0.00823900  0.50932900  1
  N  194  1  0.50625200  0.11976300  0.56509900  1
  N  195  1  0.77991900  0.16392600  0.58426400  1
  N  226  1  0.64307100  0.45899200  0.92284200  1
  N  228  1  0.65653400  0.44388400  0.89233500  1
  N  230  1  0.69611900  0.45458400  0.91374300  1
  N  232  1  0.72363300  0.49590800  0.99700200  1
  N  233  1  0.50635700  0.43780000  0.88081800  1
  N  234  1  0.77986200  0.41519500  0.84137100  1
  N  265  1  0.34258900  0.08240900  0.54627600  1
  N  267  1  0.32927300  0.11295500  0.56140200  1
  N  269  1  0.28962400  0.09156700  0.55071100  1
  N  271  1  0.26266400  0.00822800  0.50934800  1
  N  272  1  0.47821700  0.12389300  0.56719200  1
  N  273  1  0.20605100  0.16393100  0.59010600  1
  N  304  1  0.34288100  0.45898800  0.54659600  1
  N  306  1  0.32941800  0.44388100  0.56199400  1
  N  308  1  0.28983100  0.45458300  0.55128800  1
  N  310  1  0.26252800  0.49592100  0.50933400  1
  N  311  1  0.47959000  0.43780300  0.56743500  1
  N  312  1  0.20607900  0.41519300  0.58426400  1
  N  343  1  0.34239300  0.45858000  0.92261500  1
  N  345  1  0.32923500  0.44314600  0.89204000  1
  N  347  1  0.28956700  0.45393000  0.91360800  1
  N  349  1  0.26257400  0.49594800  0.99702800  1
  N  350  1  0.48218700  0.44241600  0.88996500  1
  N  351  1  0.20600300  0.42100800  0.84134500  1
  N  382  1  0.34242400  0.91756600  0.46415300  1
  N  384  1  0.32919900  0.88699100  0.44901300  1
  N  386  1  0.28955000  0.90847800  0.45975600  1
  N  388  1  0.26236900  0.99180800  0.50111200  1
  N  389  1  0.48107300  0.88265400  0.44654000  1
  N  390  1  0.20603900  0.83615300  0.42038400  1
  N  421  1  0.34257900  0.54107600  0.46391300  1
  N  423  1  0.32927300  0.55620300  0.44849000  1
  N  425  1  0.28962400  0.54551000  0.45918700  1
  N  427  1  0.26248100  0.50416100  0.50115000  1
  N  428  1  0.47823100  0.56198400  0.44333300  1
  N  429  1  0.20604600  0.58489400  0.42621800  1
  N  460  1  0.34269100  0.54137100  0.08760200  1
  N  462  1  0.32933200  0.55678100  0.11813400  1
  N  464  1  0.28969300  0.54608900  0.09675500  1
  N  466  1  0.26247400  0.50413500  0.01345200  1
  N  467  1  0.47885700  0.56230000  0.12981900  1
  N  468  1  0.20605600  0.57907000  0.16911900  1
