# generated using pymatgen
data_H14C19(N2O)2
_symmetry_space_group_name_H-M   'P 1'
_cell_length_a   48.64984308
_cell_length_b   48.64984308
_cell_length_c   48.64984308
_cell_angle_alpha   109.47122063
_cell_angle_beta   109.47122063
_cell_angle_gamma   109.47122063
_symmetry_Int_Tables_number   1
_chemical_formula_structural   H14C19(N2O)2
_chemical_formula_sum   'H672 C912 N192 O96'
_cell_volume   88638.50870989
_cell_formula_units_Z   48
loop_
 _symmetry_equiv_pos_site_id
 _symmetry_equiv_pos_as_xyz
  1  'x, y, z'
loop_
 _atom_site_type_symbol
 _atom_site_label
 _atom_site_symmetry_multiplicity
 _atom_site_fract_x
 _atom_site_fract_y
 _atom_site_fract_z
 _atom_site_occupancy
  C  1  1  0.43085200  0.19763750  0.43037450  1
  C  2  1  0.42877850  0.16461750  0.40755900  1
  C  3  1  0.41117800  0.20861150  0.40780850  1
  C  4  1  0.42597200  0.21495550  0.38492550  1
  C  7  1  0.42415000  0.18147550  0.36307050  1
  C  8  1  0.44424750  0.16991350  0.38495500  1
  C  13  1  0.48192850  0.19914200  0.40774750  1
  C  14  1  0.48485300  0.23271700  0.43027700  1
  C  17  1  0.46404750  0.24285550  0.40743100  1
  C  20  1  0.46876000  0.22608800  0.45209700  1
  C  31  1  0.05469450  0.99213250  0.25933700  1
  C  32  1  0.05674950  0.97130600  0.22841650  1
  C  33  1  0.07429850  0.98924150  0.29001300  1
  C  34  1  0.05941950  0.95157300  0.28159850  1
  C  37  1  0.06121650  0.93145050  0.24995600  1
  C  38  1  0.04118050  0.93323650  0.21826800  1
  C  43  1  0.00350150  0.91843950  0.20981300  1
  C  44  1  0.00060050  0.93813800  0.24044350  1
  C  47  1  0.02134250  0.93609900  0.27141650  1
  C  50  1  0.01677900  0.97603650  0.24986550  1
  C  61  1  0.72528700  0.30230000  0.24043200  1
  C  62  1  0.73550850  0.33536250  0.27134000  1
  C  63  1  0.69167250  0.29122450  0.20981700  1
  C  64  1  0.66252550  0.28491000  0.21838350  1
  C  67  1  0.67417250  0.31843100  0.25000350  1
  C  68  1  0.70769950  0.33010700  0.28164350  1
  C  73  1  0.70139000  0.30094650  0.29019550  1
  C  74  1  0.69033800  0.26733500  0.25958800  1
  C  77  1  0.65727250  0.25709100  0.22866450  1
  C  80  1  0.71870800  0.27394300  0.25001800  1
  C  91  1  0.76024450  0.50787550  0.06984500  1
  C  92  1  0.74997350  0.52855650  0.09263200  1
  C  93  1  0.79385000  0.51089200  0.09243800  1
  C  94  1  0.82300600  0.54860700  0.11528400  1
  C  97  1  0.81130250  0.56857300  0.13710050  1
  C  98  1  0.77778550  0.56665950  0.11519200  1
  C  103  1  0.78412650  0.58152950  0.09235900  1
  C  104  1  0.79522600  0.56198850  0.06985350  1
  C  107  1  0.82828100  0.56415900  0.09273000  1
  C  110  1  0.76687500  0.52404100  0.04808200  1
  C  121  1  0.00060600  0.56974350  0.76744350  1
  C  122  1  0.02135100  0.59252500  0.75721500  1
  C  123  1  0.00350800  0.59234400  0.80097400  1
  C  124  1  0.04118600  0.61522550  0.83019850  1
  C  127  1  0.06122250  0.63704450  0.81854900  1
  C  128  1  0.05942650  0.61512450  0.78511000  1
  C  133  1  0.07430300  0.59233400  0.79157600  1
  C  134  1  0.05469600  0.56983850  0.80264550  1
  C  137  1  0.05675100  0.59272350  0.83562050  1
  C  140  1  0.01678100  0.54802300  0.77420100  1
  C  151  1  0.79523000  0.74051950  0.73265350  1
  C  152  1  0.82828500  0.77140600  0.74283000  1
  C  153  1  0.78412800  0.70987650  0.69904750  1
  C  154  1  0.77778200  0.71840650  0.66987250  1
  C  157  1  0.81129750  0.75001200  0.68147850  1
  C  158  1  0.82300350  0.78168200  0.71499850  1
  C  163  1  0.79384550  0.79024000  0.70869450  1
  C  164  1  0.76024200  0.75964950  0.69768350  1
  C  167  1  0.74996850  0.72869650  0.66462500  1
  C  170  1  0.76687950  0.75011600  0.72607850  1
  C  181  1  0.48485750  0.75940200  0.06184350  1
  C  182  1  0.46403950  0.72845550  0.06387400  1
  C  183  1  0.48194850  0.79005800  0.08146150  1
  C  184  1  0.44427650  0.78162600  0.06658350  1
  C  187  1  0.42416450  0.74996400  0.06835850  1
  C  188  1  0.42596950  0.71830000  0.04831250  1
  C  193  1  0.41117800  0.70986400  0.01064000  1
  C  194  1  0.43086450  0.74051300  0.00775850  1
  C  197  1  0.42880850  0.77146750  0.02851500  1
  C  200  1  0.46876850  0.74995400  0.02393750  1
  C  211  1  0.69034200  0.93030100  0.43804200  1
  C  212  1  0.65728200  0.90748100  0.43591100  1
  C  213  1  0.70138350  0.90773950  0.41847100  1
  C  214  1  0.70770150  0.88488700  0.43332750  1
  C  217  1  0.67418250  0.86303800  0.43145350  1
  C  218  1  0.66254350  0.88491300  0.45144050  1
  C  223  1  0.69170200  0.90774250  0.48914950  1
  C  224  1  0.72531050  0.93028100  0.49213750  1
  C  227  1  0.73552200  0.90743700  0.47143600  1
  C  230  1  0.71872250  0.95206000  0.47597750  1
  C  241  1  0.23321400  0.23268300  0.80232500  1
  C  242  1  0.26414650  0.24288450  0.83535200  1
  C  243  1  0.20256850  0.19913250  0.79133000  1
  C  244  1  0.21104350  0.16992400  0.78499550  1
  C  247  1  0.24268850  0.18154600  0.81848250  1
  C  248  1  0.27435350  0.21500550  0.83007000  1
  C  253  1  0.28281600  0.20858600  0.80084700  1
  C  254  1  0.25217400  0.19754450  0.76726450  1
  C  257  1  0.22122900  0.16454750  0.75710550  1
  C  260  1  0.24269950  0.22598400  0.77389350  1
  C  271  1  0.06267450  0.26745850  0.00793200  1
  C  272  1  0.08550600  0.25725600  0.02865700  1
  C  273  1  0.08522350  0.30104500  0.01089150  1
  C  274  1  0.10806000  0.33023750  0.04858850  1
  C  277  1  0.12992250  0.31860350  0.06860200  1
  C  278  1  0.10805900  0.28510450  0.06675150  1
  C  283  1  0.08522150  0.29146050  0.08161100  1
  C  284  1  0.06267350  0.30249850  0.06202200  1
  C  287  1  0.08550550  0.33553150  0.06412900  1
  C  290  1  0.04090950  0.27409550  0.02409400  1
  C  301  1  0.42301950  0.93810700  0.69764350  1
  C  302  1  0.40018800  0.93599100  0.66460000  1
  C  303  1  0.40047050  0.91852650  0.70868800  1
  C  304  1  0.37763200  0.93338850  0.71503150  1
  C  307  1  0.35576950  0.93152850  0.68153000  1
  C  308  1  0.37763000  0.95152800  0.66988700  1
  C  313  1  0.40047300  0.98922950  0.69907050  1
  C  314  1  0.42302150  0.99219800  0.73266450  1
  C  317  1  0.40019050  0.97148250  0.74287700  1
  C  320  1  0.44478900  0.97603500  0.72603700  1
  C  331  1  0.25217250  0.56191800  0.49219750  1
  C  332  1  0.22122950  0.56397350  0.47141600  1
  C  333  1  0.28281350  0.58151550  0.48925500  1
  C  334  1  0.27434550  0.56663450  0.45156800  1
  C  337  1  0.24268400  0.56843450  0.43149450  1
  C  338  1  0.21103850  0.54841150  0.43333900  1
  C  343  1  0.20256050  0.51072700  0.41852650  1
  C  344  1  0.23320300  0.50781850  0.43817250  1
  C  347  1  0.26413600  0.52854800  0.43607500  1
  C  350  1  0.24269250  0.52400150  0.47608900  1
  C  721  1  0.55457000  0.80235750  0.56961250  1
  C  722  1  0.55663150  0.83536950  0.59242400  1
  C  723  1  0.57425500  0.79139300  0.59218000  1
  C  724  1  0.55946350  0.78504050  0.61506200  1
  C  727  1  0.56127200  0.81851400  0.63691500  1
  C  728  1  0.54116350  0.83006600  0.61502750  1
  C  733  1  0.50348900  0.80082850  0.59223550  1
  C  734  1  0.50057550  0.76725900  0.56970850  1
  C  737  1  0.52139200  0.75713050  0.59255850  1
  C  740  1  0.51666500  0.77389550  0.54788850  1
  C  751  1  0.93073950  0.00786300  0.74066750  1
  C  752  1  0.92868600  0.02869250  0.77158750  1
  C  753  1  0.91113250  0.01075000  0.70998950  1
  C  754  1  0.92600850  0.04841800  0.71840050  1
  C  757  1  0.92421350  0.06854250  0.75004300  1
  C  758  1  0.94425200  0.06676150  0.78173250  1
  C  763  1  0.98193000  0.08155800  0.79018500  1
  C  764  1  0.98482900  0.06185800  0.75955400  1
  C  767  1  0.96408400  0.06389250  0.72857950  1
  C  770  1  0.96865300  0.02396100  0.75013700  1
  C  781  1  0.26012350  0.69768550  0.75954800  1
  C  782  1  0.24991200  0.66462900  0.72863900  1
  C  783  1  0.29373250  0.70875900  0.79016750  1
  C  784  1  0.32289000  0.71508550  0.78161550  1
  C  787  1  0.31125050  0.68156900  0.74999150  1
  C  788  1  0.27773000  0.66989550  0.71834750  1
  C  793  1  0.28404400  0.69906300  0.70980400  1
  C  794  1  0.29508700  0.73266650  0.74041350  1
  C  797  1  0.32814800  0.74291000  0.77134200  1
  C  800  1  0.26670950  0.72604950  0.74997100  1
  C  811  1  0.22519400  0.49212750  0.93016050  1
  C  812  1  0.23546450  0.47144600  0.90737450  1
  C  813  1  0.19158950  0.48911250  0.90756700  1
  C  814  1  0.16243200  0.45139950  0.88471850  1
  C  817  1  0.17413450  0.43143150  0.86290300  1
  C  818  1  0.20765000  0.43334350  0.88481350  1
  C  823  1  0.20130650  0.41847250  0.90764500  1
  C  824  1  0.19020550  0.43801300  0.93014850  1
  C  827  1  0.15715200  0.43584500  0.90727000  1
  C  830  1  0.21855800  0.47596100  0.95192200  1
  C  841  1  0.98482700  0.43026350  0.23257250  1
  C  842  1  0.96407450  0.40748200  0.24279450  1
  C  843  1  0.98193450  0.40766550  0.19904600  1
  C  844  1  0.94425950  0.38478550  0.16981400  1
  C  847  1  0.92421500  0.36296350  0.18145950  1
  C  848  1  0.92600300  0.38488200  0.21489300  1
  C  853  1  0.91112800  0.40767250  0.20842250  1
  C  854  1  0.93074300  0.43017000  0.19735900  1
  C  857  1  0.92869750  0.40728850  0.16438900  1
  C  860  1  0.96865450  0.45198500  0.22581050  1
  C  871  1  0.19021000  0.25947600  0.26734100  1
  C  872  1  0.15716050  0.22858550  0.25716600  1
  C  873  1  0.20130550  0.29012000  0.30094250  1
  C  874  1  0.20765650  0.28159900  0.33012250  1
  C  877  1  0.17414400  0.24998950  0.31851850  1
  C  878  1  0.16244700  0.21831800  0.28500400  1
  C  883  1  0.19161200  0.20977150  0.29131950  1
  C  884  1  0.22521150  0.24036700  0.30232650  1
  C  887  1  0.23547650  0.27131950  0.33537900  1
  C  890  1  0.21857000  0.24989150  0.27392550  1
  C  901  1  0.50057950  0.24060000  0.93815950  1
  C  902  1  0.52139950  0.27154550  0.93613100  1
  C  903  1  0.50349150  0.20994350  0.91854400  1
  C  904  1  0.54116650  0.21837900  0.93342650  1
  C  907  1  0.56127800  0.25004100  0.93165200  1
  C  908  1  0.55947050  0.28170600  0.95169950  1
  C  913  1  0.57425850  0.29013950  0.98937100  1
  C  914  1  0.55457000  0.25948800  0.99224900  1
  C  917  1  0.55663100  0.22853850  0.97149550  1
  C  920  1  0.51666600  0.25004700  0.97606700  1
  C  931  1  0.29509100  0.06970600  0.56195700  1
  C  932  1  0.32814850  0.09252500  0.56408450  1
  C  933  1  0.28404650  0.09226600  0.58152650  1
  C  934  1  0.27772600  0.11511750  0.56666750  1
  C  937  1  0.31124400  0.13696500  0.56853700  1
  C  938  1  0.32288350  0.11509050  0.54855200  1
  C  943  1  0.29372300  0.09225550  0.51084250  1
  C  944  1  0.26011700  0.06971900  0.50785800  1
  C  947  1  0.24990450  0.09256150  0.52855700  1
  C  950  1  0.26670750  0.04794200  0.52402150  1
  C  961  1  0.75222300  0.76731950  0.19767850  1
  C  962  1  0.72128950  0.75711500  0.16464750  1
  C  963  1  0.78286700  0.80086850  0.20867150  1
  C  964  1  0.77438900  0.83007500  0.21500200  1
  C  967  1  0.74274350  0.81845150  0.18151300  1
  C  968  1  0.71108050  0.78499150  0.16992600  1
  C  973  1  0.70261550  0.79141000  0.19914650  1
  C  974  1  0.73325600  0.80245500  0.23273200  1
  C  977  1  0.76420000  0.83545100  0.24289000  1
  C  980  1  0.74273300  0.77401650  0.22610550  1
  C  991  1  0.92276000  0.73254350  0.99206750  1
  C  992  1  0.89992800  0.74274450  0.97133850  1
  C  993  1  0.90021000  0.69895750  0.98910850  1
  C  994  1  0.87737500  0.66976250  0.95141250  1
  C  997  1  0.85551350  0.68139700  0.93139650  1
  C  998  1  0.87737550  0.71489200  0.93324350  1
  C  1003  1  0.90021550  0.70853700  0.91838750  1
  C  1004  1  0.92276500  0.69750200  0.93798200  1
  C  1007  1  0.89993200  0.66446750  0.93587450  1
  C  1010  1  0.94452650  0.72590400  0.97590750  1
  C  1021  1  0.56241000  0.06189750  0.30236150  1
  C  1022  1  0.58524300  0.06401750  0.33540650  1
  C  1023  1  0.58495600  0.08147700  0.29131500  1
  C  1024  1  0.60779950  0.06662100  0.28497550  1
  C  1027  1  0.62966350  0.06848500  0.31848050  1
  C  1028  1  0.60780450  0.04848450  0.33012300  1
  C  1033  1  0.58496700  0.01078250  0.30094250  1
  C  1034  1  0.56241650  0.00780950  0.26734800  1
  C  1037  1  0.58524500  0.02852500  0.25713400  1
  C  1040  1  0.54064250  0.02396550  0.27396900  1
  C  1051  1  0.73327300  0.43809150  0.50779550  1
  C  1052  1  0.76421950  0.43604550  0.52858600  1
  C  1053  1  0.70262700  0.41848400  0.51072700  1
  C  1054  1  0.71108100  0.43336000  0.54840900  1
  C  1057  1  0.74274900  0.43157150  0.56849450  1
  C  1058  1  0.77439650  0.45160350  0.56665900  1
  C  1063  1  0.78286300  0.48928400  0.58146800  1
  C  1064  1  0.75221700  0.49218300  0.56181300  1
  C  1067  1  0.72128050  0.47144450  0.56389800  1
  C  1070  1  0.74274050  0.47600350  0.52389800  1
  C  1441  1  0.47892700  0.11688950  0.35996850  1
  C  1442  1  0.48699900  0.09181900  0.36145100  1
  C  1443  1  0.51029050  0.08737950  0.35162000  1
  C  1444  1  0.52609050  0.10854250  0.34099700  1
  C  1445  1  0.51843900  0.13373650  0.34001850  1
  C  1446  1  0.49501850  0.13764250  0.34916400  1
  C  1448  1  0.50344300  0.04288600  0.36449600  1
  C  1449  1  0.48041100  0.04749250  0.37454950  1
  C  1453  1  0.51136700  0.01791650  0.36598250  1
  C  1454  1  0.49675450  0.99791950  0.37793900  1
  C  1455  1  0.47410100  0.00273900  0.38825200  1
  C  1456  1  0.46579350  0.02742950  0.38646400  1
  C  1461  1  0.54903750  0.10468150  0.33075900  1
  C  1462  1  0.45929500  0.12477650  0.37379550  1
  C  1465  1  0.00645050  0.87361150  0.13055300  1
  C  1466  1  0.99835750  0.86704800  0.09741550  1
  C  1467  1  0.97495400  0.83396450  0.06965750  1
  C  1468  1  0.95908700  0.80754700  0.07499500  1
  C  1469  1  0.96676450  0.81419150  0.10783700  1
  C  1470  1  0.99028000  0.84672350  0.13518950  1
  C  1472  1  0.98183000  0.85372900  0.03204500  1
  C  1473  1  0.00498350  0.88677650  0.05971400  1
  C  1477  1  0.97384800  0.84733700  0.99915400  1
  C  1478  1  0.98853150  0.87391250  0.99380300  1
  C  1479  1  0.01131000  0.90683950  0.02130850  1
  C  1480  1  0.01967250  0.91331550  0.05430400  1
  C  1485  1  0.93611150  0.77438250  0.04815900  1
  C  1486  1  0.02624250  0.90706400  0.15809950  1
  C  1489  1  0.73586550  0.38307650  0.36932200  1
  C  1490  1  0.76246400  0.40809150  0.40246350  1
  C  1491  1  0.75712750  0.41250800  0.43022450  1
  C  1492  1  0.72534500  0.39138150  0.42488950  1
  C  1493  1  0.69912500  0.36623900  0.39204700  1
  C  1494  1  0.70431500  0.36235450  0.36469550  1
  C  1496  1  0.81453100  0.45692900  0.46783500  1
  C  1497  1  0.81992450  0.45235550  0.44016900  1
  C  1501  1  0.84103600  0.48184350  0.50072350  1
  C  1502  1  0.87297850  0.50181900  0.50607350  1
  C  1503  1  0.87841550  0.49703350  0.47857100  1
  C  1504  1  0.85189050  0.47239600  0.44557750  1
  C  1509  1  0.71898650  0.39527300  0.45171250  1
  C  1510  1  0.74172850  0.37524650  0.34174800  1
  C  1513  1  0.74960450  0.62619200  0.14013450  1
  C  1514  1  0.72303250  0.63276600  0.13859350  1
  C  1515  1  0.72841450  0.66588600  0.14842350  1
  C  1516  1  0.76021500  0.69232550  0.15909950  1
  C  1517  1  0.78640950  0.68567150  0.16014100  1
  C  1518  1  0.78117800  0.65310950  0.15100050  1
  C  1520  1  0.67101200  0.64612900  0.13543300  1
  C  1521  1  0.66557150  0.61304500  0.12537650  1
  C  1525  1  0.64453450  0.65254800  0.13388650  1
  C  1526  1  0.61256700  0.62596150  0.12186650  1
  C  1527  1  0.60707900  0.59299700  0.11155000  1
  C  1528  1  0.63358050  0.58649750  0.11340000  1
  C  1533  1  0.76659900  0.72550900  0.16931700  1
  C  1534  1  0.74368450  0.59273750  0.12632400  1
  C  1537  1  0.11907000  0.64005000  0.75702300  1
  C  1538  1  0.12564350  0.63857250  0.73046400  1
  C  1539  1  0.15876800  0.64843650  0.73584950  1
  C  1540  1  0.18520700  0.65908000  0.76763500  1
  C  1541  1  0.17854800  0.66004700  0.79381200  1
  C  1542  1  0.14598100  0.65087450  0.78858050  1
  C  1544  1  0.13901000  0.63554000  0.67847100  1
  C  1545  1  0.10592350  0.62545050  0.67303000  1
  C  1549  1  0.14543250  0.63406150  0.65200900  1
  C  1550  1  0.11884700  0.62207450  0.62005250  1
  C  1551  1  0.08587850  0.61172300  0.61456350  1
  C  1552  1  0.07937450  0.61350400  0.64104950  1
  C  1557  1  0.21838900  0.66931500  0.77399800  1
  C  1558  1  0.08561950  0.62620800  0.75109950  1
  C  1561  1  0.87593400  0.86938700  0.74323000  1
  C  1562  1  0.90087850  0.90253200  0.76986850  1
  C  1563  1  0.90519550  0.93031900  0.76460050  1
  C  1564  1  0.88405350  0.92500050  0.73283200  1
  C  1565  1  0.85898750  0.89215200  0.70656450  1
  C  1566  1  0.85519250  0.86477650  0.71169400  1
  C  1568  1  0.94955000  0.96791200  0.82203300  1
  C  1569  1  0.94508450  0.94021550  0.82735500  1
  C  1573  1  0.97436900  0.00080500  0.84859200  1
  C  1574  1  0.99436250  0.00612750  0.88051500  1
  C  1575  1  0.98969050  0.97859300  0.88587850  1
  C  1576  1  0.96514400  0.94559650  0.85930050  1
  C  1581  1  0.88794750  0.95184800  0.72652050  1
  C  1582  1  0.86821500  0.84177900  0.74904000  1
  C  1585  1  0.36628450  0.63061000  0.01363050  1
  C  1586  1  0.35967950  0.59747650  0.00561700  1
  C  1587  1  0.32655350  0.56974700  0.98234550  1
  C  1588  1  0.30013800  0.57510150  0.96650550  1
  C  1589  1  0.30683050  0.60794000  0.97409350  1
  C  1590  1  0.33940050  0.63526450  0.99749200  1
  C  1592  1  0.34626500  0.53211500  0.98927900  1
  C  1593  1  0.37935450  0.55975350  0.01228800  1
  C  1597  1  0.33981950  0.49923050  0.98140500  1
  C  1598  1  0.36638550  0.49385050  0.99604200  1
  C  1599  1  0.39935650  0.52132200  0.01867150  1
  C  1600  1  0.40588300  0.55431400  0.02693100  1
  C  1605  1  0.26695050  0.54829150  0.94355500  1
  C  1606  1  0.39975450  0.65811750  0.03327300  1
  C  1609  1  0.60941350  0.85990900  0.48600250  1
  C  1610  1  0.58438800  0.86144800  0.49413000  1
  C  1611  1  0.57996900  0.85164250  0.51744350  1
  C  1612  1  0.60111050  0.84098300  0.53320850  1
  C  1613  1  0.62625400  0.83993650  0.52549850  1
  C  1614  1  0.63014000  0.84906200  0.50206100  1
  C  1616  1  0.53554950  0.86461800  0.51068750  1
  C  1617  1  0.54012900  0.87464300  0.48763000  1
  C  1621  1  0.51063400  0.86617600  0.51867400  1
  C  1622  1  0.49066100  0.87816950  0.50409550  1
  C  1623  1  0.49545300  0.88845150  0.48141450  1
  C  1624  1  0.52009050  0.88659400  0.47304550  1
  C  1629  1  0.59727850  0.83075600  0.55617050  1
  C  1630  1  0.61728400  0.87371400  0.46634700  1
  C  1633  1  0.36208250  0.24315750  0.88307300  1
  C  1634  1  0.39521350  0.26976650  0.90810300  1
  C  1635  1  0.42298800  0.26445200  0.91253700  1
  C  1636  1  0.41767500  0.23267750  0.89142050  1
  C  1637  1  0.38484150  0.20644500  0.86626650  1
  C  1638  1  0.35747400  0.21161550  0.86235450  1
  C  1640  1  0.46057250  0.32186850  0.95692800  1
  C  1641  1  0.43289000  0.32723650  0.95234650  1
  C  1645  1  0.49345700  0.34839500  0.98182200  1
  C  1646  1  0.49878750  0.38033400  0.00178150  1
  C  1647  1  0.47126800  0.38574350  0.99699350  1
  C  1648  1  0.43828050  0.35919800  0.97236950  1
  C  1653  1  0.44452250  0.22636300  0.89533150  1
  C  1654  1  0.33451300  0.24902100  0.87518100  1
  C  1657  1  0.13284050  0.25694000  0.12629750  1
  C  1658  1  0.13124750  0.23034800  0.13285350  1
  C  1659  1  0.14094950  0.23568650  0.16594500  1
  C  1660  1  0.15156100  0.26746450  0.19237250  1
  C  1661  1  0.15265400  0.29367950  0.18573450  1
  C  1662  1  0.14363700  0.28848950  0.15320050  1
  C  1664  1  0.12799650  0.17829150  0.14617800  1
  C  1665  1  0.11806700  0.17289650  0.11312250  1
  C  1669  1  0.12640450  0.15179250  0.15257300  1
  C  1670  1  0.11446650  0.11985250  0.12599500  1
  C  1671  1  0.10427400  0.11441250  0.09305650  1
  C  1672  1  0.10616900  0.14093250  0.08657750  1
  C  1677  1  0.16177700  0.27382550  0.22555050  1
  C  1678  1  0.11922050  0.25106850  0.09285900  1
  C  1681  1  0.35269100  0.98621300  0.61691000  1
  C  1682  1  0.35416900  0.99430100  0.59184900  1
  C  1683  1  0.34432750  0.01758950  0.58741800  1
  C  1684  1  0.33370800  0.03338200  0.60859200  1
  C  1685  1  0.33273900  0.02571950  0.63378150  1
  C  1686  1  0.34188600  0.00229500  0.63767000  1
  C  1688  1  0.35715950  0.01073400  0.54289450  1
  C  1689  1  0.36723350  0.98771150  0.54749800  1
  C  1693  1  0.35860700  0.01864050  0.51790650  1
  C  1694  1  0.37055000  0.00402850  0.49789350  1
  C  1695  1  0.38088950  0.98139250  0.50271500  1
  C  1696  1  0.37913650  0.97309650  0.52742200  1
  C  1701  1  0.32343750  0.05631500  0.60474350  1
  C  1702  1  0.36646150  0.96652250  0.62474200  1
  C  1705  1  0.12331700  0.51386250  0.37373050  1
  C  1706  1  0.09018200  0.50580400  0.36715400  1
  C  1707  1  0.06243550  0.48249650  0.33404300  1
  C  1708  1  0.06778100  0.46668250  0.30761050  1
  C  1709  1  0.10062100  0.47432750  0.31426550  1
  C  1710  1  0.12795900  0.49774850  0.34682550  1
  C  1712  1  0.02480750  0.48931750  0.35380300  1
  C  1713  1  0.05246200  0.51237600  0.38687700  1
  C  1717  1  0.99191600  0.48135250  0.34739450  1
  C  1718  1  0.98654750  0.49595950  0.37397800  1
  C  1719  1  0.01403550  0.51864600  0.40693150  1
  C  1720  1  0.04703200  0.52698750  0.41342250  1
  C  1725  1  0.04095850  0.44370250  0.27444100  1
  C  1726  1  0.15083350  0.53347850  0.40719800  1
  C  1729  1  0.47896900  0.86933350  0.12626350  1
  C  1730  1  0.48702800  0.90247250  0.13285150  1
  C  1731  1  0.51030800  0.93020350  0.16597550  1
  C  1732  1  0.52611050  0.92484450  0.19240100  1
  C  1733  1  0.51847200  0.89200150  0.18572850  1
  C  1734  1  0.49506250  0.86467450  0.15316100  1
  C  1736  1  0.50344700  0.96784500  0.14624800  1
  C  1737  1  0.48042750  0.94020600  0.11316150  1
  C  1741  1  0.51136050  0.00073500  0.15268550  1
  C  1742  1  0.49674650  0.00611700  0.12611350  1
  C  1743  1  0.47410450  0.97864500  0.09314650  1
  C  1744  1  0.46580950  0.94564800  0.08662650  1
  C  1749  1  0.54905150  0.95165450  0.22558700  1
  C  1750  1  0.45935100  0.84181750  0.09280650  1
  C  1753  1  0.00645850  0.64012450  0.88318400  1
  C  1754  1  0.99836650  0.63859600  0.90823150  1
  C  1755  1  0.97496700  0.64828100  0.91258900  1
  C  1756  1  0.95910150  0.65883350  0.89138600  1
  C  1757  1  0.96677900  0.65986800  0.86622000  1
  C  1758  1  0.99029150  0.65084800  0.86238150  1
  C  1760  1  0.98184200  0.63539000  0.95707800  1
  C  1761  1  0.00499150  0.62549150  0.95255700  1
  C  1765  1  0.97386350  0.63380400  0.98199050  1
  C  1766  1  0.98854250  0.62190800  0.00201950  1
  C  1767  1  0.01131950  0.61175550  0.99729100  1
  C  1768  1  0.01967650  0.61363850  0.97265300  1
  C  1773  1  0.93612450  0.66902100  0.89524650  1
  C  1774  1  0.02624250  0.62645800  0.87542450  1
  C  1777  1  0.73584850  0.86007750  0.37379300  1
  C  1778  1  0.76243900  0.86164350  0.36724350  1
  C  1779  1  0.75709900  0.85188150  0.33414450  1
  C  1780  1  0.72531700  0.84123350  0.30769850  1
  C  1781  1  0.69910550  0.84017800  0.31432950  1
  C  1782  1  0.70430000  0.84925950  0.34687250  1
  C  1784  1  0.81449600  0.86483950  0.35392950  1
  C  1785  1  0.81989300  0.87481750  0.38699150  1
  C  1789  1  0.84099350  0.86641250  0.34754000  1
  C  1790  1  0.87293600  0.87837300  0.37413000  1
  C  1791  1  0.87837800  0.88860700  0.40707300  1
  C  1792  1  0.85185850  0.88673750  0.41354700  1
  C  1797  1  0.71895450  0.83097800  0.27451650  1
  C  1798  1  0.74171700  0.87377500  0.40723100  1
  C  1801  1  0.74959400  0.63069150  0.61674450  1
  C  1802  1  0.72301900  0.59754550  0.59171550  1
  C  1803  1  0.72839800  0.56980450  0.58726850  1
  C  1804  1  0.76019850  0.57516450  0.60839000  1
  C  1805  1  0.78639500  0.60801200  0.63354100  1
  C  1806  1  0.78116700  0.63534400  0.63745200  1
  C  1808  1  0.67099400  0.53216350  0.54286250  1
  C  1809  1  0.66555600  0.55980950  0.54747550  1
  C  1813  1  0.64451100  0.49926800  0.51793600  1
  C  1814  1  0.61254250  0.49388750  0.49798900  1
  C  1815  1  0.60706150  0.52136850  0.50281700  1
  C  1816  1  0.63356500  0.55436850  0.52746350  1
  C  1821  1  0.76657700  0.54836150  0.60455050  1
  C  1822  1  0.74367850  0.65822800  0.62463750  1
  C  1825  1  0.11906000  0.98628800  0.36932800  1
  C  1826  1  0.12563350  0.99434000  0.40246150  1
  C  1827  1  0.15875600  0.01760300  0.43020100  1
  C  1828  1  0.18519650  0.03340050  0.42485500  1
  C  1829  1  0.17853600  0.02577200  0.39201700  1
  C  1830  1  0.14597050  0.00237500  0.36468050  1
  C  1832  1  0.13900200  0.01073950  0.46782350  1
  C  1833  1  0.10591400  0.98774250  0.44017750  1
  C  1837  1  0.14542300  0.01863850  0.50070650  1
  C  1838  1  0.11883750  0.00403950  0.50607800  1
  C  1839  1  0.08586950  0.98142250  0.47859700  1
  C  1840  1  0.07936600  0.97313650  0.44560650  1
  C  1845  1  0.21837650  0.05634850  0.45167200  1
  C  1846  1  0.08561050  0.96667700  0.34180150  1
  C  1849  1  0.87593900  0.51383700  0.13998500  1
  C  1850  1  0.90087950  0.50563250  0.13828400  1
  C  1851  1  0.90519500  0.48216100  0.14786700  1
  C  1852  1  0.88405850  0.46634400  0.15850050  1
  C  1853  1  0.85900000  0.47413350  0.15971150  1
  C  1854  1  0.85520450  0.49771200  0.15078750  1
  C  1856  1  0.94953600  0.48891050  0.13477150  1
  C  1857  1  0.94507550  0.51214500  0.12498950  1
  C  1861  1  0.97434550  0.48082600  0.13301750  1
  C  1862  1  0.99433600  0.49549400  0.12108300  1
  C  1863  1  0.98966900  0.51836150  0.11105550  1
  C  1864  1  0.96513200  0.52682000  0.11309900  1
  C  1869  1  0.88795400  0.44339200  0.16870800  1
  C  1870  1  0.86821850  0.53372500  0.12645450  1
  C  1873  1  0.36630750  0.24298050  0.35993300  1
  C  1874  1  0.35970500  0.26951300  0.36135000  1
  C  1875  1  0.32658000  0.26411850  0.35150450  1
  C  1876  1  0.30016450  0.23234750  0.34092900  1
  C  1877  1  0.30685450  0.20619950  0.34002500  1
  C  1878  1  0.33942300  0.21144100  0.34918600  1
  C  1880  1  0.34629150  0.32146300  0.36428650  1
  C  1881  1  0.37938000  0.32691200  0.37435900  1
  C  1885  1  0.33984650  0.34790450  0.36572100  1
  C  1886  1  0.36641150  0.37984900  0.37764650  1
  C  1887  1  0.39938150  0.38534650  0.38798100  1
  C  1888  1  0.40590850  0.35888050  0.38624300  1
  C  1893  1  0.26697850  0.22597250  0.33069700  1
  C  1894  1  0.39977750  0.24893950  0.37375100  1
  C  1897  1  0.60938950  0.25677250  0.13069600  1
  C  1898  1  0.58437550  0.23020550  0.09754300  1
  C  1899  1  0.57996500  0.23559150  0.06981050  1
  C  1900  1  0.60110300  0.26739400  0.07518800  1
  C  1901  1  0.62623500  0.29358650  0.10804350  1
  C  1902  1  0.63011300  0.28834700  0.13536500  1
  C  1904  1  0.53555750  0.17819400  0.03214450  1
  C  1905  1  0.54012800  0.17275000  0.05978200  1
  C  1909  1  0.51065400  0.15171700  0.99924200  1
  C  1910  1  0.49067950  0.11975000  0.99384550  1
  C  1911  1  0.49546050  0.11426150  0.02131700  1
  C  1912  1  0.52008900  0.14075900  0.05432500  1
  C  1917  1  0.59727550  0.27378950  0.04839600  1
  C  1918  1  0.61725300  0.25084050  0.15822350  1
  C  1921  1  0.36207300  0.62620550  0.48629150  1
  C  1922  1  0.39520400  0.63272850  0.49438950  1
  C  1923  1  0.42297850  0.66581600  0.51772950  1
  C  1924  1  0.41766700  0.69227750  0.53353750  1
  C  1925  1  0.38483450  0.68567600  0.52586150  1
  C  1926  1  0.35746750  0.65314000  0.50240550  1
  C  1928  1  0.46056200  0.64598500  0.51091300  1
  C  1929  1  0.43288000  0.61293500  0.48781500  1
  C  1933  1  0.49344600  0.65234500  0.51889500  1
  C  1934  1  0.49877550  0.62573750  0.50426300  1
  C  1935  1  0.47125600  0.59280750  0.48153450  1
  C  1936  1  0.43826900  0.58636450  0.47317850  1
  C  1941  1  0.44451550  0.72544000  0.55647550  1
  C  1942  1  0.33450500  0.59277400  0.46661200  1
  C  1945  1  0.13284000  0.38318050  0.01382350  1
  C  1946  1  0.13124900  0.40817950  0.00567350  1
  C  1947  1  0.14095300  0.41254350  0.98228650  1
  C  1948  1  0.15156700  0.39137850  0.96647250  1
  C  1949  1  0.15265850  0.36625650  0.97420300  1
  C  1950  1  0.14363850  0.36242800  0.99771850  1
  C  1952  1  0.12800150  0.45698800  0.98909950  1
  C  1953  1  0.11807000  0.45245200  0.01222400  1
  C  1957  1  0.12641050  0.48189350  0.98111000  1
  C  1958  1  0.11447000  0.50189400  0.99574800  1
  C  1959  1  0.10427900  0.49714450  0.01849450  1
  C  1960  1  0.10617100  0.47251800  0.02686800  1
  C  1965  1  0.16178250  0.39523300  0.94351050  1
  C  1966  1  0.11921900  0.37543050  0.03363850  1
  C  1969  1  0.35268650  0.87376200  0.74306550  1
  C  1970  1  0.35416450  0.86714850  0.76960200  1
  C  1971  1  0.34431850  0.83401650  0.76418700  1
  C  1972  1  0.33369600  0.80760600  0.73239200  1
  C  1973  1  0.33272750  0.81430250  0.70623500  1
  C  1974  1  0.34187900  0.84687650  0.71149750  1
  C  1976  1  0.35715550  0.85370150  0.82154300  1
  C  1977  1  0.36723100  0.88679650  0.82701550  1
  C  1981  1  0.35860300  0.84723900  0.84797700  1
  C  1982  1  0.37055000  0.87379200  0.87993500  1
  C  1983  1  0.38089100  0.90677050  0.88545750  1
  C  1984  1  0.37913700  0.91331500  0.85900000  1
  C  1989  1  0.32342500  0.77440150  0.72596850  1
  C  1990  1  0.36646000  0.90722250  0.74900650  1
  C  1993  1  0.12332300  0.11675850  0.75689050  1
  C  1994  1  0.09018650  0.09167350  0.73033400  1
  C  1995  1  0.06244150  0.08722950  0.73570200  1
  C  1996  1  0.06778800  0.10839200  0.76747900  1
  C  1997  1  0.10062750  0.13359500  0.79365950  1
  C  1998  1  0.12796450  0.13751600  0.78843650  1
  C  2000  1  0.02481650  0.04276950  0.67831800  1
  C  2001  1  0.05246900  0.04737250  0.67289550  1
  C  2005  1  0.99192450  0.01783050  0.65183800  1
  C  2006  1  0.98655600  0.99785400  0.61988600  1
  C  2007  1  0.01404350  0.00266500  0.61441650  1
  C  2008  1  0.04704050  0.02733050  0.64092000  1
  C  2013  1  0.04096650  0.10455000  0.77382750  1
  C  2014  1  0.15083850  0.12466050  0.75093800  1
  C  2017  1  0.50647400  0.88308550  0.64001250  1
  C  2018  1  0.49841050  0.90816100  0.63853550  1
  C  2019  1  0.47512550  0.91260850  0.64837300  1
  C  2020  1  0.45932450  0.89144800  0.65899850  1
  C  2021  1  0.46696850  0.86624850  0.65997000  1
  C  2022  1  0.49038100  0.86233250  0.65081550  1
  C  2024  1  0.48197900  0.95710350  0.63549650  1
  C  2025  1  0.50500550  0.95248950  0.62543800  1
  C  2029  1  0.47405950  0.98207550  0.63401300  1
  C  2030  1  0.48867100  0.00206800  0.62205300  1
  C  2031  1  0.51132000  0.99724300  0.61173400  1
  C  2032  1  0.51962250  0.97254800  0.61351850  1
  C  2037  1  0.43638150  0.89531450  0.66924000  1
  C  2038  1  0.52609700  0.87518950  0.62617750  1
  C  2041  1  0.97898200  0.12639050  0.86944550  1
  C  2042  1  0.98707400  0.13295500  0.90258400  1
  C  2043  1  0.01047700  0.16603900  0.93034200  1
  C  2044  1  0.02634250  0.19245550  0.92500200  1
  C  2045  1  0.01866500  0.18581050  0.89215850  1
  C  2046  1  0.99515100  0.15327700  0.86480800  1
  C  2048  1  0.00360150  0.14627550  0.96795400  1
  C  2049  1  0.98045050  0.11322800  0.94028650  1
  C  2053  1  0.01158350  0.15266800  0.00084550  1
  C  2054  1  0.99690300  0.12609350  0.00619750  1
  C  2055  1  0.97412500  0.09316600  0.97869400  1
  C  2056  1  0.96576300  0.08668950  0.94569750  1
  C  2061  1  0.04931900  0.22562000  0.95183800  1
  C  2062  1  0.95919150  0.09293700  0.84190150  1
  C  2065  1  0.24958450  0.61693600  0.63067050  1
  C  2066  1  0.22299200  0.59191500  0.59752900  1
  C  2067  1  0.22833100  0.58749450  0.56976950  1
  C  2068  1  0.26011450  0.60862800  0.57510750  1
  C  2069  1  0.28632800  0.63377800  0.60794900  1
  C  2070  1  0.28113350  0.63766400  0.63529950  1
  C  2072  1  0.17093300  0.54306050  0.53215650  1
  C  2073  1  0.16553750  0.54764000  0.55982150  1
  C  2077  1  0.14443500  0.51813800  0.49926900  1
  C  2078  1  0.11249250  0.49815900  0.49391550  1
  C  2079  1  0.10705000  0.50295000  0.52141600  1
  C  2080  1  0.13356950  0.52759450  0.55440900  1
  C  2085  1  0.26647650  0.60473900  0.54828750  1
  C  2086  1  0.24371500  0.62476600  0.65823900  1
  C  2089  1  0.23583200  0.37380850  0.85987150  1
  C  2090  1  0.26240450  0.36723700  0.86141250  1
  C  2091  1  0.25702300  0.33411600  0.85158300  1
  C  2092  1  0.22522250  0.30767750  0.84090600  1
  C  2093  1  0.19902700  0.31432900  0.83986500  1
  C  2094  1  0.20425950  0.34689200  0.84900550  1
  C  2096  1  0.31442500  0.35387350  0.86457450  1
  C  2097  1  0.31986450  0.38695750  0.87463000  1
  C  2101  1  0.34090450  0.34745850  0.86612300  1
  C  2102  1  0.37287250  0.37404500  0.87814350  1
  C  2103  1  0.37835800  0.40700850  0.88845850  1
  C  2104  1  0.35185700  0.41350750  0.88660850  1
  C  2109  1  0.21884050  0.27449350  0.83068900  1
  C  2110  1  0.24175050  0.40726400  0.87368250  1
  C  2113  1  0.86634300  0.35994200  0.24296100  1
  C  2114  1  0.85976350  0.36140550  0.26951300  1
  C  2115  1  0.82663600  0.35153000  0.26412200  1
  C  2116  1  0.80019800  0.34088750  0.23233450  1
  C  2117  1  0.80686550  0.33993650  0.20616400  1
  C  2118  1  0.83943450  0.34911950  0.21140300  1
  C  2120  1  0.84638350  0.36440900  0.32149350  1
  C  2121  1  0.87947450  0.37451450  0.32694400  1
  C  2125  1  0.83995500  0.36587150  0.34794950  1
  C  2126  1  0.86653700  0.37785800  0.37990600  1
  C  2127  1  0.89951100  0.38822600  0.38540400  1
  C  2128  1  0.90602100  0.38645950  0.35892450  1
  C  2133  1  0.76701550  0.33065050  0.22596700  1
  C  2134  1  0.89979500  0.37379400  0.24889100  1
  C  2137  1  0.10952100  0.13061200  0.25678000  1
  C  2138  1  0.08457000  0.09746650  0.23014150  1
  C  2139  1  0.08024700  0.06967950  0.23541050  1
  C  2140  1  0.10138750  0.07499750  0.26717900  1
  C  2141  1  0.12645800  0.10784450  0.29344450  1
  C  2142  1  0.13026100  0.13522050  0.28831350  1
  C  2144  1  0.03588750  0.03209000  0.17797950  1
  C  2145  1  0.04036050  0.05978650  0.17265700  1
  C  2149  1  0.01106400  0.99919850  0.15142150  1
  C  2150  1  0.99107000  0.99387450  0.11949750  1
  C  2151  1  0.99575150  0.02141250  0.11413500  1
  C  2152  1  0.02030200  0.05440600  0.14071000  1
  C  2157  1  0.09749050  0.04815000  0.27349150  1
  C  2158  1  0.11724500  0.15821800  0.25096800  1
  C  2161  1  0.61915400  0.36939450  0.98638250  1
  C  2162  1  0.62575800  0.40252700  0.99439300  1
  C  2163  1  0.65888600  0.43025700  0.01766400  1
  C  2164  1  0.68530150  0.42490250  0.03350500  1
  C  2165  1  0.67860950  0.39206500  0.02592050  1
  C  2166  1  0.64603750  0.36473950  0.00252100  1
  C  2168  1  0.63917450  0.46788700  0.01072750  1
  C  2169  1  0.60608500  0.44025050  0.98771950  1
  C  2173  1  0.64562100  0.50077200  0.01859900  1
  C  2174  1  0.61905700  0.50615250  0.00396150  1
  C  2175  1  0.58608500  0.47868100  0.98133400  1
  C  2176  1  0.57955750  0.44569000  0.97307650  1
  C  2181  1  0.71848850  0.45171050  0.05645300  1
  C  2182  1  0.58568450  0.34188750  0.96673900  1
  C  2185  1  0.37600800  0.14009300  0.51398400  1
  C  2186  1  0.40103550  0.13855850  0.50585800  1
  C  2187  1  0.40545350  0.14836700  0.48254750  1
  C  2188  1  0.38430850  0.15902300  0.46677950  1
  C  2189  1  0.35916150  0.16006200  0.47448750  1
  C  2190  1  0.35527800  0.15093450  0.49792350  1
  C  2192  1  0.44988250  0.13540300  0.48930950  1
  C  2193  1  0.44530200  0.12537500  0.51236400  1
  C  2197  1  0.47480200  0.13385300  0.48132700  1
  C  2198  1  0.49478050  0.12186500  0.49590850  1
  C  2199  1  0.48998700  0.11157900  0.51858600  1
  C  2200  1  0.46534350  0.11342850  0.52695000  1
  C  2205  1  0.38813900  0.16924950  0.44381750  1
  C  2206  1  0.36814050  0.12628900  0.53364050  1
  C  2209  1  0.62335400  0.75683900  0.11692200  1
  C  2210  1  0.59022300  0.73023150  0.09189450  1
  C  2211  1  0.56244800  0.73554450  0.08746050  1
  C  2212  1  0.56776400  0.76732100  0.10857800  1
  C  2213  1  0.60059750  0.79355350  0.13372900  1
  C  2214  1  0.62796300  0.78838150  0.13763850  1
  C  2216  1  0.52486150  0.67812750  0.04307200  1
  C  2217  1  0.55254300  0.67275900  0.04765200  1
  C  2221  1  0.49197700  0.65160250  0.01817950  1
  C  2222  1  0.48664450  0.61966200  0.99822050  1
  C  2223  1  0.51416350  0.61425150  0.00300700  1
  C  2224  1  0.54715100  0.64079650  0.02762850  1
  C  2229  1  0.54091600  0.77363650  0.10466850  1
  C  2230  1  0.65092200  0.75097450  0.12481150  1
  C  2233  1  0.85259750  0.74305200  0.87369350  1
  C  2234  1  0.85418650  0.76964200  0.86713450  1
  C  2235  1  0.84448250  0.76430300  0.83404250  1
  C  2236  1  0.83387250  0.73252300  0.80761550  1
  C  2237  1  0.83278650  0.70631150  0.81425800  1
  C  2238  1  0.84180500  0.71150350  0.84679350  1
  C  2240  1  0.85742650  0.82169450  0.85380700  1
  C  2241  1  0.86735850  0.82709150  0.88686400  1
  C  2245  1  0.85901100  0.84819000  0.84740800  1
  C  2246  1  0.87094700  0.88013050  0.87398450  1
  C  2247  1  0.88114000  0.88557200  0.90692300  1
  C  2248  1  0.87925300  0.85905450  0.91340450  1
  C  2253  1  0.82365700  0.72616150  0.77443850  1
  C  2254  1  0.86621700  0.74892600  0.90713200  1
  C  2257  1  0.63275050  0.01380700  0.38310350  1
  C  2258  1  0.63127200  0.00571500  0.40816200  1
  C  2259  1  0.64111200  0.98242500  0.41259100  1
  C  2260  1  0.65173350  0.96663550  0.39141700  1
  C  2261  1  0.65270250  0.97430100  0.36622850  1
  C  2262  1  0.64355800  0.99772850  0.36234350  1
  C  2264  1  0.62827950  0.98927750  0.45711300  1
  C  2265  1  0.61820600  0.01229900  0.45251100  1
  C  2269  1  0.62683100  0.98136750  0.48209950  1
  C  2270  1  0.61488750  0.99597650  0.50211300  1
  C  2271  1  0.60454800  0.01861550  0.49729450  1
  C  2272  1  0.60630350  0.02691350  0.47259000  1
  C  2277  1  0.66200050  0.94370000  0.39526150  1
  C  2278  1  0.61897950  0.03349700  0.37527350  1
  C  2281  1  0.86211750  0.48616200  0.62628550  1
  C  2282  1  0.89525350  0.49421050  0.63286700  1
  C  2283  1  0.92299800  0.51751050  0.66598250  1
  C  2284  1  0.91764950  0.53332400  0.69241150  1
  C  2285  1  0.88481000  0.52568800  0.68575200  1
  C  2286  1  0.85747350  0.50227550  0.65318900  1
  C  2288  1  0.96062550  0.51067900  0.64622550  1
  C  2289  1  0.93297350  0.48763100  0.61314850  1
  C  2293  1  0.99351650  0.51863450  0.65263900  1
  C  2294  1  0.99888700  0.50402900  0.62605500  1
  C  2295  1  0.97140150  0.48135500  0.59309850  1
  C  2296  1  0.93840500  0.47302050  0.58660250  1
  C  2301  1  0.94447000  0.55630150  0.72558250  1
  C  2302  1  0.83460650  0.46655500  0.59281750  1
  C  2305  1  0.50647650  0.13067250  0.87374900  1
  C  2306  1  0.49841050  0.09753250  0.86716000  1
  C  2307  1  0.47512750  0.06980100  0.83403750  1
  C  2308  1  0.45932900  0.07516150  0.80761150  1
  C  2309  1  0.46697300  0.10800500  0.81428300  1
  C  2310  1  0.49038550  0.13533300  0.84685150  1
  C  2312  1  0.48197950  0.03216000  0.85376750  1
  C  2313  1  0.50500450  0.05979850  0.88685300  1
  C  2317  1  0.47406000  0.99926850  0.84733250  1
  C  2318  1  0.48867100  0.99388550  0.87390250  1
  C  2319  1  0.51131700  0.02135900  0.90687100  1
  C  2320  1  0.51961950  0.05435600  0.91338850  1
  C  2325  1  0.43638650  0.04835250  0.77442800  1
  C  2326  1  0.52609500  0.15818750  0.90720450  1
  C  2329  1  0.97899400  0.35988450  0.11683350  1
  C  2330  1  0.98708050  0.36140850  0.09178300  1
  C  2331  1  0.01047550  0.35171850  0.08742000  1
  C  2332  1  0.02634100  0.34116500  0.10862300  1
  C  2333  1  0.01866950  0.34013800  0.13379450  1
  C  2334  1  0.99516150  0.34916250  0.13763700  1
  C  2336  1  0.00359400  0.36460400  0.04292900  1
  C  2337  1  0.98045050  0.37450950  0.04745500  1
  C  2341  1  0.01156750  0.36618550  0.01801200  1
  C  2342  1  0.99688800  0.37808200  0.99798300  1
  C  2343  1  0.97411700  0.38824200  0.00271800  1
  C  2344  1  0.96576400  0.38636250  0.02735950  1
  C  2349  1  0.04931550  0.33097500  0.10475950  1
  C  2350  1  0.95921450  0.37355650  0.12459800  1
  C  2353  1  0.24957950  0.13992650  0.62620100  1
  C  2354  1  0.22298900  0.13835800  0.63275100  1
  C  2355  1  0.22832850  0.14811750  0.66584800  1
  C  2356  1  0.26011050  0.15876600  0.69229350  1
  C  2357  1  0.28632300  0.15982650  0.68566550  1
  C  2358  1  0.28112950  0.15074600  0.65312050  1
  C  2360  1  0.17093050  0.13515500  0.64606250  1
  C  2361  1  0.16553450  0.12518000  0.61300250  1
  C  2365  1  0.14443100  0.13357950  0.65245150  1
  C  2366  1  0.11249000  0.12161850  0.62586250  1
  C  2367  1  0.10704800  0.11138450  0.59291950  1
  C  2368  1  0.13356900  0.11326000  0.58644700  1
  C  2373  1  0.26647150  0.16901900  0.72547550  1
  C  2374  1  0.24371150  0.12622950  0.59276300  1
  C  2377  1  0.23582650  0.36931350  0.38324000  1
  C  2378  1  0.26239550  0.40245950  0.40827400  1
  C  2379  1  0.25701100  0.43019650  0.41272250  1
  C  2380  1  0.22521150  0.42483450  0.39159600  1
  C  2381  1  0.19901900  0.39198500  0.36643700  1
  C  2382  1  0.20425350  0.36465700  0.36252750  1
  C  2384  1  0.31441150  0.46784200  0.45714050  1
  C  2385  1  0.31985500  0.44019950  0.45252350  1
  C  2389  1  0.34088700  0.50073650  0.48207350  1
  C  2390  1  0.37285600  0.50612000  0.50202400  1
  C  2391  1  0.37834500  0.47864300  0.49719300  1
  C  2392  1  0.35184650  0.44564250  0.47253900  1
  C  2397  1  0.21882650  0.45163500  0.39543150  1
  C  2398  1  0.24174750  0.34178050  0.37534800  1
  C  2401  1  0.86636450  0.01369850  0.63066800  1
  C  2402  1  0.85979150  0.00564950  0.59753500  1
  C  2403  1  0.82666850  0.98238950  0.56979500  1
  C  2404  1  0.80022850  0.96658850  0.57514000  1
  C  2405  1  0.80688850  0.97421450  0.60797800  1
  C  2406  1  0.83945500  0.99760900  0.63531400  1
  C  2408  1  0.84642550  0.98925750  0.53217500  1
  C  2409  1  0.87951350  0.01225400  0.55982350  1
  C  2413  1  0.84000400  0.98136150  0.49929050  1
  C  2414  1  0.86658950  0.99596300  0.49392250  1
  C  2415  1  0.89955700  0.01857600  0.52140300  1
  C  2416  1  0.90606200  0.02685800  0.55439300  1
  C  2421  1  0.76704800  0.94364300  0.54832200  1
  C  2422  1  0.89981450  0.03330850  0.65819500  1
  C  2425  1  0.10950200  0.48617200  0.86001600  1
  C  2426  1  0.08455950  0.49437450  0.86171300  1
  C  2427  1  0.08024350  0.51784450  0.85212700  1
  C  2428  1  0.10138350  0.53366300  0.84149650  1
  C  2429  1  0.12644450  0.52587750  0.84029100  1
  C  2430  1  0.13023950  0.50229900  0.84921750  1
  C  2432  1  0.03589550  0.51108900  0.86521450  1
  C  2433  1  0.04035900  0.48785800  0.87499900  1
  C  2437  1  0.01108250  0.51916950  0.86696100  1
  C  2438  1  0.99109000  0.50450100  0.87889300  1
  C  2439  1  0.99575950  0.48163650  0.88892500  1
  C  2440  1  0.02030100  0.47318150  0.88688850  1
  C  2445  1  0.09748800  0.55661500  0.83128800  1
  C  2446  1  0.11722100  0.46628300  0.87354700  1
  C  2449  1  0.61914700  0.75703600  0.64006800  1
  C  2450  1  0.62575350  0.73050900  0.63866350  1
  C  2451  1  0.65888150  0.73590600  0.64851850  1
  C  2452  1  0.68529500  0.76767800  0.65909000  1
  C  2453  1  0.67860100  0.79382200  0.65998300  1
  C  2454  1  0.64603100  0.78857700  0.65081300  1
  C  2456  1  0.63917350  0.67856600  0.63574750  1
  C  2457  1  0.60608350  0.67311250  0.62566500  1
  C  2461  1  0.64562250  0.65212800  0.63432450  1
  C  2462  1  0.61905950  0.62018400  0.62239950  1
  C  2463  1  0.58608750  0.61468050  0.61205300  1
  C  2464  1  0.57955800  0.64114400  0.61378200  1
  C  2469  1  0.71848250  0.77405700  0.66932450  1
  C  2470  1  0.58567700  0.75107250  0.62624250  1
  C  2473  1  0.37602000  0.74322100  0.86930700  1
  C  2474  1  0.40104000  0.76978800  0.90245800  1
  C  2475  1  0.40545600  0.76440300  0.93019200  1
  C  2476  1  0.38431950  0.73260200  0.92481750  1
  C  2477  1  0.35918350  0.70640900  0.89196550  1
  C  2478  1  0.35529800  0.71164550  0.86463950  1
  C  2480  1  0.44986550  0.82180250  0.96785400  1
  C  2481  1  0.44529150  0.82724300  0.94021550  1
  C  2485  1  0.47477350  0.84827950  0.00075500  1
  C  2486  1  0.49474550  0.88024500  0.00614750  1
  C  2487  1  0.48996000  0.88573250  0.97867550  1
  C  2488  1  0.46532650  0.85923350  0.94566800  1
  C  2493  1  0.38815400  0.72620900  0.95161300  1
  C  2494  1  0.36815100  0.74915100  0.84177900  1
  C  2497  1  0.62335400  0.37376950  0.51367850  1
  C  2498  1  0.59022600  0.36724250  0.50559350  1
  C  2499  1  0.56245450  0.33415100  0.48226550  1
  C  2500  1  0.56776850  0.30769100  0.46645550  1
  C  2501  1  0.60060100  0.31429850  0.47411850  1
  C  2502  1  0.62796450  0.34683950  0.49756600  1
  C  2504  1  0.52486850  0.35397450  0.48909400  1
  C  2505  1  0.55254700  0.38702700  0.51217800  1
  C  2509  1  0.49198550  0.34760650  0.48112500  1
  C  2510  1  0.48665350  0.37421300  0.49575650  1
  C  2511  1  0.51416900  0.40714650  0.51846950  1
  C  2512  1  0.54715550  0.41359800  0.52681350  1
  C  2517  1  0.54092000  0.27452550  0.44351750  1
  C  2518  1  0.65091800  0.40720300  0.53334700  1
  C  2521  1  0.85258950  0.61682000  0.98617750  1
  C  2522  1  0.85418050  0.59182200  0.99432750  1
  C  2523  1  0.84447200  0.58745400  0.01771200  1
  C  2524  1  0.83385950  0.60862200  0.03352550  1
  C  2525  1  0.83277150  0.63374500  0.02579650  1
  C  2526  1  0.84179300  0.63757500  0.00228200  1
  C  2528  1  0.85742150  0.54301000  0.01089850  1
  C  2529  1  0.86735750  0.54754750  0.98777600  1
  C  2533  1  0.85901000  0.51810400  0.01888600  1
  C  2534  1  0.87094900  0.49810050  0.00424750  1
  C  2535  1  0.88114500  0.50285300  0.98150400  1
  C  2536  1  0.87925350  0.52747950  0.97313100  1
  C  2541  1  0.82364450  0.60476950  0.05648900  1
  C  2542  1  0.86621500  0.62457150  0.96636450  1
  C  2545  1  0.63273800  0.12624600  0.25694100  1
  C  2546  1  0.63126600  0.13286200  0.23040600  1
  C  2547  1  0.64111300  0.16599500  0.23582400  1
  C  2548  1  0.65173350  0.19240450  0.26761900  1
  C  2549  1  0.65269600  0.18570450  0.29377250  1
  C  2550  1  0.64354300  0.15312950  0.28850850  1
  C  2552  1  0.62828650  0.14631300  0.17847150  1
  C  2553  1  0.61820750  0.11321650  0.17299500  1
  C  2557  1  0.62684600  0.15277950  0.15204050  1
  C  2558  1  0.61490300  0.12622750  0.12008150  1
  C  2559  1  0.60455900  0.09324950  0.11455750  1
  C  2560  1  0.60630650  0.08670250  0.14101300  1
  C  2565  1  0.66200750  0.22560950  0.27404500  1
  C  2566  1  0.61896800  0.09278350  0.25099950  1
  C  2569  1  0.86210800  0.88324250  0.24310950  1
  C  2570  1  0.89524450  0.90832800  0.26966350  1
  C  2571  1  0.92298800  0.91276950  0.26429350  1
  C  2572  1  0.91764100  0.89160700  0.23251700  1
  C  2573  1  0.88480150  0.86640500  0.20633750  1
  C  2574  1  0.85746550  0.86248400  0.21156150  1
  C  2576  1  0.96061700  0.95723200  0.32167900  1
  C  2577  1  0.93296450  0.95262850  0.32710200  1
  C  2581  1  0.99350850  0.98217100  0.34815750  1
  C  2582  1  0.99887750  0.00214750  0.38010900  1
  C  2583  1  0.97139300  0.99733750  0.38558050  1
  C  2584  1  0.93839600  0.97267150  0.35907850  1
  C  2589  1  0.94446250  0.89544650  0.22616700  1
  C  2590  1  0.83459550  0.87534350  0.24906400  1
  H  5  1  0.41232600  0.23131750  0.42405250  1
  H  6  1  0.38466750  0.18922400  0.39179350  1
  H  9  1  0.39782300  0.16125650  0.34662150  1
  H  10  1  0.43396100  0.18518050  0.34655650  1
  H  11  1  0.40271500  0.14403700  0.39128300  1
  H  12  1  0.44192400  0.15721150  0.42403450  1
  H  15  1  0.49235950  0.20244650  0.39167200  1
  H  16  1  0.49705750  0.19271300  0.42400650  1
  H  18  1  0.47377150  0.24708500  0.39109050  1
  H  19  1  0.46740150  0.26676650  0.42387300  1
  H  21  1  0.48325750  0.21932300  0.46857850  1
  H  22  1  0.47076700  0.24936100  0.46855400  1
  H  27  1  0.43561100  0.20543800  0.47691800  1
  H  28  1  0.52668200  0.27152550  0.47673450  1
  H  29  1  0.43558000  0.13472150  0.33984950  1
  H  30  1  0.38951850  0.20499400  0.33981750  1
  H  35  1  0.07316250  0.00438650  0.31155600  1
  H  36  1  0.10080950  0.99967500  0.29714850  1
  H  39  1  0.08754150  0.94125800  0.25606650  1
  H  40  1  0.05134100  0.90512850  0.24387250  1
  H  41  1  0.08281700  0.98102450  0.23392250  1
  H  42  1  0.04367300  0.97465200  0.20784800  1
  H  45  1  0.99302100  0.89193850  0.20271750  1
  H  46  1  0.98839850  0.91956050  0.18823800  1
  H  48  1  0.01155750  0.91004300  0.26595450  1
  H  49  1  0.01800450  0.94925950  0.29195500  1
  H  51  1  0.00232700  0.97801650  0.22857850  1
  H  52  1  0.01478750  0.99054900  0.27111350  1
  H  57  1  0.05002600  0.03391250  0.26224850  1
  H  58  1  0.95882600  0.94290850  0.23742050  1
  H  59  1  0.04981200  0.89676750  0.19182450  1
  H  60  1  0.09585050  0.94292600  0.30816650  1
  H  65  1  0.68518100  0.26847950  0.18828150  1
  H  66  1  0.69496150  0.31055250  0.20261600  1
  H  69  1  0.67784750  0.33859400  0.24381550  1
  H  70  1  0.65400000  0.31473600  0.25617600  1
  H  71  1  0.73971500  0.35588200  0.26577200  1
  H  72  1  0.75944800  0.34283900  0.29185500  1
  H  75  1  0.68205150  0.29763950  0.29738300  1
  H  76  1  0.72413350  0.30744550  0.31173900  1
  H  78  1  0.63674100  0.25286250  0.23421650  1
  H  79  1  0.64980900  0.23316450  0.20813350  1
  H  81  1  0.74201500  0.28079000  0.27126100  1
  H  82  1  0.71188150  0.25063950  0.22878300  1
  H  87  1  0.76393200  0.29443050  0.23719350  1
  H  88  1  0.69820850  0.22867500  0.26279150  1
  H  89  1  0.69770500  0.36518600  0.30811800  1
  H  90  1  0.62724600  0.29475300  0.19190200  1
  H  95  1  0.80035850  0.49583800  0.07621450  1
  H  96  1  0.79053250  0.50041400  0.10847750  1
  H  99  1  0.80758950  0.55871500  0.15358150  1
  H  100  1  0.83146000  0.59492650  0.15358850  1
  H  101  1  0.74572900  0.51878250  0.10893350  1
  H  102  1  0.72605200  0.52515350  0.07614950  1
  H  105  1  0.80344850  0.60806150  0.10839600  1
  H  106  1  0.76138700  0.58031150  0.07608150  1
  H  108  1  0.84879300  0.59025150  0.10904850  1
  H  109  1  0.83578000  0.55113200  0.07628600  1
  H  111  1  0.74357750  0.52196350  0.03158100  1
  H  112  1  0.77374050  0.50964100  0.03164550  1
  H  117  1  0.72157550  0.46601500  0.02331450  1
  H  118  1  0.78741900  0.55731100  0.02334300  1
  H  119  1  0.78758150  0.60298100  0.16028750  1
  H  120  1  0.85801100  0.55718950  0.16034750  1
  H  125  1  0.98840200  0.57612200  0.80744500  1
  H  126  1  0.99302900  0.60836700  0.79758900  1
  H  129  1  0.05135250  0.65349350  0.81475700  1
  H  130  1  0.08754850  0.65356150  0.83876300  1
  H  131  1  0.01156800  0.60879700  0.75289000  1
  H  132  1  0.01801350  0.57602600  0.73333850  1
  H  135  1  0.10081300  0.60841050  0.81095150  1
  H  136  1  0.07316550  0.57605050  0.76889600  1
  H  138  1  0.08281800  0.60907050  0.85618250  1
  H  139  1  0.04367150  0.57630000  0.84310950  1
  H  141  1  0.01478950  0.53151550  0.75096200  1
  H  142  1  0.00232650  0.53159000  0.78103350  1
  H  147  1  0.95883250  0.52320100  0.72869150  1
  H  148  1  0.05002100  0.52338950  0.79506550  1
  H  149  1  0.09585950  0.66020100  0.79497250  1
  H  150  1  0.04982300  0.66032750  0.86527650  1
  H  155  1  0.76139100  0.68835650  0.69258650  1
  H  156  1  0.80345250  0.70267050  0.70233200  1
  H  159  1  0.83145600  0.74381800  0.68514700  1
  H  160  1  0.80757950  0.75615550  0.66128500  1
  H  161  1  0.84879750  0.76582700  0.74702150  1
  H  162  1  0.83578400  0.79193100  0.76677300  1
  H  165  1  0.79052400  0.79739900  0.68933600  1
  H  166  1  0.80035500  0.81180100  0.73142500  1
  H  168  1  0.74572050  0.73422650  0.64407700  1
  H  169  1  0.72604900  0.70817900  0.65718900  1
  H  171  1  0.77374450  0.77138000  0.74938050  1
  H  172  1  0.74358300  0.72889400  0.71928400  1
  H  177  1  0.78742800  0.73738750  0.77135950  1
  H  178  1  0.72157450  0.76283750  0.70555100  1
  H  179  1  0.85800150  0.80810700  0.70493550  1
  H  180  1  0.78757900  0.69188050  0.63457650  1
  H  185  1  0.49708750  0.81161600  0.08033850  1
  H  186  1  0.49237800  0.79717850  0.10796850  1
  H  189  1  0.43397250  0.75606150  0.09468100  1
  H  190  1  0.39783950  0.74386950  0.05848600  1
  H  191  1  0.47376100  0.73394250  0.08993650  1
  H  192  1  0.46738100  0.70789300  0.05077500  1
  H  195  1  0.38467150  0.70275250  0.00015000  1
  H  196  1  0.41231700  0.68830350  0.99553450  1
  H  198  1  0.40274800  0.76599500  0.01873000  1
  H  199  1  0.44196200  0.79202050  0.02519050  1
  H  201  1  0.47076300  0.72868200  0.00947700  1
  H  202  1  0.48327500  0.77121800  0.02196100  1
  H  207  1  0.52666650  0.76238800  0.05720350  1
  H  208  1  0.43562700  0.73749200  0.96598000  1
  H  209  1  0.38950450  0.69180900  0.05695650  1
  H  210  1  0.43562100  0.80815650  0.10302950  1
  H  215  1  0.72412250  0.92398350  0.41966300  1
  H  216  1  0.68203950  0.89171000  0.39194850  1
  H  219  1  0.65399950  0.84656050  0.40511000  1
  H  220  1  0.67786200  0.84654700  0.44131100  1
  H  221  1  0.63674400  0.89118050  0.40983050  1
  H  222  1  0.64982550  0.92394500  0.44898850  1
  H  225  1  0.69499550  0.89170200  0.49963650  1
  H  226  1  0.68521750  0.92399700  0.50420350  1
  H  228  1  0.73973350  0.89112150  0.48120700  1
  H  229  1  0.75945850  0.92389950  0.47485300  1
  H  231  1  0.71190400  0.96853900  0.49039700  1
  H  232  1  0.74202650  0.96851900  0.47803350  1
  H  237  1  0.69820600  0.97683450  0.44271750  1
  H  238  1  0.76396850  0.97678550  0.53401000  1
  H  239  1  0.62727450  0.83979250  0.44265700  1
  H  240  1  0.69769050  0.83981500  0.39684150  1
  H  245  1  0.18101700  0.19266500  0.76861400  1
  H  246  1  0.19542600  0.20249050  0.81070450  1
  H  249  1  0.23656350  0.18530000  0.83869150  1
  H  250  1  0.24879850  0.16132900  0.81477650  1
  H  251  1  0.25864450  0.24716850  0.85591800  1
  H  252  1  0.28468200  0.26678200  0.84276900  1
  H  255  1  0.28995300  0.18921100  0.79754100  1
  H  256  1  0.30437450  0.23128300  0.80728850  1
  H  258  1  0.22672850  0.14398150  0.75287800  1
  H  259  1  0.20067100  0.15708100  0.73319600  1
  H  261  1  0.26396100  0.24924000  0.78067800  1
  H  262  1  0.22144250  0.21917050  0.75061500  1
  H  267  1  0.23010150  0.27138700  0.79448650  1
  H  268  1  0.25523050  0.20523400  0.72848250  1
  H  269  1  0.30086500  0.20502850  0.86515150  1
  H  270  1  0.18456000  0.13468900  0.79487200  1
  H  275  1  0.06897050  0.30750850  0.99580700  1
  H  276  1  0.10126900  0.29773100  0.00042000  1
  H  279  1  0.14640550  0.31489400  0.05874850  1
  H  280  1  0.14640550  0.33879550  0.09494000  1
  H  281  1  0.10181700  0.25302250  0.01888750  1
  H  282  1  0.06904300  0.23333300  0.02526500  1
  H  285  1  0.10126650  0.31082000  0.10812850  1
  H  286  1  0.06897050  0.26874500  0.08044450  1
  H  288  1  0.10181450  0.35607550  0.09020800  1
  H  289  1  0.06904250  0.34299150  0.05105800  1
  H  291  1  0.02444050  0.25081250  0.02206300  1
  H  292  1  0.02444100  0.28091000  0.00965700  1
  H  297  1  0.01616600  0.22870350  0.96613950  1
  H  298  1  0.01616350  0.29474350  0.05730500  1
  H  299  1  0.15314350  0.29505300  0.10318650  1
  H  300  1  0.15314250  0.36537200  0.05723850  1
  H  305  1  0.41672100  0.91970650  0.73141550  1
  H  306  1  0.38443200  0.89200700  0.68933500  1
  H  309  1  0.33928500  0.90518750  0.66134150  1
  H  310  1  0.33928650  0.94138600  0.68523450  1
  H  311  1  0.38388100  0.90991350  0.64405750  1
  H  312  1  0.41664900  0.94906800  0.65714200  1
  H  315  1  0.38443350  0.99971100  0.70238450  1
  H  316  1  0.41672100  0.00429750  0.69259250  1
  H  318  1  0.38388500  0.98125650  0.74711350  1
  H  319  1  0.41665050  0.97486450  0.76679400  1
  H  321  1  0.46125800  0.99046300  0.71921700  1
  H  322  1  0.46125900  0.97807600  0.74932600  1
  H  327  1  0.46952850  0.94277700  0.70544950  1
  H  328  1  0.46953100  0.03403300  0.77136500  1
  H  329  1  0.33251500  0.94285100  0.63471800  1
  H  330  1  0.33251350  0.89695300  0.70508650  1
  H  335  1  0.30437050  0.58037400  0.50436750  1
  H  336  1  0.28995100  0.60802650  0.49969850  1
  H  339  1  0.24879450  0.59476100  0.44131250  1
  H  340  1  0.23655500  0.55855600  0.40515900  1
  H  341  1  0.22672900  0.59003950  0.48114550  1
  H  342  1  0.20067200  0.55088350  0.47477050  1
  H  345  1  0.19541300  0.50022750  0.39200750  1
  H  346  1  0.18101000  0.49564550  0.41969250  1
  H  348  1  0.25863100  0.51876250  0.41000650  1
  H  349  1  0.28467000  0.52518350  0.44918950  1
  H  351  1  0.22143650  0.50956000  0.47811250  1
  H  352  1  0.26395450  0.52200300  0.49056350  1
  H  357  1  0.25523300  0.55728250  0.53403450  1
  H  358  1  0.23008500  0.46600050  0.44289450  1
  H  359  1  0.18455450  0.55716850  0.39698300  1
  H  360  1  0.30085850  0.60312350  0.44299800  1
  H  725  1  0.57311450  0.76869150  0.57593700  1
  H  726  1  0.60076350  0.81078750  0.60819600  1
  H  729  1  0.58759850  0.83874150  0.65336500  1
  H  730  1  0.55146500  0.81480550  0.65342950  1
  H  731  1  0.58269100  0.85595650  0.60869850  1
  H  732  1  0.54347900  0.84277050  0.57594550  1
  H  735  1  0.49305850  0.79752050  0.60831200  1
  H  736  1  0.48835200  0.80724950  0.57597350  1
  H  738  1  0.51167100  0.75289900  0.60890000  1
  H  739  1  0.51804800  0.73322350  0.57611750  1
  H  741  1  0.50216100  0.78065500  0.53140600  1
  H  742  1  0.51466650  0.75062800  0.53143450  1
  H  747  1  0.54980650  0.79456550  0.52306900  1
  H  748  1  0.45876250  0.72844100  0.52325850  1
  H  749  1  0.54982150  0.86525300  0.66012850  1
  H  750  1  0.59592600  0.79501550  0.66017250  1
  H  755  1  0.91226850  0.99560350  0.68844700  1
  H  756  1  0.88462150  0.00031500  0.70285550  1
  H  759  1  0.89788750  0.05873350  0.74393200  1
  H  760  1  0.93408500  0.09486200  0.75612100  1
  H  761  1  0.90261800  0.01897250  0.76608250  1
  H  762  1  0.94176500  0.02534900  0.79215800  1
  H  765  1  0.99240750  0.10805900  0.79727750  1
  H  766  1  0.99703600  0.08044150  0.81176150  1
  H  768  1  0.97386850  0.08994850  0.73403800  1
  H  769  1  0.96742250  0.05073100  0.70804050  1
  H  771  1  0.98310800  0.02198400  0.77142400  1
  H  772  1  0.97064600  0.00944700  0.72889000  1
  H  777  1  0.93541300  0.96608750  0.73776150  1
  H  778  1  0.02660450  0.05708800  0.76257650  1
  H  779  1  0.93561750  0.10322900  0.80817250  1
  H  780  1  0.88957200  0.05705750  0.69182850  1
  H  785  1  0.30021700  0.73149950  0.81170350  1
  H  786  1  0.29044200  0.68942750  0.79736450  1
  H  789  1  0.30757400  0.66140350  0.75617450  1
  H  790  1  0.33143200  0.68527300  0.74383000  1
  H  791  1  0.24570400  0.64410600  0.73420200  1
  H  792  1  0.22597450  0.65715150  0.70811800  1
  H  795  1  0.30338800  0.70237600  0.70262500  1
  H  796  1  0.26130450  0.69256600  0.68825850  1
  H  798  1  0.34868450  0.74714600  0.76579850  1
  H  799  1  0.33560300  0.76683150  0.79187350  1
  H  801  1  0.24340400  0.71920300  0.72872400  1
  H  802  1  0.27352750  0.74934750  0.77120700  1
  H  807  1  0.22146750  0.70553550  0.76276400  1
  H  808  1  0.28722250  0.77133500  0.73722150  1
  H  809  1  0.28773750  0.63482800  0.69187550  1
  H  810  1  0.35816250  0.70523950  0.80810100  1
  H  815  1  0.18508200  0.50416850  0.92379050  1
  H  816  1  0.19490850  0.49959150  0.89152800  1
  H  819  1  0.17785100  0.44129050  0.84642550  1
  H  820  1  0.15397650  0.40507900  0.84641450  1
  H  821  1  0.23971150  0.48122150  0.89107400  1
  H  822  1  0.25938300  0.47484650  0.92385850  1
  H  825  1  0.18198350  0.39194100  0.89160750  1
  H  826  1  0.22404450  0.41968900  0.92392250  1
  H  828  1  0.13663950  0.40975400  0.89095150  1
  H  829  1  0.14965350  0.44887300  0.92371450  1
  H  831  1  0.24185450  0.47803650  0.96842400  1
  H  832  1  0.21169250  0.49036250  0.96835800  1
  H  837  1  0.26386300  0.53398500  0.97669200  1
  H  838  1  0.19800800  0.44269050  0.97665750  1
  H  839  1  0.19785500  0.39702150  0.83971950  1
  H  840  1  0.12743050  0.44282000  0.83965450  1
  H  845  1  0.99704550  0.42389000  0.19258150  1
  H  846  1  0.99241050  0.39164200  0.20243250  1
  H  849  1  0.93408400  0.34651450  0.18525350  1
  H  850  1  0.89789000  0.34644650  0.16123850  1
  H  851  1  0.97385650  0.39120900  0.24712250  1
  H  852  1  0.96740550  0.42397750  0.26666800  1
  H  855  1  0.88462000  0.39159650  0.18904250  1
  H  856  1  0.91226000  0.42395500  0.23109800  1
  H  858  1  0.90263150  0.39094000  0.14382250  1
  H  859  1  0.94178050  0.42371100  0.15690250  1
  H  861  1  0.97064050  0.46849050  0.24904500  1
  H  862  1  0.98311500  0.46841900  0.21898200  1
  H  867  1  0.02659800  0.47680600  0.27133300  1
  H  868  1  0.93542050  0.47661700  0.20492950  1
  H  869  1  0.88956750  0.33980300  0.20502350  1
  H  870  1  0.93562950  0.33968550  0.13474100  1
  H  875  1  0.22403950  0.31164350  0.30740000  1
  H  876  1  0.18197600  0.29732100  0.29765300  1
  H  879  1  0.15398200  0.25617650  0.31484550  1
  H  880  1  0.17786550  0.24385100  0.33871650  1
  H  881  1  0.13664300  0.23415800  0.25297000  1
  H  882  1  0.14966650  0.20806000  0.23322650  1
  H  885  1  0.19493650  0.20261600  0.31067950  1
  H  886  1  0.18510800  0.18820800  0.26859000  1
  H  888  1  0.23972800  0.26579350  0.35592950  1
  H  889  1  0.25939350  0.29183950  0.34281300  1
  H  891  1  0.21170800  0.22862400  0.25062600  1
  H  892  1  0.24186300  0.27111500  0.28071800  1
  H  897  1  0.19800450  0.26259650  0.22862800  1
  H  898  1  0.26388750  0.23719100  0.29447050  1
  H  899  1  0.12745200  0.19188950  0.29506950  1
  H  900  1  0.19785050  0.30812450  0.36541100  1
  H  905  1  0.48835450  0.18838700  0.91966650  1
  H  906  1  0.49306450  0.20282400  0.89203750  1
  H  909  1  0.55147250  0.24394600  0.90533150  1
  H  910  1  0.58760300  0.25613700  0.94152800  1
  H  911  1  0.51168050  0.26606050  0.91007000  1
  H  912  1  0.51805500  0.29210700  0.94922800  1
  H  915  1  0.60076450  0.29725100  0.99986250  1
  H  916  1  0.57311850  0.31169950  0.00447500  1
  H  918  1  0.58269000  0.23401050  0.98128250  1
  H  919  1  0.54347550  0.20798350  0.97481900  1
  H  921  1  0.51466800  0.27131650  0.99052550  1
  H  922  1  0.50215850  0.22878150  0.97804200  1
  H  927  1  0.45876850  0.23760800  0.94279550  1
  H  928  1  0.54980150  0.26250750  0.03402400  1
  H  929  1  0.59593550  0.30819650  0.94305500  1
  H  930  1  0.54982450  0.19185150  0.89698200  1
  H  935  1  0.26130950  0.07602250  0.58033600  1
  H  936  1  0.30339450  0.10830000  0.60804950  1
  H  939  1  0.33142750  0.15344400  0.59488050  1
  H  940  1  0.30756200  0.15345200  0.55867700  1
  H  941  1  0.34868750  0.10882850  0.59016500  1
  H  942  1  0.33560650  0.07606150  0.55100800  1
  H  945  1  0.29042800  0.10829550  0.50035550  1
  H  946  1  0.30020800  0.07600100  0.49579000  1
  H  948  1  0.24569150  0.10887500  0.51878450  1
  H  949  1  0.22596900  0.07609850  0.52514250  1
  H  951  1  0.27352850  0.03146350  0.50960300  1
  H  952  1  0.24340600  0.03148400  0.52196900  1
  H  957  1  0.28723250  0.02317650  0.55728800  1
  H  958  1  0.22145900  0.02321000  0.46598900  1
  H  959  1  0.35814900  0.16020900  0.55733200  1
  H  960  1  0.28773650  0.16018750  0.60315200  1
  H  965  1  0.80441750  0.80733800  0.23138950  1
  H  966  1  0.79001150  0.79751200  0.18929950  1
  H  969  1  0.74887350  0.81470050  0.16130700  1
  H  970  1  0.73663350  0.83866700  0.18521750  1
  H  971  1  0.72679350  0.75283000  0.14408150  1
  H  972  1  0.70075500  0.73321700  0.15723000  1
  H  975  1  0.69547750  0.81078450  0.20245100  1
  H  976  1  0.68105850  0.76871350  0.19270500  1
  H  978  1  0.75870050  0.85601800  0.24711750  1
  H  979  1  0.78475750  0.84292050  0.26680300  1
  H  981  1  0.72147150  0.75075800  0.21932050  1
  H  982  1  0.76399100  0.78083250  0.24938550  1
  H  987  1  0.75533600  0.72861700  0.20551900  1
  H  988  1  0.73019550  0.79476450  0.27151200  1
  H  989  1  0.68456950  0.79496600  0.13484150  1
  H  990  1  0.80087200  0.86531450  0.20512950  1
  H  995  1  0.91646150  0.69249600  0.00419650  1
  H  996  1  0.88416300  0.70227150  0.99957850  1
  H  999  1  0.83902800  0.68510550  0.94124650  1
  H  1000  1  0.83903250  0.66120350  0.90505900  1
  H  1001  1  0.88361550  0.74697750  0.98110500  1
  H  1002  1  0.91639050  0.76666550  0.97473000  1
  H  1005  1  0.88417300  0.68917550  0.89187150  1
  H  1006  1  0.91646800  0.73125050  0.91955450  1
  H  1008  1  0.88362250  0.64392100  0.90979550  1
  H  1009  1  0.91639350  0.65700900  0.94894850  1
  H  1011  1  0.96099600  0.74918700  0.97793800  1
  H  1012  1  0.96099550  0.71909250  0.99034800  1
  H  1017  1  0.96926700  0.77130000  0.03386100  1
  H  1018  1  0.96927500  0.70525450  0.94270250  1
  H  1019  1  0.83229550  0.70494300  0.89680750  1
  H  1020  1  0.83229200  0.63463050  0.94276250  1
  H  1025  1  0.56870550  0.08029500  0.26858650  1
  H  1026  1  0.60099150  0.10799700  0.31066550  1
  H  1029  1  0.64614500  0.09482750  0.33866650  1
  H  1030  1  0.64614950  0.05863100  0.31477850  1
  H  1031  1  0.60154550  0.09009650  0.35594800  1
  H  1032  1  0.56878200  0.05093900  0.34286500  1
  H  1035  1  0.60100800  0.00030450  0.29763150  1
  H  1036  1  0.56871950  0.99571300  0.30742150  1
  H  1038  1  0.60155200  0.01875350  0.25289750  1
  H  1039  1  0.56878450  0.02514050  0.23321400  1
  H  1041  1  0.52417550  0.00953850  0.28079000  1
  H  1042  1  0.52417350  0.02192350  0.25067900  1
  H  1047  1  0.51589650  0.05721850  0.29454800  1
  H  1048  1  0.51590350  0.96596000  0.22864750  1
  H  1049  1  0.65292400  0.05717000  0.36529600  1
  H  1050  1  0.65291550  0.10305700  0.29491850  1
  H  1055  1  0.68106950  0.41961850  0.49560600  1
  H  1056  1  0.69549750  0.39197300  0.50028550  1
  H  1059  1  0.73664450  0.40524700  0.55867750  1
  H  1060  1  0.74886950  0.44144700  0.59482650  1
  H  1061  1  0.75872700  0.40998250  0.51885950  1
  H  1062  1  0.78478100  0.44914300  0.52524000  1
  H  1065  1  0.79000200  0.49978200  0.60798500  1
  H  1066  1  0.80441600  0.50437450  0.58031050  1
  H  1068  1  0.72677600  0.48122750  0.58996550  1
  H  1069  1  0.70074150  0.47480100  0.55077550  1
  H  1071  1  0.76399950  0.49045400  0.52188350  1
  H  1072  1  0.72147700  0.47799500  0.50941700  1
  H  1077  1  0.73023250  0.44273050  0.46596300  1
  H  1078  1  0.75531700  0.53399650  0.55708750  1
  H  1079  1  0.80088050  0.44285350  0.60302200  1
  H  1080  1  0.68457050  0.39686800  0.55697350  1
  H  1451  1  0.49102850  0.15692600  0.34902250  1
  H  1452  1  0.52966200  0.14932450  0.33250350  1
  H  1457  1  0.52750350  0.01409300  0.35824850  1
  H  1458  1  0.50256100  0.97983500  0.37908500  1
  H  1459  1  0.46353350  0.98815750  0.39690300  1
  H  1460  1  0.44926050  0.03075250  0.39390300  1
  H  1475  1  0.99430100  0.85055500  0.15846500  1
  H  1476  1  0.95550650  0.79545150  0.11218500  1
  H  1481  1  0.95761200  0.82349750  0.97916850  1
  H  1482  1  0.98268000  0.86928500  0.96991300  1
  H  1483  1  0.02192700  0.92606450  0.01732050  1
  H  1484  1  0.03629050  0.93725900  0.07418250  1
  H  1499  1  0.68484550  0.34311950  0.34142400  1
  H  1500  1  0.67601850  0.35068900  0.38770250  1
  H  1505  1  0.83716900  0.48564150  0.52070550  1
  H  1506  1  0.89224350  0.51986300  0.52996250  1
  H  1507  1  0.90164000  0.51159750  0.48255850  1
  H  1508  1  0.85596450  0.46909400  0.42569950  1
  H  1523  1  0.80062600  0.64928300  0.15119100  1
  H  1524  1  0.80952400  0.70442100  0.16769300  1
  H  1529  1  0.64843950  0.67641450  0.14162300  1
  H  1530  1  0.59332000  0.63060950  0.12067650  1
  H  1531  1  0.58383700  0.57376550  0.10285250  1
  H  1532  1  0.62946850  0.56252650  0.10595800  1
  H  1547  1  0.14214250  0.65100950  0.80800800  1
  H  1548  1  0.19729600  0.66756850  0.81691150  1
  H  1553  1  0.16930400  0.64182600  0.65591500  1
  H  1554  1  0.12349600  0.62093400  0.60081700  1
  H  1555  1  0.06664700  0.60304900  0.59132900  1
  H  1556  1  0.05540050  0.60603800  0.63693650  1
  H  1571  1  0.83601850  0.84149500  0.69218850  1
  H  1572  1  0.84344650  0.88781900  0.68346050  1
  H  1577  1  0.97807750  0.02081150  0.84478300  1
  H  1578  1  0.01233650  0.03002150  0.89982200  1
  H  1579  1  0.00426550  0.98256000  0.90908950  1
  H  1580  1  0.96191900  0.92569550  0.86332350  1
  H  1595  1  0.34326350  0.65853000  0.00143750  1
  H  1596  1  0.28810100  0.61229900  0.96283500  1
  H  1601  1  0.31594550  0.47927200  0.96528650  1
  H  1602  1  0.36171800  0.46996500  0.99027000  1
  H  1603  1  0.41857300  0.51731300  0.02925700  1
  H  1604  1  0.42985850  0.57416800  0.04344650  1
  H  1619  1  0.64939200  0.84887150  0.49803450  1
  H  1620  1  0.64182500  0.83239250  0.53669550  1
  H  1625  1  0.50683150  0.85846850  0.53483200  1
  H  1626  1  0.47261500  0.87936600  0.50994800  1
  H  1627  1  0.48089100  0.89713050  0.47087150  1
  H  1628  1  0.52339550  0.89401300  0.45649550  1
  H  1643  1  0.33421000  0.19215000  0.84309600  1
  H  1644  1  0.38051450  0.18334750  0.85071500  1
  H  1649  1  0.51345050  0.34454900  0.98561150  1
  H  1650  1  0.52267150  0.39961450  0.01980900  1
  H  1651  1  0.47524100  0.40896550  0.01154350  1
  H  1652  1  0.41839250  0.36325750  0.96906400  1
  H  1667  1  0.14389400  0.30795800  0.14938400  1
  H  1668  1  0.16019150  0.31678600  0.20448250  1
  H  1673  1  0.13405250  0.15566150  0.17642100  1
  H  1674  1  0.11324200  0.10059150  0.13062750  1
  H  1675  1  0.09563600  0.09118950  0.07382950  1
  H  1676  1  0.09882000  0.13685600  0.06262700  1
  H  1691  1  0.34172700  0.99828100  0.65693700  1
  H  1692  1  0.32521700  0.03692700  0.64937100  1
  H  1697  1  0.35084450  0.03475550  0.51407400  1
  H  1698  1  0.37166550  0.00982250  0.47979300  1
  H  1699  1  0.38953000  0.97082250  0.48812050  1
  H  1700  1  0.38658900  0.95657100  0.53074200  1
  H  1715  1  0.15122450  0.50171200  0.35066350  1
  H  1716  1  0.10497150  0.46308300  0.29552350  1
  H  1721  1  0.97194300  0.46518100  0.32353600  1
  H  1722  1  0.96265500  0.49012000  0.36933900  1
  H  1723  1  0.01003300  0.52920650  0.42616150  1
  H  1724  1  0.06689650  0.54353650  0.43738600  1
  H  1739  1  0.49108150  0.84140450  0.14931200  1
  H  1740  1  0.52969800  0.88764050  0.20446850  1
  H  1745  1  0.52748800  0.02069500  0.17655600  1
  H  1746  1  0.50254550  0.03000750  0.13077400  1
  H  1747  1  0.46353650  0.98265650  0.07392700  1
  H  1748  1  0.44928350  0.92579350  0.06265400  1
  H  1763  1  0.99431200  0.65103750  0.84312650  1
  H  1764  1  0.95552150  0.66735000  0.85061550  1
  H  1769  1  0.95763150  0.64141300  0.98574350  1
  H  1770  1  0.98269300  0.62068650  0.02006050  1
  H  1771  1  0.02193350  0.60314550  0.01189300  1
  H  1772  1  0.03629200  0.60630900  0.96939100  1
  H  1787  1  0.68483650  0.84904050  0.35068100  1
  H  1788  1  0.67600000  0.83262850  0.29557050  1
  H  1793  1  0.83712200  0.85873900  0.32369000  1
  H  1794  1  0.89219750  0.87958150  0.36950300  1
  H  1795  1  0.90160150  0.89726350  0.42630900  1
  H  1796  1  0.85593750  0.89412250  0.43750200  1
  H  1811  1  0.80061600  0.65861600  0.65670700  1
  H  1812  1  0.80950850  0.61237350  0.64910100  1
  H  1817  1  0.64841100  0.47930350  0.51410650  1
  H  1818  1  0.59329400  0.46999500  0.47993600  1
  H  1819  1  0.58381800  0.51735950  0.48827350  1
  H  1820  1  0.62945600  0.57422950  0.53079250  1
  H  1835  1  0.14213150  0.99840050  0.34141400  1
  H  1836  1  0.19728300  0.03699850  0.38766350  1
  H  1841  1  0.16929450  0.03474550  0.52067200  1
  H  1842  1  0.12348800  0.00982850  0.52996350  1
  H  1843  1  0.06663950  0.97086400  0.48260050  1
  H  1844  1  0.05539200  0.95662950  0.42574650  1
  H  1859  1  0.83603600  0.50182350  0.15112550  1
  H  1860  1  0.84346250  0.46292850  0.16728100  1
  H  1865  1  0.97804950  0.46452350  0.14053000  1
  H  1866  1  0.01230200  0.48956650  0.11974250  1
  H  1867  1  0.00424250  0.52896800  0.10241750  1
  H  1868  1  0.96191050  0.54349900  0.10585550  1
  H  1883  1  0.34328350  0.19203500  0.34909550  1
  H  1884  1  0.28812400  0.18310900  0.33255100  1
  H  1889  1  0.31597500  0.34399300  0.35797200  1
  H  1890  1  0.36174550  0.39906950  0.37875700  1
  H  1891  1  0.41859850  0.40857200  0.39661050  1
  H  1892  1  0.42988200  0.36299900  0.39369600  1
  H  1907  1  0.64935500  0.30779350  0.15864350  1
  H  1908  1  0.64180100  0.31670350  0.11241850  1
  H  1913  1  0.50686000  0.15562050  0.97928250  1
  H  1914  1  0.47264350  0.10050500  0.96994650  1
  H  1915  1  0.48089850  0.09101950  0.01729600  1
  H  1916  1  0.52338500  0.13664550  0.07417850  1
  H  1931  1  0.33420500  0.64934300  0.49840200  1
  H  1932  1  0.38050800  0.70444700  0.53708900  1
  H  1937  1  0.51344050  0.67618500  0.53509550  1
  H  1938  1  0.52265950  0.63034150  0.51011400  1
  H  1939  1  0.47522850  0.57355850  0.47095600  1
  H  1940  1  0.41838050  0.56241650  0.45659700  1
  H  1955  1  0.14389550  0.34321800  0.00179350  1
  H  1956  1  0.16019600  0.35068700  0.96299400  1
  H  1961  1  0.13406050  0.48567050  0.96491100  1
  H  1962  1  0.11325000  0.51993300  0.98989300  1
  H  1963  1  0.09564050  0.51172850  0.02908200  1
  H  1964  1  0.09882100  0.46924550  0.04346850  1
  H  1979  1  0.34172050  0.85073250  0.69207400  1
  H  1980  1  0.32520450  0.79557450  0.68312400  1
  H  1985  1  0.35084050  0.82336200  0.84404550  1
  H  1986  1  0.37166800  0.86911300  0.89915100  1
  H  1987  1  0.38953450  0.92597800  0.90869250  1
  H  1988  1  0.38659150  0.93729350  0.86313400  1
  H  2003  1  0.15122950  0.15682200  0.80786050  1
  H  2004  1  0.10497800  0.14919300  0.81675200  1
  H  2009  1  0.97195250  0.01402100  0.65572650  1
  H  2010  1  0.96266600  0.97979450  0.60063650  1
  H  2011  1  0.01004150  0.98810250  0.59118500  1
  H  2012  1  0.06690500  0.03065250  0.63681850  1
  H  2027  1  0.49436500  0.84304550  0.65095250  1
  H  2028  1  0.45574250  0.85066100  0.66748450  1
  H  2033  1  0.45792900  0.98590550  0.64175050  1
  H  2034  1  0.48286950  0.02015750  0.62090900  1
  H  2035  1  0.52188650  0.01182000  0.60308050  1
  H  2036  1  0.53614950  0.96921900  0.60607450  1
  H  2051  1  0.99113000  0.14944450  0.84153250  1
  H  2052  1  0.02992300  0.20454950  0.88781050  1
  H  2057  1  0.02781700  0.17650900  0.02083000  1
  H  2058  1  0.00275500  0.13072250  0.03008850  1
  H  2059  1  0.96350900  0.07394050  0.98268050  1
  H  2060  1  0.94914600  0.06274450  0.92581950  1
  H  2075  1  0.30059850  0.65690350  0.65857100  1
  H  2076  1  0.30943500  0.64933400  0.61229800  1
  H  2081  1  0.14830550  0.51433750  0.47929000  1
  H  2082  1  0.09323100  0.48010800  0.47002700  1
  H  2083  1  0.08382500  0.48838250  0.51742750  1
  H  2084  1  0.12949150  0.53090000  0.57428450  1
  H  2099  1  0.18481050  0.35071700  0.84881450  1
  H  2100  1  0.17591400  0.29558150  0.83231250  1
  H  2105  1  0.33700150  0.32359150  0.85838700  1
  H  2106  1  0.39212050  0.36939800  0.87933450  1
  H  2107  1  0.40160150  0.42624100  0.89715650  1
  H  2108  1  0.35597000  0.43747950  0.89405150  1
  H  2123  1  0.84328000  0.34899550  0.19198050  1
  H  2124  1  0.78811950  0.33241850  0.18306400  1
  H  2129  1  0.81608200  0.35809550  0.34403750  1
  H  2130  1  0.86188300  0.37898650  0.39913750  1
  H  2131  1  0.91873900  0.39689900  0.40863900  1
  H  2132  1  0.92999700  0.39393650  0.36304350  1
  H  2147  1  0.14944050  0.15849950  0.30781700  1
  H  2148  1  0.14200250  0.11217750  0.31654800  1
  H  2153  1  0.00734900  0.97919050  0.15523150  1
  H  2154  1  0.97309250  0.96998250  0.10019300  1
  H  2155  1  0.98117500  0.01744400  0.09092300  1
  H  2156  1  0.02353100  0.07430700  0.13668600  1
  H  2171  1  0.64217500  0.34147400  0.99857800  1
  H  2172  1  0.69733850  0.38770600  0.03717950  1
  H  2177  1  0.66949450  0.52072950  0.03471600  1
  H  2178  1  0.62372350  0.53003750  0.00973100  1
  H  2179  1  0.56686950  0.48269200  0.97074850  1
  H  2180  1  0.55558200  0.42583700  0.95656300  1
  H  2195  1  0.33602350  0.15112250  0.50194800  1
  H  2196  1  0.34358800  0.16760250  0.46328750  1
  H  2201  1  0.47860550  0.14156500  0.46517150  1
  H  2202  1  0.51282850  0.12067300  0.49005950  1
  H  2203  1  0.50455350  0.10290400  0.52913150  1
  H  2204  1  0.46204000  0.10600700  0.54349900  1
  H  2219  1  0.65122750  0.80784750  0.15689600  1
  H  2220  1  0.60492550  0.81665150  0.14928000  1
  H  2225  1  0.47198300  0.65544750  0.01438950  1
  H  2226  1  0.46275900  0.60038200  0.98019300  1
  H  2227  1  0.51018850  0.59102950  0.98845700  1
  H  2228  1  0.56703900  0.63673700  0.03093300  1
  H  2243  1  0.84155050  0.69203650  0.85061100  1
  H  2244  1  0.82525150  0.68320500  0.79551050  1
  H  2249  1  0.85136050  0.84431800  0.82355750  1
  H  2250  1  0.87216450  0.89938850  0.86935000  1
  H  2251  1  0.88977750  0.90879500  0.92614950  1
  H  2252  1  0.88660350  0.86313350  0.93735500  1
  H  2267  1  0.64371800  0.00174250  0.34307850  1
  H  2268  1  0.66022650  0.96309600  0.35064050  1
  H  2273  1  0.63459500  0.96525200  0.48593100  1
  H  2274  1  0.61377100  0.99018150  0.52021250  1
  H  2275  1  0.59590700  0.02918250  0.51188850  1
  H  2276  1  0.59885050  0.04343850  0.46927000  1
  H  2291  1  0.83420900  0.49831850  0.64934550  1
  H  2292  1  0.88045900  0.53693500  0.70449200  1
  H  2297  1  0.01348800  0.53479500  0.67649900  1
  H  2298  1  0.02277800  0.50986100  0.63069800  1
  H  2299  1  0.97540500  0.47079450  0.57386850  1
  H  2300  1  0.91854150  0.45648050  0.56263700  1
  H  2315  1  0.49436900  0.15860350  0.85069850  1
  H  2316  1  0.45574950  0.11236800  0.79554350  1
  H  2321  1  0.45793000  0.97930900  0.82346200  1
  H  2322  1  0.48286800  0.96999500  0.86924500  1
  H  2323  1  0.52188400  0.01734750  0.92609150  1
  H  2324  1  0.53614700  0.07421050  0.93735950  1
  H  2339  1  0.99114600  0.34897850  0.15689550  1
  H  2340  1  0.02992800  0.33265500  0.14939700  1
  H  2345  1  0.02779550  0.35857200  0.01425450  1
  H  2346  1  0.00273500  0.37930150  0.97993850  1
  H  2347  1  0.96350500  0.39685400  0.98811700  1
  H  2348  1  0.94915450  0.39369650  0.03062600  1
  H  2363  1  0.30059350  0.15096750  0.64931400  1
  H  2364  1  0.30942950  0.16737650  0.70442300  1
  H  2369  1  0.14830250  0.14125150  0.67630200  1
  H  2370  1  0.09322850  0.12040750  0.63048900  1
  H  2371  1  0.08382450  0.10272850  0.57368400  1
  H  2372  1  0.12949050  0.10587750  0.56249200  1
  H  2387  1  0.18480850  0.34138300  0.34326850  1
  H  2388  1  0.17590700  0.38762050  0.35087350  1
  H  2393  1  0.33698300  0.52069950  0.48590750  1
  H  2394  1  0.39210000  0.53001300  0.52008200  1
  H  2395  1  0.40158600  0.48265600  0.51174000  1
  H  2396  1  0.35595850  0.42578600  0.46920850  1
  H  2411  1  0.84329300  0.00158050  0.65857950  1
  H  2412  1  0.78814100  0.96298500  0.61232900  1
  H  2417  1  0.81613200  0.96525550  0.47932550  1
  H  2418  1  0.86194000  0.99017550  0.47003750  1
  H  2419  1  0.91878850  0.02913600  0.51740050  1
  H  2420  1  0.93003550  0.04336500  0.57425450  1
  H  2435  1  0.14941100  0.49818900  0.84888200  1
  H  2436  1  0.14198450  0.53708250  0.83272400  1
  H  2441  1  0.00737900  0.53547200  0.85944800  1
  H  2442  1  0.97312000  0.51042450  0.88022950  1
  H  2443  1  0.98118350  0.47103050  0.89756200  1
  H  2444  1  0.02352300  0.45650350  0.89413350  1
  H  2459  1  0.64216450  0.80797850  0.65089300  1
  H  2460  1  0.69732750  0.81691050  0.66745100  1
  H  2465  1  0.66949700  0.65604550  0.64208450  1
  H  2466  1  0.62372900  0.60096700  0.62130000  1
  H  2467  1  0.56687050  0.59145550  0.60342300  1
  H  2468  1  0.55558000  0.63702050  0.60631950  1
  H  2483  1  0.33605200  0.69220100  0.84136300  1
  H  2484  1  0.34361650  0.68329300  0.88759250  1
  H  2489  1  0.47857100  0.84437700  0.02071600  1
  H  2490  1  0.51278500  0.89949100  0.03004600  1
  H  2491  1  0.50452000  0.90897350  0.98269350  1
  H  2492  1  0.46202600  0.86334550  0.92581250  1
  H  2507  1  0.65122750  0.35064400  0.50156050  1
  H  2508  1  0.60492800  0.29553100  0.46288900  1
  H  2513  1  0.47199450  0.32376300  0.46493650  1
  H  2514  1  0.46277000  0.36960450  0.48991650  1
  H  2515  1  0.51019400  0.42639350  0.52904850  1
  H  2516  1  0.56704200  0.43754700  0.54338400  1
  H  2531  1  0.84153800  0.65678550  0.99820850  1
  H  2532  1  0.82523400  0.64931550  0.03700650  1
  H  2537  1  0.85135900  0.51432500  0.03508300  1
  H  2538  1  0.87217000  0.48006150  0.01010150  1
  H  2539  1  0.88978350  0.48826850  0.97091700  1
  H  2540  1  0.88660800  0.53075400  0.95653300  1
  H  2555  1  0.64370000  0.14927300  0.30793100  1
  H  2556  1  0.66021650  0.20443150  0.31688300  1
  H  2561  1  0.63461000  0.17665750  0.15597350  1
  H  2562  1  0.61379100  0.13091000  0.10086900  1
  H  2563  1  0.59591950  0.07404200  0.09132250  1
  H  2564  1  0.59885050  0.06272150  0.13687600  1
  H  2579  1  0.83420050  0.84317950  0.19213800  1
  H  2580  1  0.88045050  0.85080550  0.18324500  1
  H  2585  1  0.01348000  0.98598000  0.34426800  1
  H  2586  1  0.02277000  0.02020900  0.39935800  1
  H  2587  1  0.97539450  0.01190050  0.40881100  1
  H  2588  1  0.91853150  0.96935050  0.36318100  1
  N  23  1  0.51938400  0.25974800  0.45274900  1
  N  24  1  0.41889350  0.19319050  0.45294100  1
  N  25  1  0.40619450  0.22334000  0.36283650  1
  N  26  1  0.44190800  0.13942150  0.36287650  1
  N  53  1  0.96607250  0.92618250  0.23292900  1
  N  54  1  0.06673900  0.02665700  0.26680600  1
  N  55  1  0.07915450  0.94926550  0.30977800  1
  N  56  1  0.04349450  0.91344650  0.19010700  1
  N  83  1  0.68593900  0.24039450  0.26720750  1
  N  84  1  0.75224400  0.30674450  0.23283450  1
  N  85  1  0.63198700  0.27644350  0.19025150  1
  N  86  1  0.71613550  0.36068700  0.30975250  1
  N  113  1  0.79968300  0.57401200  0.04732900  1
  N  114  1  0.73330400  0.47331100  0.04730100  1
  N  115  1  0.85358950  0.55108300  0.13744350  1
  N  116  1  0.76928950  0.58632500  0.13722850  1
  N  143  1  0.06673800  0.54735750  0.80722350  1
  N  144  1  0.96607900  0.54717350  0.74043050  1
  N  145  1  0.04349950  0.63732950  0.86067300  1
  N  146  1  0.07916500  0.63716550  0.77666650  1
  N  173  1  0.73330100  0.76727100  0.69329000  1
  N  174  1  0.79969400  0.73295450  0.75963750  1
  N  175  1  0.76928550  0.69024500  0.63933950  1
  N  176  1  0.85358400  0.80979050  0.72342050  1
  N  203  1  0.41890800  0.73301650  0.97323750  1
  N  204  1  0.51938700  0.76688500  0.07390400  1
  N  205  1  0.44195250  0.80978550  0.08633400  1
  N  206  1  0.40618050  0.69013800  0.05061250  1
  N  233  1  0.75228000  0.95278700  0.52669100  1
  N  234  1  0.68593500  0.95284500  0.42602800  1
  N  235  1  0.71612750  0.86274300  0.41363950  1
  N  236  1  0.63201250  0.86284400  0.44904850  1
  N  263  1  0.25970000  0.19301700  0.74025200  1
  N  264  1  0.22570050  0.25969650  0.80678600  1
  N  265  1  0.18285700  0.13946250  0.77656850  1
  N  266  1  0.30251000  0.22343300  0.86059200  1
  N  293  1  0.04013050  0.30694150  0.07402800  1
  N  294  1  0.04013300  0.24047250  0.97338350  1
  N  295  1  0.13016450  0.36078000  0.05099450  1
  N  296  1  0.13016400  0.27666650  0.08645050  1
  N  323  1  0.44554500  0.02674750  0.75963750  1
  N  324  1  0.44554250  0.92607850  0.69319100  1
  N  325  1  0.35550700  0.91368750  0.72344450  1
  N  326  1  0.35550600  0.94910650  0.63935050  1
  N  353  1  0.22568500  0.47329000  0.42619400  1
  N  354  1  0.25970050  0.57396800  0.52673650  1
  N  355  1  0.30250100  0.58636100  0.44919900  1
  N  356  1  0.18285350  0.55069250  0.41358400  1
  N  743  1  0.46604700  0.74021800  0.54724100  1
  N  744  1  0.56652650  0.80681200  0.54704550  1
  N  745  1  0.57925150  0.77666600  0.63715250  1
  N  746  1  0.54349200  0.86055250  0.63710250  1
  N  773  1  0.01935800  0.07381400  0.76706700  1
  N  774  1  0.91869700  0.97333900  0.73320300  1
  N  775  1  0.90626950  0.05071950  0.69021800  1
  N  776  1  0.94193750  0.08655150  0.80989200  1
  N  803  1  0.29949250  0.75961600  0.73280350  1
  N  804  1  0.23315700  0.69322550  0.76713450  1
  N  805  1  0.35342400  0.72355050  0.80975250  1
  N  806  1  0.26930200  0.63932350  0.69023650  1
  N  833  1  0.18574650  0.42599000  0.95267350  1
  N  834  1  0.25213500  0.52669050  0.95270650  1
  N  835  1  0.13185050  0.44892600  0.86255950  1
  N  836  1  0.21614600  0.41367650  0.86277750  1
  N  863  1  0.91870200  0.45264950  0.19277550  1
  N  864  1  0.01935200  0.45283400  0.25959300  1
  N  865  1  0.94195350  0.36268350  0.13934500  1
  N  866  1  0.90625800  0.36284000  0.22333000  1
  N  893  1  0.25216000  0.23275300  0.30672800  1
  N  894  1  0.18574150  0.26703250  0.24035100  1
  N  895  1  0.21614600  0.30976150  0.36064950  1
  N  896  1  0.13187150  0.19020550  0.27658400  1
  N  923  1  0.56652250  0.26698300  0.02676950  1
  N  924  1  0.46605100  0.23311400  0.92609700  1
  N  925  1  0.54349200  0.19022100  0.91367700  1
  N  926  1  0.57925900  0.30986850  0.94939950  1
  N  953  1  0.23314600  0.04720900  0.47330600  1
  N  954  1  0.29950250  0.04716600  0.57397450  1
  N  955  1  0.26930050  0.13726000  0.58635350  1
  N  956  1  0.35341250  0.13715850  0.55094100  1
  N  983  1  0.72572850  0.80698200  0.25974350  1
  N  984  1  0.75973900  0.74030750  0.19321850  1
  N  985  1  0.80257500  0.86053900  0.22343100  1
  N  986  1  0.68292650  0.77656300  0.13940250  1
  N  1013  1  0.94530750  0.69305550  0.92597600  1
  N  1014  1  0.94529900  0.75953150  0.02661550  1
  N  1015  1  0.85527000  0.63922150  0.94900650  1
  N  1016  1  0.85527200  0.72332800  0.91354100  1
  N  1043  1  0.53989200  0.97325900  0.24037600  1
  N  1044  1  0.53988150  0.07392000  0.30680850  1
  N  1045  1  0.62992250  0.08632250  0.27656200  1
  N  1046  1  0.62993250  0.05091200  0.36066250  1
  N  1073  1  0.75972200  0.52670750  0.57378850  1
  N  1074  1  0.72575900  0.42604300  0.47325900  1
  N  1075  1  0.68292450  0.41362500  0.55076750  1
  N  1076  1  0.80258450  0.44933450  0.58642400  1
  N  1447  1  0.51741600  0.06307750  0.35369950  1
  N  1450  1  0.47316800  0.07158200  0.37245400  1
  N  1471  1  0.96779250  0.82895600  0.03823350  1
  N  1474  1  0.01226100  0.89188400  0.09103900  1
  N  1495  1  0.78354850  0.43676300  0.46164750  1
  N  1498  1  0.79369650  0.42831500  0.40884450  1
  N  1519  1  0.70201600  0.67091700  0.14628800  1
  N  1522  1  0.69177700  0.60791700  0.12753200  1
  N  1543  1  0.16379650  0.64636200  0.70946050  1
  N  1546  1  0.10079350  0.62754250  0.69922200  1
  N  1567  1  0.92937000  0.96174650  0.79106550  1
  N  1570  1  0.92112200  0.90889000  0.80108400  1
  N  1591  1  0.32150200  0.53832900  0.97527400  1
  N  1594  1  0.38450950  0.59107750  0.01948200  1
  N  1615  1  0.55571700  0.85378350  0.52462650  1
  N  1618  1  0.56417100  0.87248500  0.48033200  1
  N  1639  1  0.45440300  0.29089050  0.93678050  1
  N  1642  1  0.40157200  0.30099400  0.92831000  1
  N  1663  1  0.13877800  0.20926900  0.17095700  1
  N  1666  1  0.12026450  0.19912000  0.10801450  1
  N  1687  1  0.34637850  0.02470650  0.56310400  1
  N  1690  1  0.36515850  0.98047250  0.57159500  1
  N  1711  1  0.03101000  0.47534700  0.32901800  1
  N  1714  1  0.08378900  0.51963500  0.39200000  1
  N  1735  1  0.51742100  0.96162900  0.17101900  1
  N  1738  1  0.47319450  0.90887650  0.10801600  1
  N  1759  1  0.96780700  0.64612900  0.93685300  1
  N  1762  1  0.01226750  0.62766000  0.92850750  1
  N  1783  1  0.78351400  0.85403100  0.32913700  1
  N  1786  1  0.79367150  0.87264650  0.39209400  1
  N  1807  1  0.70199600  0.53837600  0.56300700  1
  N  1810  1  0.69176500  0.59114200  0.57152300  1
  N  1831  1  0.16378650  0.02470600  0.46161950  1
  N  1834  1  0.10078300  0.98051750  0.40885250  1
  N  1855  1  0.92936150  0.47490100  0.14556650  1
  N  1858  1  0.92112000  0.51951400  0.12730800  1
  N  1879  1  0.32152850  0.29048800  0.35353150  1
  N  1882  1  0.38453400  0.30073950  0.37231350  1
  N  1903  1  0.55572250  0.20919600  0.03837450  1
  N  1906  1  0.56415700  0.19894950  0.09112050  1
  N  1927  1  0.45439450  0.67079500  0.52489650  1
  N  1930  1  0.40156250  0.60785900  0.48053850  1
  N  1951  1  0.13878300  0.43678950  0.97510250  1
  N  1954  1  0.12026600  0.42842650  0.01952950  1
  N  1975  1  0.34636950  0.82894700  0.79055050  1
  N  1978  1  0.36515550  0.89196550  0.80084700  1
  N  1999  1  0.03101850  0.06294550  0.70930400  1
  N  2002  1  0.08379600  0.07144800  0.69909700  1
  N  2023  1  0.46800650  0.93691550  0.64629600  1
  N  2026  1  0.51224300  0.92839650  0.62753150  1
  N  2047  1  0.01763850  0.17104850  0.96176500  1
  N  2050  1  0.97317100  0.10811850  0.90896050  1
  N  2071  1  0.20191550  0.56323300  0.53834750  1
  N  2074  1  0.19175900  0.57168750  0.59114650  1
  N  2095  1  0.28342250  0.32908700  0.85371850  1
  N  2098  1  0.29365950  0.39208550  0.87247400  1
  N  2119  1  0.82160150  0.35359000  0.29050550  1
  N  2122  1  0.88461100  0.37243400  0.30075600  1
  N  2143  1  0.05606550  0.03825400  0.20894750  1
  N  2146  1  0.06432650  0.09110950  0.19892700  1
  N  2167  1  0.66393850  0.46167500  0.02473350  1
  N  2170  1  0.60093050  0.40892650  0.98052900  1
  N  2191  1  0.42971000  0.14623300  0.47536700  1
  N  2194  1  0.42125500  0.12752600  0.51965800  1
  N  2215  1  0.53103100  0.70910750  0.06321950  1
  N  2218  1  0.58386150  0.69900100  0.07168750  1
  N  2239  1  0.84664750  0.79071750  0.82902800  1
  N  2242  1  0.86516600  0.80087050  0.89197250  1
  N  2263  1  0.63906300  0.97530600  0.43690400  1
  N  2266  1  0.62028050  0.01954100  0.42841650  1
  N  2287  1  0.95442100  0.52465050  0.67100850  1
  N  2290  1  0.90164650  0.48038100  0.60802050  1
  N  2311  1  0.46800950  0.03837700  0.82899650  1
  N  2314  1  0.51224150  0.09112800  0.89199650  1
  N  2335  1  0.01763100  0.35386550  0.06315250  1
  N  2338  1  0.97317900  0.37234500  0.07150700  1
  N  2359  1  0.20191350  0.14596550  0.67085600  1
  N  2362  1  0.19175700  0.12735550  0.60790050  1
  N  2383  1  0.28340900  0.46162650  0.43699150  1
  N  2386  1  0.29365050  0.40886700  0.42847050  1
  N  2407  1  0.82163950  0.97528900  0.53837750  1
  N  2410  1  0.88464200  0.01947250  0.59114550  1
  N  2431  1  0.05607250  0.52510000  0.85442150  1
  N  2434  1  0.06431750  0.48049150  0.87268700  1
  N  2455  1  0.66393650  0.70954200  0.64650350  1
  N  2458  1  0.60092800  0.69928100  0.62770100  1
  N  2479  1  0.42970300  0.79080000  0.96162800  1
  N  2482  1  0.42125500  0.80104050  0.90887650  1
  N  2503  1  0.53103800  0.32916550  0.47510950  1
  N  2506  1  0.58386550  0.39211050  0.51944500  1
  N  2527  1  0.84664150  0.56320900  0.02489550  1
  N  2530  1  0.86516350  0.57157500  0.98047150  1
  N  2551  1  0.63906800  0.17106600  0.20946400  1
  N  2554  1  0.62027600  0.10804600  0.19916100  1
  N  2575  1  0.95441200  0.93705400  0.29069100  1
  N  2578  1  0.90163600  0.92855250  0.30090150  1
  O  1463  1  0.58099750  0.13082550  0.34944800  1
  O  1464  1  0.46871050  0.12850300  0.40486550  1
  O  1487  1  0.90418500  0.76102100  0.04243000  1
  O  1488  1  0.01646750  0.92850950  0.15237800  1
  O  1511  1  0.71155900  0.36915700  0.45757000  1
  O  1512  1  0.76916300  0.37170050  0.34735550  1
  O  1535  1  0.77390900  0.73866700  0.15049900  1
  O  1536  1  0.71636350  0.57105900  0.09524250  1
  O  1559  1  0.23164700  0.65060300  0.78141200  1
  O  1560  1  0.06397900  0.59511400  0.72378900  1
  O  1583  1  0.86178000  0.95762200  0.71891100  1
  O  1584  1  0.86448950  0.84737150  0.77637900  1
  O  1607  1  0.25368600  0.54247700  0.91159500  1
  O  1608  1  0.42128050  0.65237550  0.02366600  1
  O  1631  1  0.62342200  0.84954850  0.58813750  1
  O  1632  1  0.62099900  0.90477700  0.47572600  1
  O  1655  1  0.45034700  0.21883300  0.86919500  1
  O  1656  1  0.34014600  0.27639950  0.87152750  1
  O  1679  1  0.14310950  0.28131350  0.23883600  1
  O  1680  1  0.08809150  0.22380550  0.07122800  1
  O  1703  1  0.34221150  0.08829350  0.63086100  1
  O  1704  1  0.39748250  0.97581500  0.62836650  1
  O  1727  1  0.03517800  0.41175450  0.26120650  1
  O  1728  1  0.14510300  0.52379900  0.42869000  1
  O  1751  1  0.58101600  0.95747950  0.23885750  1
  O  1752  1  0.46878350  0.84751000  0.07116450  1
  O  1775  1  0.90419900  0.65045550  0.86904650  1
  O  1776  1  0.01646050  0.59523750  0.87136700  1
  O  1799  1  0.71152850  0.84966600  0.26122750  1
  O  1800  1  0.76915450  0.90475650  0.42905500  1
  O  1823  1  0.77388700  0.54251150  0.63067650  1
  O  1824  1  0.71635700  0.65258700  0.62839500  1
  O  1847  1  0.23163100  0.08831950  0.45751550  1
  O  1848  1  0.06396700  0.97612700  0.34747100  1
  O  1871  1  0.86178700  0.41145000  0.15014800  1
  O  1872  1  0.86448650  0.52440100  0.09538750  1
  O  1895  1  0.25371550  0.21852050  0.34939300  1
  O  1896  1  0.42131350  0.27621150  0.40488100  1
  O  1919  1  0.62341750  0.28114100  0.04257350  1
  O  1920  1  0.62095800  0.22348850  0.15256650  1
  O  1943  1  0.45034000  0.73879550  0.58843650  1
  O  1944  1  0.34013400  0.57102400  0.47589100  1
  O  1967  1  0.14311750  0.36907550  0.91155900  1
  O  1968  1  0.08808800  0.37156800  0.02414200  1
  O  1991  1  0.34219650  0.76119600  0.71862050  1
  O  1992  1  0.39748500  0.92894900  0.77640300  1
  O  2015  1  0.03518600  0.13072000  0.78128000  1
  O  2016  1  0.14510350  0.12861150  0.72371600  1
  O  2039  1  0.40441950  0.86917400  0.65055150  1
  O  2040  1  0.51666950  0.87145200  0.59510250  1
  O  2063  1  0.08124500  0.23898250  0.95756550  1
  O  2064  1  0.96897100  0.07149400  0.84762500  1
  O  2087  1  0.27390350  0.63085650  0.54243000  1
  O  2088  1  0.21627900  0.62831300  0.65262400  1
  O  2111  1  0.21153200  0.26133700  0.84950700  1
  O  2112  1  0.26907050  0.42894050  0.90476600  1
  O  2135  1  0.75376150  0.34936750  0.21855600  1
  O  2136  1  0.92142400  0.40489100  0.27619900  1
  O  2159  1  0.12365600  0.04237350  0.28109850  1
  O  2160  1  0.12098050  0.15262300  0.22363450  1
  O  2183  1  0.73175750  0.45752750  0.08841500  1
  O  2184  1  0.56415900  0.34762800  0.97634600  1
  O  2207  1  0.36199900  0.15046000  0.41185100  1
  O  2208  1  0.36442750  0.09522600  0.52426150  1
  O  2231  1  0.53509600  0.78116850  0.13080750  1
  O  2232  1  0.64529050  0.72359550  0.12846600  1
  O  2255  1  0.84232300  0.71867200  0.76115300  1
  O  2256  1  0.89734700  0.77619000  0.92876300  1
  O  2279  1  0.64322800  0.91172350  0.36914150  1
  O  2280  1  0.58795800  0.02420350  0.37164950  1
  O  2303  1  0.95025200  0.58825150  0.73881750  1
  O  2304  1  0.84034350  0.47624950  0.57133600  1
  O  2327  1  0.40442350  0.04253200  0.76115450  1
  O  2328  1  0.51666100  0.15249650  0.92884850  1
  O  2351  1  0.08124200  0.34953900  0.13095800  1
  O  2352  1  0.96900700  0.40478200  0.12866500  1
  O  2375  1  0.27389850  0.15033100  0.73876350  1
  O  2376  1  0.21627550  0.09524700  0.57094050  1
  O  2399  1  0.21151750  0.45748450  0.36930600  1
  O  2400  1  0.26907050  0.34742800  0.37158850  1
  O  2423  1  0.75379150  0.91167200  0.54247550  1
  O  2424  1  0.92145550  0.02385500  0.65252450  1
  O  2447  1  0.12365400  0.58855700  0.84984700  1
  O  2448  1  0.12095450  0.47561050  0.90461600  1
  O  2471  1  0.73174550  0.78150850  0.65062800  1
  O  2472  1  0.56415000  0.72380250  0.59510750  1
  O  2495  1  0.36201450  0.71886000  0.95743850  1
  O  2496  1  0.36443600  0.77649800  0.84743800  1
  O  2519  1  0.53509550  0.26117450  0.41155700  1
  O  2520  1  0.64528050  0.42894100  0.52404850  1
  O  2543  1  0.84230900  0.63092600  0.08843900  1
  O  2544  1  0.89734550  0.62843500  0.97586550  1
  O  2567  1  0.64323900  0.23881800  0.28139600  1
  O  2568  1  0.58794300  0.07105550  0.22360050  1
  O  2591  1  0.95024100  0.86927650  0.21871250  1
  O  2592  1  0.84033000  0.87139350  0.27628550  1
