# generated using pymatgen
data_H27C42N
_symmetry_space_group_name_H-M   'P 1'
_cell_length_a   32.67980000
_cell_length_b   43.84970000
_cell_length_c   48.69950000
_cell_angle_alpha   90.00000000
_cell_angle_beta   90.00000000
_cell_angle_gamma   90.00000000
_symmetry_Int_Tables_number   1
_chemical_formula_structural   H27C42N
_chemical_formula_sum   'H432 C672 N16'
_cell_volume   69786.35554941
_cell_formula_units_Z   16
loop_
 _symmetry_equiv_pos_site_id
 _symmetry_equiv_pos_as_xyz
  1  'x, y, z'
loop_
 _atom_site_type_symbol
 _atom_site_label
 _atom_site_symmetry_multiplicity
 _atom_site_fract_x
 _atom_site_fract_y
 _atom_site_fract_z
 _atom_site_occupancy
  H  25  1  0.89441300  0.67634200  0.83713600  1
  H  26  1  0.84476300  0.70545300  0.85965300  1
  H  27  1  0.81542700  0.66673900  0.76899200  1
  H  28  1  0.76372200  0.69226000  0.79313100  1
  H  29  1  0.70863100  0.78003200  0.79306400  1
  H  30  1  0.65692000  0.80554500  0.76893000  1
  H  31  1  0.62772500  0.76710700  0.85970400  1
  H  32  1  0.57808800  0.79622300  0.83718300  1
  H  33  1  0.73022100  0.78408300  0.92269100  1
  H  34  1  0.73144400  0.78436100  0.97084000  1
  H  35  1  0.74101900  0.68807100  0.97083300  1
  H  36  1  0.74225300  0.68836000  0.92268400  1
  H  37  1  0.78561500  0.70606800  0.88392000  1
  H  38  1  0.73620500  0.73619000  0.80920200  1
  H  39  1  0.68685900  0.76637900  0.88392100  1
  H  64  1  0.07719800  0.29511900  0.83691700  1
  H  65  1  0.12648900  0.26569300  0.85932100  1
  H  66  1  0.15704600  0.30580500  0.76935900  1
  H  67  1  0.20848700  0.28011500  0.79352800  1
  H  68  1  0.26397400  0.19237200  0.79348900  1
  H  69  1  0.31542200  0.16669400  0.76931800  1
  H  70  1  0.34590500  0.20665300  0.85934800  1
  H  71  1  0.39519000  0.17723000  0.83693800  1
  H  72  1  0.26199700  0.19203000  0.92410200  1
  H  73  1  0.26481900  0.19298600  0.97204700  1
  H  74  1  0.20760900  0.27943800  0.97204400  1
  H  75  1  0.21041500  0.28038200  0.92409900  1
  H  76  1  0.18461600  0.26424300  0.88369600  1
  H  77  1  0.23621400  0.23622200  0.80929900  1
  H  78  1  0.28779000  0.20816500  0.88369500  1
  H  103  1  0.89502600  0.29539900  0.64806400  1
  H  104  1  0.84569200  0.26600100  0.62566400  1
  H  105  1  0.81540800  0.30581200  0.71578000  1
  H  106  1  0.76391000  0.28013100  0.69163100  1
  H  107  1  0.70846800  0.19240200  0.69168100  1
  H  108  1  0.65696600  0.16672600  0.71582500  1
  H  109  1  0.62678800  0.20632900  0.62561800  1
  H  110  1  0.57746700  0.17692900  0.64802300  1
  H  111  1  0.71277200  0.19135100  0.56116200  1
  H  112  1  0.70990900  0.19216000  0.51330500  1
  H  113  1  0.76253800  0.28027500  0.51330900  1
  H  114  1  0.75968500  0.28107300  0.56116600  1
  H  115  1  0.78744400  0.26462400  0.60134700  1
  H  116  1  0.73620900  0.23623600  0.67579300  1
  H  117  1  0.68502600  0.20779300  0.60134500  1
  H  142  1  0.07777400  0.67661600  0.64801500  1
  H  143  1  0.12731500  0.70586300  0.62558800  1
  H  144  1  0.15692700  0.66666667  0.71603600  1
  H  145  1  0.20857600  0.69227600  0.69193300  1
  H  146  1  0.26388200  0.78009000  0.69197400  1
  H  147  1  0.31553800  0.80568800  0.71607300  1
  H  148  1  0.34506400  0.76666200  0.62555700  1
  H  149  1  0.39459900  0.79591400  0.64798400  1
  H  150  1  0.24905400  0.78332500  0.56214800  1
  H  151  1  0.24941800  0.78351600  0.51440400  1
  H  152  1  0.22301300  0.68892800  0.51441000  1
  H  153  1  0.22336500  0.68912600  0.56215200  1
  H  154  1  0.18613100  0.70670900  0.60134100  1
  H  155  1  0.23621100  0.73621200  0.67597600  1
  H  156  1  0.28625700  0.76575200  0.60133900  1
  H  181  1  0.07833400  0.29654900  0.14760300  1
  H  182  1  0.12802200  0.26751800  0.12502400  1
  H  183  1  0.15698800  0.30551800  0.21598400  1
  H  184  1  0.20873500  0.28005600  0.19182600  1
  H  185  1  0.26365300  0.19229700  0.19178200  1
  H  186  1  0.31539100  0.16682400  0.21594300  1
  H  187  1  0.34446100  0.20501600  0.12506100  1
  H  188  1  0.39415500  0.17598200  0.14763800  1
  H  189  1  0.23833800  0.18815600  0.06231900  1
  H  190  1  0.23700000  0.18796900  0.01390800  1
  H  191  1  0.23544900  0.28446700  0.01390000  1
  H  192  1  0.23413000  0.28428900  0.06231300  1
  H  193  1  0.18732100  0.26679700  0.10086000  1
  H  194  1  0.23621400  0.23620600  0.17561400  1
  H  195  1  0.28514900  0.20565400  0.10086200  1
  H  220  1  0.89490200  0.67685700  0.14806100  1
  H  221  1  0.84555900  0.70625300  0.12566900  1
  H  222  1  0.81545000  0.66666667  0.21589400  1
  H  223  1  0.76392900  0.69235300  0.19176400  1
  H  224  1  0.70849500  0.78007500  0.19175000  1
  H  225  1  0.65697800  0.80576000  0.21587900  1
  H  226  1  0.62684000  0.76612800  0.12567700  1
  H  227  1  0.57749800  0.79552700  0.14807000  1
  H  228  1  0.71390400  0.78137900  0.06134400  1
  H  229  1  0.71109600  0.78066800  0.01352400  1
  H  230  1  0.76133400  0.69175100  0.01352200  1
  H  231  1  0.75851600  0.69103300  0.06134000  1
  H  232  1  0.78725800  0.70763700  0.10140200  1
  H  233  1  0.73620300  0.73620300  0.17587300  1
  H  234  1  0.68514800  0.76476900  0.10140200  1
  H  259  1  0.07776800  0.67658600  0.33697700  1
  H  260  1  0.12723900  0.70589700  0.35938000  1
  H  261  1  0.15690200  0.66672700  0.26893500  1
  H  262  1  0.20852100  0.69235800  0.29303200  1
  H  263  1  0.26386700  0.78015800  0.29307500  1
  H  264  1  0.31548300  0.80579200  0.26897400  1
  H  265  1  0.34523500  0.76644700  0.35934500  1
  H  266  1  0.39471800  0.79575500  0.33694400  1
  H  267  1  0.25198200  0.78283000  0.42300700  1
  H  268  1  0.25338400  0.78279300  0.47068900  1
  H  269  1  0.21905400  0.68964200  0.47069500  1
  H  270  1  0.22047000  0.68959400  0.42301300  1
  H  271  1  0.18589200  0.70694900  0.38358900  1
  H  272  1  0.23621400  0.73622800  0.30899500  1
  H  273  1  0.28657500  0.76546700  0.38358700  1
  H  298  1  0.89433800  0.29622000  0.33716200  1
  H  299  1  0.84465900  0.26716000  0.35970600  1
  H  300  1  0.81550100  0.30557300  0.26891700  1
  H  301  1  0.76376800  0.28009000  0.29306500  1
  H  302  1  0.70867800  0.19230600  0.29309400  1
  H  303  1  0.65695100  0.16681700  0.26894500  1
  H  304  1  0.62772500  0.20535500  0.35968400  1
  H  305  1  0.57803900  0.17629500  0.33713900  1
  H  306  1  0.73137500  0.18828600  0.42263500  1
  H  307  1  0.73269900  0.18802600  0.47086700  1
  H  308  1  0.73975200  0.28441900  0.47087600  1
  H  309  1  0.74104600  0.28417000  0.42264100  1
  H  310  1  0.78546200  0.26648900  0.38393400  1
  H  311  1  0.73620800  0.23622000  0.30920300  1
  H  312  1  0.68692900  0.20597300  0.38393200  1
  H  332  1  0.11895800  0.62481600  0.72507700  1
  H  333  1  0.06718300  0.59817700  0.74936500  1
  H  334  1  0.97660600  0.64160500  0.70210200  1
  H  335  1  0.02759600  0.67062900  0.67930100  1
  H  336  1  0.99568600  0.64158200  0.78296100  1
  H  337  1  0.94466400  0.67056500  0.80579100  1
  H  338  1  0.96801000  0.56332600  0.70108300  1
  H  339  1  0.96699900  0.50889700  0.70103400  1
  H  340  1  0.00544200  0.50889900  0.78396900  1
  H  341  1  0.00435800  0.56332600  0.78393200  1
  H  342  1  0.90514600  0.59819800  0.73563600  1
  H  343  1  0.85334900  0.62480900  0.75993400  1
  H  363  1  0.85348500  0.34753200  0.72493400  1
  H  364  1  0.90518000  0.37422600  0.74924400  1
  H  365  1  0.99590100  0.33075400  0.70214100  1
  H  366  1  0.94501000  0.30166900  0.67934000  1
  H  367  1  0.97648100  0.33072900  0.78284200  1
  H  368  1  0.02729900  0.30158400  0.80564700  1
  H  369  1  0.00447500  0.40906000  0.70109100  1
  H  370  1  0.00550600  0.46348700  0.70104600  1
  H  371  1  0.96696800  0.46349000  0.78395900  1
  H  372  1  0.96802400  0.40906300  0.78392200  1
  H  373  1  0.06731200  0.37418500  0.73582700  1
  H  374  1  0.11894000  0.34744100  0.76015000  1
  H  394  1  0.85342600  0.34750200  0.25979500  1
  H  395  1  0.90525900  0.37406600  0.23548300  1
  H  396  1  0.99572600  0.33082700  0.28297600  1
  H  397  1  0.94466600  0.30190800  0.30584300  1
  H  398  1  0.97685100  0.33091200  0.20184400  1
  H  399  1  0.02793900  0.30204500  0.17894000  1
  H  400  1  0.00443500  0.40899400  0.28388000  1
  H  401  1  0.00546600  0.46342100  0.28393300  1
  H  402  1  0.96703700  0.46343700  0.20099800  1
  H  403  1  0.96810200  0.40901000  0.20102900  1
  H  404  1  0.06727800  0.37404500  0.24945000  1
  H  405  1  0.11913600  0.34752800  0.22511500  1
  H  425  1  0.11898000  0.62485500  0.25988000  1
  H  426  1  0.06722000  0.59817900  0.23560800  1
  H  427  1  0.97662500  0.64150200  0.28293300  1
  H  428  1  0.02758700  0.67056500  0.30571600  1
  H  429  1  0.99585200  0.64154100  0.20209500  1
  H  430  1  0.94495300  0.67064300  0.17931200  1
  H  431  1  0.96802200  0.56326000  0.28390700  1
  H  432  1  0.96699200  0.50883300  0.28393700  1
  H  433  1  0.00547200  0.50885800  0.20101300  1
  H  434  1  0.00440700  0.56328500  0.20106400  1
  H  435  1  0.90516300  0.59818200  0.24931300  1
  H  436  1  0.85345700  0.62489600  0.22502700  1
  H  456  1  0.61894500  0.12496700  0.72499100  1
  H  457  1  0.56724700  0.09826500  0.74929500  1
  H  458  1  0.47654000  0.14161300  0.70208700  1
  H  459  1  0.52743000  0.17070100  0.67928200  1
  H  460  1  0.49594300  0.14164900  0.78287900  1
  H  461  1  0.44512300  0.17078700  0.80568900  1
  H  462  1  0.46797200  0.06336800  0.70108500  1
  H  463  1  0.46695000  0.00893900  0.70104000  1
  H  464  1  0.50548400  0.00894300  0.78395500  1
  H  465  1  0.50441900  0.06337000  0.78391600  1
  H  466  1  0.40512500  0.09829900  0.73577100  1
  H  467  1  0.35349700  0.12504200  0.76009000  1
  H  487  1  0.35347000  0.84757400  0.72512900  1
  H  488  1  0.40525400  0.87421200  0.74941200  1
  H  489  1  0.49581100  0.83087700  0.70206100  1
  H  490  1  0.44481400  0.80185600  0.67925800  1
  H  491  1  0.47675400  0.83094800  0.78303900  1
  H  492  1  0.52777300  0.80196300  0.80587800  1
  H  493  1  0.50442200  0.90910300  0.70107900  1
  H  494  1  0.50543500  0.96353200  0.70103200  1
  H  495  1  0.46700200  0.96352900  0.78396700  1
  H  496  1  0.46808200  0.90910300  0.78393200  1
  H  497  1  0.56727400  0.87414100  0.73555600  1
  H  498  1  0.61907700  0.84751900  0.75984600  1
  H  518  1  0.35345100  0.84764100  0.25993700  1
  H  519  1  0.40520500  0.87431200  0.23566000  1
  H  520  1  0.49581700  0.83085800  0.28287600  1
  H  521  1  0.44485300  0.80179700  0.30565600  1
  H  522  1  0.47656400  0.83086700  0.20211500  1
  H  523  1  0.52745800  0.80175100  0.17933700  1
  H  524  1  0.50441900  0.90916900  0.28390700  1
  H  525  1  0.50544400  0.96359700  0.28394200  1
  H  526  1  0.46697100  0.96357500  0.20101500  1
  H  527  1  0.46803600  0.90914800  0.20106400  1
  H  528  1  0.56727400  0.87425900  0.24928800  1
  H  529  1  0.61897000  0.84753500  0.22500700  1
  H  549  1  0.61900100  0.12489600  0.25984300  1
  H  550  1  0.56717600  0.09832800  0.23553200  1
  H  551  1  0.47668600  0.14165600  0.28294200  1
  H  552  1  0.52774500  0.17058700  0.30580000  1
  H  553  1  0.49559400  0.14159900  0.20191200  1
  H  554  1  0.44450800  0.17046800  0.17901200  1
  H  555  1  0.46800500  0.06343400  0.28388600  1
  H  556  1  0.46698300  0.00900700  0.28393700  1
  H  557  1  0.50540800  0.00899800  0.20100200  1
  H  558  1  0.50433700  0.06342300  0.20103300  1
  H  559  1  0.40514400  0.09832600  0.24939500  1
  H  560  1  0.35329200  0.12484400  0.22505400  1
  H  585  1  0.89441300  0.51670600  0.65232900  1
  H  586  1  0.84476300  0.54581700  0.67484600  1
  H  587  1  0.81542700  0.50710300  0.58418500  1
  H  588  1  0.76372200  0.53262400  0.60832400  1
  H  589  1  0.70863100  0.62039600  0.60825700  1
  H  590  1  0.65692000  0.64590900  0.58412300  1
  H  591  1  0.62772500  0.60747100  0.67489700  1
  H  592  1  0.57808800  0.63658700  0.65237600  1
  H  593  1  0.73022100  0.62444700  0.73788400  1
  H  594  1  0.73144400  0.62472500  0.78603300  1
  H  595  1  0.74101900  0.52843500  0.78602600  1
  H  596  1  0.74225300  0.52872400  0.73787700  1
  H  597  1  0.78561500  0.54643200  0.69911300  1
  H  598  1  0.73620500  0.57655400  0.62439500  1
  H  599  1  0.68685900  0.60674300  0.69911400  1
  H  624  1  0.07719800  0.13548300  0.65211000  1
  H  625  1  0.12648900  0.10605700  0.67451400  1
  H  626  1  0.15704600  0.14616900  0.58455200  1
  H  627  1  0.20848700  0.12047900  0.60872100  1
  H  628  1  0.26397400  0.03273600  0.60868200  1
  H  629  1  0.31542200  0.00705800  0.58451100  1
  H  630  1  0.34590500  0.04701700  0.67454100  1
  H  631  1  0.39519000  0.01759400  0.65213100  1
  H  632  1  0.26199700  0.03239400  0.73929500  1
  H  633  1  0.26481900  0.03335000  0.78724000  1
  H  634  1  0.20760900  0.11980200  0.78723700  1
  H  635  1  0.21041500  0.12074600  0.73929200  1
  H  636  1  0.18461600  0.10460700  0.69888900  1
  H  637  1  0.23621400  0.07658600  0.62449200  1
  H  638  1  0.28779000  0.04852900  0.69888800  1
  H  663  1  0.89502600  0.13576300  0.46325700  1
  H  664  1  0.84569200  0.10636500  0.44085700  1
  H  665  1  0.81540800  0.14617600  0.53097300  1
  H  666  1  0.76391000  0.12049500  0.50682400  1
  H  667  1  0.70846800  0.03276600  0.50687400  1
  H  668  1  0.65696600  0.00709000  0.53101800  1
  H  669  1  0.62678800  0.04669300  0.44081100  1
  H  670  1  0.57746700  0.01729300  0.46321600  1
  H  671  1  0.71277200  0.03171500  0.37635500  1
  H  672  1  0.70990900  0.03252400  0.32849800  1
  H  673  1  0.76253800  0.12063900  0.32850200  1
  H  674  1  0.75968500  0.12143700  0.37635900  1
  H  675  1  0.78744400  0.10498800  0.41654000  1
  H  676  1  0.73620900  0.07660000  0.49098600  1
  H  677  1  0.68502600  0.04815700  0.41653800  1
  H  702  1  0.07777400  0.51698000  0.46320800  1
  H  703  1  0.12731500  0.54622700  0.44078100  1
  H  704  1  0.15692700  0.50704100  0.53122900  1
  H  705  1  0.20857600  0.53264000  0.50712600  1
  H  706  1  0.26388200  0.62045400  0.50716700  1
  H  707  1  0.31553800  0.64605200  0.53126600  1
  H  708  1  0.34506400  0.60702600  0.44075000  1
  H  709  1  0.39459900  0.63627800  0.46317700  1
  H  710  1  0.24905400  0.62368900  0.37734100  1
  H  711  1  0.24941800  0.62388000  0.32959700  1
  H  712  1  0.22301300  0.52929200  0.32960300  1
  H  713  1  0.22336500  0.52949000  0.37734500  1
  H  714  1  0.18613100  0.54707300  0.41653400  1
  H  715  1  0.23621100  0.57657600  0.49116900  1
  H  716  1  0.28625700  0.60611600  0.41653200  1
  H  741  1  0.07833400  0.13691300  0.96279620  1
  H  742  1  0.12802200  0.10788200  0.94021720  1
  H  743  1  0.15698800  0.14588200  0.03117700  1
  H  744  1  0.20873500  0.12042000  0.00701900  1
  H  745  1  0.26365300  0.03266100  0.00697500  1
  H  746  1  0.31539100  0.00718800  0.03113600  1
  H  747  1  0.34446100  0.04538000  0.94025420  1
  H  748  1  0.39415500  0.01634600  0.96283120  1
  H  749  1  0.23833800  0.02852000  0.87751200  1
  H  750  1  0.23700000  0.02833300  0.82910100  1
  H  751  1  0.23544900  0.12483100  0.82909300  1
  H  752  1  0.23413000  0.12465300  0.87750600  1
  H  753  1  0.18732100  0.10716100  0.91605320  1
  H  754  1  0.23621400  0.07657000  0.99080717  1
  H  755  1  0.28514900  0.04601800  0.91605520  1
  H  780  1  0.89490200  0.51722100  0.96325420  1
  H  781  1  0.84555900  0.54661700  0.94086220  1
  H  782  1  0.81545000  0.50703900  0.03108700  1
  H  783  1  0.76392900  0.53271700  0.00695700  1
  H  784  1  0.70849500  0.62043900  0.00694300  1
  H  785  1  0.65697800  0.64612400  0.03107200  1
  H  786  1  0.62684000  0.60649200  0.94087020  1
  H  787  1  0.57749800  0.63589100  0.96326320  1
  H  788  1  0.71390400  0.62174300  0.87653700  1
  H  789  1  0.71109600  0.62103200  0.82871700  1
  H  790  1  0.76133400  0.53211500  0.82871500  1
  H  791  1  0.75851600  0.53139700  0.87653300  1
  H  792  1  0.78725800  0.54800100  0.91659520  1
  H  793  1  0.73620300  0.57656700  0.99106617  1
  H  794  1  0.68514800  0.60513300  0.91659520  1
  H  819  1  0.07776800  0.51695000  0.15217000  1
  H  820  1  0.12723900  0.54626100  0.17457300  1
  H  821  1  0.15690200  0.50709100  0.08412800  1
  H  822  1  0.20852100  0.53272200  0.10822500  1
  H  823  1  0.26386700  0.62052200  0.10826800  1
  H  824  1  0.31548300  0.64615600  0.08416700  1
  H  825  1  0.34523500  0.60681100  0.17453800  1
  H  826  1  0.39471800  0.63611900  0.15213700  1
  H  827  1  0.25198200  0.62319400  0.23820000  1
  H  828  1  0.25338400  0.62315700  0.28588200  1
  H  829  1  0.21905400  0.53000600  0.28588800  1
  H  830  1  0.22047000  0.52995800  0.23820600  1
  H  831  1  0.18589200  0.54731300  0.19878200  1
  H  832  1  0.23621400  0.57659200  0.12418800  1
  H  833  1  0.28657500  0.60583100  0.19878000  1
  H  858  1  0.89433800  0.13658400  0.15235500  1
  H  859  1  0.84465900  0.10752400  0.17489900  1
  H  860  1  0.81550100  0.14593700  0.08411000  1
  H  861  1  0.76376800  0.12045400  0.10825800  1
  H  862  1  0.70867800  0.03267000  0.10828700  1
  H  863  1  0.65695100  0.00718100  0.08413800  1
  H  864  1  0.62772500  0.04571900  0.17487700  1
  H  865  1  0.57803900  0.01665900  0.15233200  1
  H  866  1  0.73137500  0.02865000  0.23782800  1
  H  867  1  0.73269900  0.02839000  0.28606000  1
  H  868  1  0.73975200  0.12478300  0.28606900  1
  H  869  1  0.74104600  0.12453400  0.23783400  1
  H  870  1  0.78546200  0.10685300  0.19912700  1
  H  871  1  0.73620800  0.07658400  0.12439600  1
  H  872  1  0.68692900  0.04633700  0.19912500  1
  H  892  1  0.11895800  0.46518000  0.54027000  1
  H  893  1  0.06718300  0.43854100  0.56455800  1
  H  894  1  0.97660600  0.48196900  0.51729500  1
  H  895  1  0.02759600  0.51099300  0.49449400  1
  H  896  1  0.99568600  0.48194600  0.59815400  1
  H  897  1  0.94466400  0.51092900  0.62098400  1
  H  898  1  0.96801000  0.40369000  0.51627600  1
  H  899  1  0.96699900  0.34926100  0.51622700  1
  H  900  1  0.00544200  0.34926300  0.59916200  1
  H  901  1  0.00435800  0.40369000  0.59912500  1
  H  902  1  0.90514600  0.43856200  0.55082900  1
  H  903  1  0.85334900  0.46517300  0.57512700  1
  H  923  1  0.85348500  0.18789600  0.54012700  1
  H  924  1  0.90518000  0.21459000  0.56443700  1
  H  925  1  0.99590100  0.17111800  0.51733400  1
  H  926  1  0.94501000  0.14203300  0.49453300  1
  H  927  1  0.97648100  0.17109300  0.59803500  1
  H  928  1  0.02729900  0.14194800  0.62084000  1
  H  929  1  0.00447500  0.24942400  0.51628400  1
  H  930  1  0.00550600  0.30385100  0.51623900  1
  H  931  1  0.96696800  0.30385400  0.59915200  1
  H  932  1  0.96802400  0.24942700  0.59911500  1
  H  933  1  0.06731200  0.21454900  0.55102000  1
  H  934  1  0.11894000  0.18780500  0.57534300  1
  H  954  1  0.85342600  0.18786600  0.07498800  1
  H  955  1  0.90525900  0.21443000  0.05067600  1
  H  956  1  0.99572600  0.17119100  0.09816900  1
  H  957  1  0.94466600  0.14227200  0.12103600  1
  H  958  1  0.97685100  0.17127600  0.01703700  1
  H  959  1  0.02793900  0.14240900  0.99413317  1
  H  960  1  0.00443500  0.24935800  0.09907300  1
  H  961  1  0.00546600  0.30378500  0.09912600  1
  H  962  1  0.96703700  0.30380100  0.01619100  1
  H  963  1  0.96810200  0.24937400  0.01622200  1
  H  964  1  0.06727800  0.21440900  0.06464300  1
  H  965  1  0.11913600  0.18789200  0.04030800  1
  H  985  1  0.11898000  0.46521900  0.07507300  1
  H  986  1  0.06722000  0.43854300  0.05080100  1
  H  987  1  0.97662500  0.48186600  0.09812600  1
  H  988  1  0.02758700  0.51092900  0.12090900  1
  H  989  1  0.99585200  0.48190500  0.01728800  1
  H  990  1  0.94495300  0.51100700  0.99450517  1
  H  991  1  0.96802200  0.40362400  0.09910000  1
  H  992  1  0.96699200  0.34919700  0.09913000  1
  H  993  1  0.00547200  0.34922200  0.01620600  1
  H  994  1  0.00440700  0.40364900  0.01625700  1
  H  995  1  0.90516300  0.43854600  0.06450600  1
  H  996  1  0.85345700  0.46526000  0.04022000  1
  H  1016  1  0.61894500  0.96533080  0.54018400  1
  H  1017  1  0.56724700  0.93862880  0.56448800  1
  H  1018  1  0.47654000  0.98197680  0.51728000  1
  H  1019  1  0.52743000  0.01106500  0.49447500  1
  H  1020  1  0.49594300  0.98201280  0.59807200  1
  H  1021  1  0.44512300  0.01115100  0.62088200  1
  H  1022  1  0.46797200  0.90373180  0.51627800  1
  H  1023  1  0.46695000  0.84930300  0.51623300  1
  H  1024  1  0.50548400  0.84930700  0.59914800  1
  H  1025  1  0.50441900  0.90373380  0.59910900  1
  H  1026  1  0.40512500  0.93866280  0.55096400  1
  H  1027  1  0.35349700  0.96540580  0.57528300  1
  H  1047  1  0.35347000  0.68793800  0.54032200  1
  H  1048  1  0.40525400  0.71457600  0.56460500  1
  H  1049  1  0.49581100  0.67124100  0.51725400  1
  H  1050  1  0.44481400  0.64222000  0.49445100  1
  H  1051  1  0.47675400  0.67131200  0.59823200  1
  H  1052  1  0.52777300  0.64232700  0.62107100  1
  H  1053  1  0.50442200  0.74946700  0.51627200  1
  H  1054  1  0.50543500  0.80389600  0.51622500  1
  H  1055  1  0.46700200  0.80389300  0.59916000  1
  H  1056  1  0.46808200  0.74946700  0.59912500  1
  H  1057  1  0.56727400  0.71450500  0.55074900  1
  H  1058  1  0.61907700  0.68788300  0.57503900  1
  H  1078  1  0.35345100  0.68800500  0.07513000  1
  H  1079  1  0.40520500  0.71467600  0.05085300  1
  H  1080  1  0.49581700  0.67122200  0.09806900  1
  H  1081  1  0.44485300  0.64216100  0.12084900  1
  H  1082  1  0.47656400  0.67123100  0.01730800  1
  H  1083  1  0.52745800  0.64211500  0.99453017  1
  H  1084  1  0.50441900  0.74953300  0.09910000  1
  H  1085  1  0.50544400  0.80396100  0.09913500  1
  H  1086  1  0.46697100  0.80393900  0.01620800  1
  H  1087  1  0.46803600  0.74951200  0.01625700  1
  H  1088  1  0.56727400  0.71462300  0.06448100  1
  H  1089  1  0.61897000  0.68789900  0.04020000  1
  H  1109  1  0.61900100  0.96525980  0.07503600  1
  H  1110  1  0.56717600  0.93869180  0.05072500  1
  H  1111  1  0.47668600  0.98201980  0.09813500  1
  H  1112  1  0.52774500  0.01095100  0.12099300  1
  H  1113  1  0.49559400  0.98196280  0.01710500  1
  H  1114  1  0.44450800  0.01083200  0.99420517  1
  H  1115  1  0.46800500  0.90379780  0.09907900  1
  H  1116  1  0.46698300  0.84937100  0.09913000  1
  H  1117  1  0.50540800  0.84936200  0.01619500  1
  H  1118  1  0.50433700  0.90378680  0.01622600  1
  H  1119  1  0.40514400  0.93868980  0.06458800  1
  H  1120  1  0.35329200  0.96520780  0.04024700  1
  C  1  1  0.76664100  0.71887800  0.84397500  1
  C  2  1  0.76506500  0.71887400  0.87309500  1
  C  3  1  0.73623100  0.73622100  0.88807400  1
  C  4  1  0.70739300  0.75356500  0.87309300  1
  C  5  1  0.70579300  0.75354400  0.84397300  1
  C  6  1  0.73621000  0.73620300  0.83012400  1
  C  7  1  0.73623000  0.73622100  0.91752100  1
  C  8  1  0.74014600  0.70886200  0.93264300  1
  C  9  1  0.73963800  0.70889400  0.96157300  1
  C  10  1  0.73622400  0.73621500  0.97721000  1
  C  11  1  0.73280800  0.76353800  0.96157700  1
  C  12  1  0.73229700  0.76357600  0.93264600  1
  C  13  1  0.79791900  0.70202100  0.82933200  1
  C  14  1  0.83719300  0.69677100  0.84085200  1
  C  15  1  0.86755300  0.68000000  0.82693300  1
  C  16  1  0.86123100  0.66808200  0.80016400  1
  C  17  1  0.82219200  0.67386500  0.78843500  1
  C  18  1  0.79141200  0.68995400  0.80265500  1
  C  19  1  0.67450900  0.77040200  0.82932700  1
  C  20  1  0.68097500  0.78239500  0.80261800  1
  C  21  1  0.65019400  0.79848000  0.78839600  1
  C  22  1  0.61119800  0.80434400  0.80015700  1
  C  23  1  0.60491800  0.79251000  0.82696100  1
  C  24  1  0.63527400  0.77573300  0.84087900  1
  C  40  1  0.20516400  0.25285400  0.84406000  1
  C  41  1  0.20635500  0.25238200  0.87318200  1
  C  42  1  0.23620800  0.23620600  0.88847500  1
  C  43  1  0.26605800  0.22003100  0.87318000  1
  C  44  1  0.26725800  0.21956500  0.84405700  1
  C  45  1  0.23621400  0.23621500  0.83022000  1
  C  46  1  0.23621100  0.23620900  0.91821500  1
  C  47  1  0.22100300  0.26119400  0.93365600  1
  C  48  1  0.22044000  0.26098900  0.96258200  1
  C  49  1  0.23622000  0.23621300  0.97809600  1
  C  50  1  0.25200000  0.21143800  0.96258300  1
  C  51  1  0.25142800  0.21122500  0.93365800  1
  C  52  1  0.17380200  0.26961600  0.82936100  1
  C  53  1  0.13435300  0.27465100  0.84068700  1
  C  54  1  0.10416600  0.29162300  0.82680300  1
  C  55  1  0.11079100  0.30394500  0.80021300  1
  C  56  1  0.15000500  0.29837800  0.78866300  1
  C  57  1  0.18064100  0.28215000  0.80289100  1
  C  58  1  0.29862200  0.20280800  0.82935600  1
  C  59  1  0.29181400  0.19032500  0.80286200  1
  C  60  1  0.32244800  0.17409400  0.78863400  1
  C  61  1  0.36164000  0.16848600  0.80020200  1
  C  62  1  0.36824000  0.18076200  0.82680900  1
  C  63  1  0.33805700  0.19773200  0.84069700  1
  C  79  1  0.76714400  0.25299800  0.64103100  1
  C  80  1  0.76589700  0.25259600  0.61191000  1
  C  81  1  0.73623200  0.23621100  0.59665700  1
  C  82  1  0.70656200  0.21982800  0.61191000  1
  C  83  1  0.70529500  0.21944000  0.64103100  1
  C  84  1  0.73621400  0.23622500  0.65487300  1
  C  85  1  0.73623600  0.23620900  0.56695900  1
  C  86  1  0.75011200  0.26161600  0.55155200  1
  C  87  1  0.75067200  0.26141300  0.52262800  1
  C  88  1  0.73622500  0.23621800  0.50701600  1
  C  89  1  0.72178600  0.21101800  0.52262600  1
  C  90  1  0.72236700  0.21080400  0.55155000  1
  C  91  1  0.79848100  0.26979400  0.65571100  1
  C  92  1  0.83788000  0.27490400  0.64433100  1
  C  93  1  0.86808700  0.29186200  0.65820400  1
  C  94  1  0.86154200  0.30407900  0.68483900  1
  C  95  1  0.82237800  0.29845100  0.69644300  1
  C  96  1  0.79172000  0.28222700  0.68222900  1
  C  97  1  0.67395200  0.20264400  0.65571300  1
  C  98  1  0.68068100  0.19026700  0.68225600  1
  C  99  1  0.65002300  0.17404200  0.69646700  1
  C  100  1  0.61089200  0.16835600  0.68484100  1
  C  101  1  0.60437400  0.18052300  0.65818600  1
  C  102  1  0.63457900  0.19748100  0.64431100  1
  C  118  1  0.20558000  0.71910600  0.64120400  1
  C  119  1  0.20704000  0.71923400  0.61208900  1
  C  120  1  0.23619900  0.73622800  0.59703100  1
  C  121  1  0.26535700  0.75322000  0.61208900  1
  C  122  1  0.26682900  0.75334100  0.64120400  1
  C  123  1  0.23620800  0.73621900  0.65505400  1
  C  124  1  0.23619300  0.73622800  0.56751900  1
  C  125  1  0.22836800  0.70940900  0.55230100  1
  C  126  1  0.22848400  0.70947100  0.52338100  1
  C  127  1  0.23620800  0.73622100  0.50757600  1
  C  128  1  0.24392200  0.76297900  0.52337900  1
  C  129  1  0.24400500  0.76305000  0.55229700  1
  C  130  1  0.17426100  0.70227600  0.65583400  1
  C  131  1  0.13495600  0.69709200  0.64433900  1
  C  132  1  0.10465300  0.68022100  0.65820800  1
  C  133  1  0.11103600  0.66817800  0.68492300  1
  C  134  1  0.15010900  0.67389500  0.69662900  1
  C  135  1  0.18085000  0.69005700  0.68244400  1
  C  136  1  0.29815100  0.77017200  0.65583400  1
  C  137  1  0.29158800  0.78235200  0.68246300  1
  C  138  1  0.32234000  0.79849500  0.69665600  1
  C  139  1  0.36138300  0.80426600  0.68492900  1
  C  140  1  0.36774200  0.79227000  0.65819200  1
  C  141  1  0.33743500  0.77540400  0.64432100  1
  C  157  1  0.20595700  0.25371800  0.14084200  1
  C  158  1  0.20763400  0.25381200  0.11172200  1
  C  159  1  0.23623200  0.23622500  0.09678600  1
  C  160  1  0.26483100  0.21863900  0.11172200  1
  C  161  1  0.26649000  0.21872200  0.14084200  1
  C  162  1  0.23622000  0.23621500  0.15469200  1
  C  163  1  0.23622900  0.23622500  0.06737900  1
  C  164  1  0.23454900  0.26375300  0.05231100  1
  C  165  1  0.23506600  0.26370200  0.02337800  1
  C  166  1  0.23622300  0.23621800  0.00788900  1
  C  167  1  0.23738900  0.20873500  0.02338200  1
  C  168  1  0.23789700  0.20869200  0.05231500  1
  C  169  1  0.17471100  0.27062400  0.15548200  1
  C  170  1  0.13551900  0.27604500  0.14389500  1
  C  171  1  0.10514200  0.29277900  0.15783800  1
  C  172  1  0.11135100  0.30447600  0.18469800  1
  C  173  1  0.15031400  0.29854200  0.19648100  1
  C  174  1  0.18111000  0.28248700  0.18224600  1
  C  175  1  0.29772900  0.20181600  0.15548000  1
  C  176  1  0.29129700  0.18989300  0.18222000  1
  C  177  1  0.32209600  0.17384500  0.19645800  1
  C  178  1  0.36108900  0.16796600  0.18469600  1
  C  179  1  0.36733200  0.17972500  0.15786200  1
  C  180  1  0.33694900  0.19645000  0.14391500  1
  C  196  1  0.76708400  0.71937500  0.14110800  1
  C  197  1  0.76579900  0.71973300  0.11198900  1
  C  198  1  0.73620400  0.73620300  0.09676100  1
  C  199  1  0.70660700  0.75267100  0.11198900  1
  C  200  1  0.70532300  0.75302900  0.14110800  1
  C  201  1  0.73620300  0.73620300  0.15495300  1
  C  202  1  0.73620900  0.73620600  0.06708500  1
  C  203  1  0.74942100  0.71060900  0.05169900  1
  C  204  1  0.74999500  0.71081600  0.02277500  1
  C  205  1  0.73622200  0.73621200  0.00712600  1
  C  206  1  0.72245200  0.76160800  0.02277700  1
  C  207  1  0.72299800  0.76180700  0.05170100  1
  C  208  1  0.79841900  0.70256800  0.15578000  1
  C  209  1  0.83778300  0.69740500  0.14436300  1
  C  210  1  0.86799500  0.68044200  0.15822600  1
  C  211  1  0.86149700  0.66829400  0.18489100  1
  C  212  1  0.82237700  0.67398400  0.19653200  1
  C  213  1  0.79170300  0.69019400  0.18232400  1
  C  214  1  0.67398900  0.76983600  0.15577800  1
  C  215  1  0.68071400  0.78222300  0.18231600  1
  C  216  1  0.65004700  0.79844200  0.19652200  1
  C  217  1  0.61091600  0.80411800  0.18488700  1
  C  218  1  0.60440700  0.79194900  0.15823000  1
  C  219  1  0.63461900  0.77498600  0.14436700  1
  C  235  1  0.20552500  0.71917900  0.34376800  1
  C  236  1  0.20694800  0.71936200  0.37288300  1
  C  237  1  0.23622900  0.73621000  0.38798400  1
  C  238  1  0.26550700  0.75306100  0.37288100  1
  C  239  1  0.26691500  0.75325200  0.34376800  1
  C  240  1  0.23621700  0.73622100  0.32991700  1
  C  241  1  0.23623200  0.73621000  0.41753600  1
  C  242  1  0.22676500  0.70970400  0.43280300  1
  C  243  1  0.22657800  0.70982000  0.46172200  1
  C  244  1  0.23622000  0.73621700  0.47752700  1
  C  245  1  0.24587100  0.76261200  0.46171900  1
  C  246  1  0.24570300  0.76271900  0.43280100  1
  C  247  1  0.17420300  0.70235100  0.32913500  1
  C  248  1  0.13490400  0.69712900  0.34063200  1
  C  249  1  0.10463100  0.68022300  0.32677400  1
  C  250  1  0.11102400  0.66818900  0.30005700  1
  C  251  1  0.15007500  0.67394700  0.28834000  1
  C  252  1  0.18080400  0.69012100  0.30252900  1
  C  253  1  0.29823700  0.77007800  0.32913300  1
  C  254  1  0.29161200  0.78235100  0.30254700  1
  C  255  1  0.32233100  0.79853500  0.28836500  1
  C  256  1  0.36141400  0.80424000  0.30005900  1
  C  257  1  0.36783300  0.79215300  0.32675300  1
  C  258  1  0.33756100  0.77524700  0.34060900  1
  C  274  1  0.76659700  0.25359800  0.34397300  1
  C  275  1  0.76498100  0.25363400  0.37309400  1
  C  276  1  0.73620000  0.23622900  0.38806400  1
  C  277  1  0.70742200  0.21882400  0.37309400  1
  C  278  1  0.70581200  0.21885600  0.34397300  1
  C  279  1  0.73620700  0.23622500  0.33012500  1
  C  280  1  0.73619700  0.23622900  0.41749900  1
  C  281  1  0.73942800  0.26364800  0.43261000  1
  C  282  1  0.73892600  0.26360700  0.46154300  1
  C  283  1  0.73621000  0.23622200  0.47713400  1
  C  284  1  0.73346700  0.20884200  0.46154100  1
  C  285  1  0.73295900  0.20880800  0.43260600  1
  C  286  1  0.79788100  0.27046000  0.32932800  1
  C  287  1  0.83712600  0.27577100  0.34087200  1
  C  288  1  0.86750200  0.29251900  0.32694200  1
  C  289  1  0.86123700  0.30435000  0.30013500  1
  C  290  1  0.82222600  0.29850800  0.28838500  1
  C  291  1  0.79142900  0.28244400  0.30261300  1
  C  292  1  0.67453000  0.20199600  0.32932800  1
  C  293  1  0.68100200  0.18997800  0.30263000  1
  C  294  1  0.65020900  0.17390200  0.28840600  1
  C  295  1  0.61117900  0.16809900  0.30014100  1
  C  296  1  0.60489400  0.17996400  0.32693400  1
  C  297  1  0.63526700  0.19671900  0.34086000  1
  C  314  1  0.01699000  0.61704600  0.72783100  1
  C  315  1  0.98617800  0.56836200  0.74250900  1
  C  316  1  0.95532100  0.61703200  0.75721100  1
  C  317  1  0.96562900  0.63795800  0.77808400  1
  C  318  1  0.93505000  0.65484800  0.79173100  1
  C  319  1  0.89270500  0.65104200  0.78579300  1
  C  320  1  0.88303700  0.62948600  0.76494200  1
  C  321  1  0.91358100  0.61321900  0.75067900  1
  C  322  1  0.05873400  0.61322200  0.73434400  1
  C  323  1  0.08926700  0.62950900  0.72009200  1
  C  324  1  0.07958200  0.65109400  0.69926800  1
  C  325  1  0.03723200  0.65490500  0.69335000  1
  C  326  1  0.00666600  0.63800200  0.70698900  1
  C  327  1  0.97590600  0.55188700  0.71860900  1
  C  328  1  0.97576100  0.51971600  0.71867700  1
  C  329  1  0.98622500  0.50268000  0.74250100  1
  C  330  1  0.99668100  0.51971800  0.76632400  1
  C  331  1  0.99648800  0.55188900  0.76640000  1
  C  345  1  0.95543700  0.35535200  0.72778400  1
  C  346  1  0.98624900  0.40402500  0.74250700  1
  C  347  1  0.01700500  0.35532500  0.75724200  1
  C  348  1  0.00656500  0.33432800  0.77802400  1
  C  349  1  0.03704500  0.31735600  0.79167800  1
  C  350  1  0.07943200  0.32112600  0.78584800  1
  C  351  1  0.08922700  0.34276800  0.76509000  1
  C  352  1  0.05878000  0.35911700  0.75080700  1
  C  353  1  0.91367300  0.35917000  0.73424600  1
  C  354  1  0.88318700  0.34284300  0.71997900  1
  C  355  1  0.89293500  0.32122200  0.69919800  1
  C  356  1  0.93530800  0.31742200  0.69334000  1
  C  357  1  0.96582700  0.33436700  0.70698300  1
  C  358  1  0.99655500  0.42050000  0.71861300  1
  C  359  1  0.99672100  0.45267100  0.71868500  1
  C  360  1  0.98623100  0.46970900  0.74250100  1
  C  361  1  0.97574300  0.45267100  0.76632000  1
  C  362  1  0.97592100  0.42050000  0.76639400  1
  C  376  1  0.95540900  0.35527400  0.25711600  1
  C  377  1  0.98626200  0.40396100  0.24245400  1
  C  378  1  0.01714600  0.35530000  0.22776600  1
  C  379  1  0.00689500  0.33446900  0.20680500  1
  C  380  1  0.03750700  0.31766000  0.19311100  1
  C  381  1  0.07983900  0.32143600  0.19910900  1
  C  382  1  0.08945700  0.34287100  0.22007000  1
  C  383  1  0.05887500  0.35907800  0.23435800  1
  C  384  1  0.91367500  0.35907400  0.25055500  1
  C  385  1  0.88310700  0.34284300  0.26483500  1
  C  386  1  0.89273800  0.32134900  0.28574200  1
  C  387  1  0.93507600  0.31756200  0.29171600  1
  C  388  1  0.96567900  0.33440100  0.27803800  1
  C  389  1  0.99653400  0.42043300  0.26635600  1
  C  390  1  0.99669600  0.45260700  0.26629000  1
  C  391  1  0.98624300  0.46965200  0.24246900  1
  C  392  1  0.97579200  0.45261600  0.21864300  1
  C  393  1  0.97597100  0.42044300  0.21856300  1
  C  407  1  0.01702700  0.61698500  0.25718600  1
  C  408  1  0.98620600  0.56830900  0.24248300  1
  C  409  1  0.95540100  0.61700700  0.22779700  1
  C  410  1  0.96578200  0.63796300  0.20696900  1
  C  411  1  0.93526200  0.65491900  0.19334300  1
  C  412  1  0.89289600  0.65115100  0.19924000  1
  C  413  1  0.88315700  0.62956200  0.22005000  1
  C  414  1  0.91364700  0.61322900  0.23430200  1
  C  415  1  0.05876800  0.61320600  0.25064100  1
  C  416  1  0.08928800  0.62951400  0.26488800  1
  C  417  1  0.07958800  0.65107800  0.28572200  1
  C  418  1  0.03723800  0.65485000  0.29166400  1
  C  419  1  0.00668700  0.63791500  0.27804400  1
  C  420  1  0.97591200  0.55182800  0.26637500  1
  C  421  1  0.97576700  0.51965700  0.26629900  1
  C  422  1  0.98623400  0.50262600  0.24247500  1
  C  423  1  0.99669900  0.51967000  0.21865500  1
  C  424  1  0.99651300  0.55184200  0.21858800  1
  C  438  1  0.51699900  0.11708100  0.72778200  1
  C  439  1  0.48618200  0.06840600  0.74250300  1
  C  440  1  0.45542600  0.11711100  0.75723000  1
  C  441  1  0.46586000  0.13807600  0.77803700  1
  C  442  1  0.43538000  0.15505600  0.79168400  1
  C  443  1  0.39299600  0.15130500  0.78583400  1
  C  444  1  0.38320400  0.12969500  0.76505100  1
  C  445  1  0.41365400  0.11334600  0.75077000  1
  C  446  1  0.55875500  0.11330500  0.73428100  1
  C  447  1  0.58924500  0.12962600  0.72001000  1
  C  448  1  0.57949900  0.15121100  0.69919800  1
  C  449  1  0.53713000  0.15497400  0.69330700  1
  C  450  1  0.50661300  0.13802300  0.70694600  1
  C  451  1  0.47587200  0.05193100  0.71861100  1
  C  452  1  0.47570400  0.01975800  0.71868500  1
  C  453  1  0.48620300  0.00272200  0.74250100  1
  C  454  1  0.49667400  0.01976000  0.76632200  1
  C  455  1  0.49649700  0.05193300  0.76639400  1
  C  469  1  0.45543500  0.85538400  0.72783700  1
  C  470  1  0.48626700  0.90406600  0.74250900  1
  C  471  1  0.51711200  0.85538600  0.75719900  1
  C  472  1  0.50680900  0.83451100  0.77811300  1
  C  473  1  0.53738400  0.81762200  0.79176000  1
  C  474  1  0.57972600  0.82138000  0.78578200  1
  C  475  1  0.58938900  0.84288000  0.76488500  1
  C  476  1  0.55884400  0.85914400  0.75062000  1
  C  477  1  0.41369700  0.85917800  0.73438100  1
  C  478  1  0.38315800  0.84290000  0.72012200  1
  C  479  1  0.39283700  0.82134600  0.69927400  1
  C  480  1  0.43518400  0.81756100  0.69332500  1
  C  481  1  0.46575000  0.83446600  0.70696200  1
  C  482  1  0.49653700  0.92054000  0.71860900  1
  C  483  1  0.49669900  0.95271300  0.71868100  1
  C  484  1  0.48622400  0.96975000  0.74250100  1
  C  485  1  0.47576800  0.95271200  0.76632400  1
  C  486  1  0.47597300  0.92054100  0.76640400  1
  C  500  1  0.45540700  0.85544800  0.25718800  1
  C  501  1  0.48623400  0.90412300  0.24248500  1
  C  502  1  0.51702900  0.85542800  0.22778700  1
  C  503  1  0.50664100  0.83446300  0.20696700  1
  C  504  1  0.53715500  0.81750200  0.19333900  1
  C  505  1  0.57952400  0.82127000  0.19923200  1
  C  506  1  0.58927000  0.84287700  0.22002500  1
  C  507  1  0.55878300  0.85920600  0.23428600  1
  C  508  1  0.41366300  0.85926600  0.25067800  1
  C  509  1  0.38314300  0.84296100  0.26492700  1
  C  510  1  0.39284900  0.82135400  0.28572600  1
  C  511  1  0.43520200  0.81754600  0.29163600  1
  C  512  1  0.46575300  0.83448900  0.27802200  1
  C  513  1  0.49652700  0.92060300  0.26637700  1
  C  514  1  0.49669300  0.95277500  0.26629700  1
  C  515  1  0.48620900  0.96980700  0.24247700  1
  C  516  1  0.47573800  0.95276200  0.21866000  1
  C  517  1  0.47592100  0.92059100  0.21859000  1
  C  531  1  0.51701400  0.11715600  0.25712600  1
  C  532  1  0.48616900  0.06847200  0.24245900  1
  C  533  1  0.45528500  0.11712700  0.22776000  1
  C  534  1  0.46554500  0.13798700  0.20682400  1
  C  535  1  0.43493300  0.15480500  0.19313600  1
  C  536  1  0.39259500  0.15099700  0.19910300  1
  C  537  1  0.38297400  0.12951900  0.22002700  1
  C  538  1  0.41355000  0.11331100  0.23431700  1
  C  539  1  0.55875200  0.11333900  0.25058600  1
  C  540  1  0.58931900  0.12957100  0.26486500  1
  C  541  1  0.57968000  0.15109300  0.28575100  1
  C  542  1  0.53733900  0.15489700  0.29170500  1
  C  543  1  0.50673900  0.13806200  0.27802400  1
  C  544  1  0.47589400  0.05199500  0.26635800  1
  C  545  1  0.47572600  0.01982400  0.26629000  1
  C  546  1  0.48619700  0.00278100  0.24247100  1
  C  547  1  0.49665300  0.01981700  0.21864700  1
  C  548  1  0.49646600  0.05199000  0.21856700  1
  C  561  1  0.76664100  0.55924200  0.65916800  1
  C  562  1  0.76506500  0.55923800  0.68828800  1
  C  563  1  0.73623100  0.57658500  0.70326700  1
  C  564  1  0.70739300  0.59392900  0.68828600  1
  C  565  1  0.70579300  0.59390800  0.65916600  1
  C  566  1  0.73621000  0.57656700  0.64531700  1
  C  567  1  0.73623000  0.57658500  0.73271400  1
  C  568  1  0.74014600  0.54922600  0.74783600  1
  C  569  1  0.73963800  0.54925800  0.77676600  1
  C  570  1  0.73622400  0.57657900  0.79240300  1
  C  571  1  0.73280800  0.60390200  0.77677000  1
  C  572  1  0.73229700  0.60394000  0.74783900  1
  C  573  1  0.79791900  0.54238500  0.64452500  1
  C  574  1  0.83719300  0.53713500  0.65604500  1
  C  575  1  0.86755300  0.52036400  0.64212600  1
  C  576  1  0.86123100  0.50844600  0.61535700  1
  C  577  1  0.82219200  0.51422900  0.60362800  1
  C  578  1  0.79141200  0.53031800  0.61784800  1
  C  579  1  0.67450900  0.61076600  0.64452000  1
  C  580  1  0.68097500  0.62275900  0.61781100  1
  C  581  1  0.65019400  0.63884400  0.60358900  1
  C  582  1  0.61119800  0.64470800  0.61535000  1
  C  583  1  0.60491800  0.63287400  0.64215400  1
  C  584  1  0.63527400  0.61609700  0.65607200  1
  C  600  1  0.20516400  0.09321800  0.65925300  1
  C  601  1  0.20635500  0.09274600  0.68837500  1
  C  602  1  0.23620800  0.07657000  0.70366800  1
  C  603  1  0.26605800  0.06039500  0.68837300  1
  C  604  1  0.26725800  0.05992900  0.65925000  1
  C  605  1  0.23621400  0.07657900  0.64541300  1
  C  606  1  0.23621100  0.07657300  0.73340800  1
  C  607  1  0.22100300  0.10155800  0.74884900  1
  C  608  1  0.22044000  0.10135300  0.77777500  1
  C  609  1  0.23622000  0.07657700  0.79328900  1
  C  610  1  0.25200000  0.05180200  0.77777600  1
  C  611  1  0.25142800  0.05158900  0.74885100  1
  C  612  1  0.17380200  0.10998000  0.64455400  1
  C  613  1  0.13435300  0.11501500  0.65588000  1
  C  614  1  0.10416600  0.13198700  0.64199600  1
  C  615  1  0.11079100  0.14430900  0.61540600  1
  C  616  1  0.15000500  0.13874200  0.60385600  1
  C  617  1  0.18064100  0.12251400  0.61808400  1
  C  618  1  0.29862200  0.04317200  0.64454900  1
  C  619  1  0.29181400  0.03068900  0.61805500  1
  C  620  1  0.32244800  0.01445800  0.60382700  1
  C  621  1  0.36164000  0.00885000  0.61539500  1
  C  622  1  0.36824000  0.02112600  0.64200200  1
  C  623  1  0.33805700  0.03809600  0.65589000  1
  C  639  1  0.76714400  0.09336200  0.45622400  1
  C  640  1  0.76589700  0.09296000  0.42710300  1
  C  641  1  0.73623200  0.07657500  0.41185000  1
  C  642  1  0.70656200  0.06019200  0.42710300  1
  C  643  1  0.70529500  0.05980400  0.45622400  1
  C  644  1  0.73621400  0.07658900  0.47006600  1
  C  645  1  0.73623600  0.07657300  0.38215200  1
  C  646  1  0.75011200  0.10198000  0.36674500  1
  C  647  1  0.75067200  0.10177700  0.33782100  1
  C  648  1  0.73622500  0.07658200  0.32220900  1
  C  649  1  0.72178600  0.05138200  0.33781900  1
  C  650  1  0.72236700  0.05116800  0.36674300  1
  C  651  1  0.79848100  0.11015800  0.47090400  1
  C  652  1  0.83788000  0.11526800  0.45952400  1
  C  653  1  0.86808700  0.13222600  0.47339700  1
  C  654  1  0.86154200  0.14444300  0.50003200  1
  C  655  1  0.82237800  0.13881500  0.51163600  1
  C  656  1  0.79172000  0.12259100  0.49742200  1
  C  657  1  0.67395200  0.04300800  0.47090600  1
  C  658  1  0.68068100  0.03063100  0.49744900  1
  C  659  1  0.65002300  0.01440600  0.51166000  1
  C  660  1  0.61089200  0.00872000  0.50003400  1
  C  661  1  0.60437400  0.02088700  0.47337900  1
  C  662  1  0.63457900  0.03784500  0.45950400  1
  C  678  1  0.20558000  0.55947000  0.45639700  1
  C  679  1  0.20704000  0.55959800  0.42728200  1
  C  680  1  0.23619900  0.57659200  0.41222400  1
  C  681  1  0.26535700  0.59358400  0.42728200  1
  C  682  1  0.26682900  0.59370500  0.45639700  1
  C  683  1  0.23620800  0.57658300  0.47024700  1
  C  684  1  0.23619300  0.57659200  0.38271200  1
  C  685  1  0.22836800  0.54977300  0.36749400  1
  C  686  1  0.22848400  0.54983500  0.33857400  1
  C  687  1  0.23620800  0.57658500  0.32276900  1
  C  688  1  0.24392200  0.60334300  0.33857200  1
  C  689  1  0.24400500  0.60341400  0.36749000  1
  C  690  1  0.17426100  0.54264000  0.47102700  1
  C  691  1  0.13495600  0.53745600  0.45953200  1
  C  692  1  0.10465300  0.52058500  0.47340100  1
  C  693  1  0.11103600  0.50854200  0.50011600  1
  C  694  1  0.15010900  0.51425900  0.51182200  1
  C  695  1  0.18085000  0.53042100  0.49763700  1
  C  696  1  0.29815100  0.61053600  0.47102700  1
  C  697  1  0.29158800  0.62271600  0.49765600  1
  C  698  1  0.32234000  0.63885900  0.51184900  1
  C  699  1  0.36138300  0.64463000  0.50012200  1
  C  700  1  0.36774200  0.63263400  0.47338500  1
  C  701  1  0.33743500  0.61576800  0.45951400  1
  C  717  1  0.20595700  0.09408200  0.95603520  1
  C  718  1  0.20763400  0.09417600  0.92691520  1
  C  719  1  0.23623200  0.07658900  0.91197920  1
  C  720  1  0.26483100  0.05900300  0.92691520  1
  C  721  1  0.26649000  0.05908600  0.95603520  1
  C  722  1  0.23622000  0.07657900  0.96988520  1
  C  723  1  0.23622900  0.07658900  0.88257200  1
  C  724  1  0.23454900  0.10411700  0.86750400  1
  C  725  1  0.23506600  0.10406600  0.83857100  1
  C  726  1  0.23622300  0.07658200  0.82308200  1
  C  727  1  0.23738900  0.04909900  0.83857500  1
  C  728  1  0.23789700  0.04905600  0.86750800  1
  C  729  1  0.17471100  0.11098800  0.97067520  1
  C  730  1  0.13551900  0.11640900  0.95908820  1
  C  731  1  0.10514200  0.13314300  0.97303120  1
  C  732  1  0.11135100  0.14484000  0.99989117  1
  C  733  1  0.15031400  0.13890600  0.01167400  1
  C  734  1  0.18111000  0.12285100  0.99743917  1
  C  735  1  0.29772900  0.04218000  0.97067320  1
  C  736  1  0.29129700  0.03025700  0.99741317  1
  C  737  1  0.32209600  0.01420900  0.01165100  1
  C  738  1  0.36108900  0.00833000  0.99988917  1
  C  739  1  0.36733200  0.02008900  0.97305520  1
  C  740  1  0.33694900  0.03681400  0.95910820  1
  C  756  1  0.76708400  0.55973900  0.95630120  1
  C  757  1  0.76579900  0.56009700  0.92718220  1
  C  758  1  0.73620400  0.57656700  0.91195420  1
  C  759  1  0.70660700  0.59303500  0.92718220  1
  C  760  1  0.70532300  0.59339300  0.95630120  1
  C  761  1  0.73620300  0.57656700  0.97014620  1
  C  762  1  0.73620900  0.57657000  0.88227800  1
  C  763  1  0.74942100  0.55097300  0.86689200  1
  C  764  1  0.74999500  0.55118000  0.83796800  1
  C  765  1  0.73622200  0.57657600  0.82231900  1
  C  766  1  0.72245200  0.60197200  0.83797000  1
  C  767  1  0.72299800  0.60217100  0.86689400  1
  C  768  1  0.79841900  0.54293200  0.97097320  1
  C  769  1  0.83778300  0.53776900  0.95955620  1
  C  770  1  0.86799500  0.52080600  0.97341920  1
  C  771  1  0.86149700  0.50865800  0.00008400  1
  C  772  1  0.82237700  0.51434800  0.01172500  1
  C  773  1  0.79170300  0.53055800  0.99751717  1
  C  774  1  0.67398900  0.61020000  0.97097120  1
  C  775  1  0.68071400  0.62258700  0.99750917  1
  C  776  1  0.65004700  0.63880600  0.01171500  1
  C  777  1  0.61091600  0.64448200  0.00008000  1
  C  778  1  0.60440700  0.63231300  0.97342320  1
  C  779  1  0.63461900  0.61535000  0.95956020  1
  C  795  1  0.20552500  0.55954300  0.15896100  1
  C  796  1  0.20694800  0.55972600  0.18807600  1
  C  797  1  0.23622900  0.57657400  0.20317700  1
  C  798  1  0.26550700  0.59342500  0.18807400  1
  C  799  1  0.26691500  0.59361600  0.15896100  1
  C  800  1  0.23621700  0.57658500  0.14511000  1
  C  801  1  0.23623200  0.57657400  0.23272900  1
  C  802  1  0.22676500  0.55006800  0.24799600  1
  C  803  1  0.22657800  0.55018400  0.27691500  1
  C  804  1  0.23622000  0.57658100  0.29272000  1
  C  805  1  0.24587100  0.60297600  0.27691200  1
  C  806  1  0.24570300  0.60308300  0.24799400  1
  C  807  1  0.17420300  0.54271500  0.14432800  1
  C  808  1  0.13490400  0.53749300  0.15582500  1
  C  809  1  0.10463100  0.52058700  0.14196700  1
  C  810  1  0.11102400  0.50855300  0.11525000  1
  C  811  1  0.15007500  0.51431100  0.10353300  1
  C  812  1  0.18080400  0.53048500  0.11772200  1
  C  813  1  0.29823700  0.61044200  0.14432600  1
  C  814  1  0.29161200  0.62271500  0.11774000  1
  C  815  1  0.32233100  0.63889900  0.10355800  1
  C  816  1  0.36141400  0.64460400  0.11525200  1
  C  817  1  0.36783300  0.63251700  0.14194600  1
  C  818  1  0.33756100  0.61561100  0.15580200  1
  C  834  1  0.76659700  0.09396200  0.15916600  1
  C  835  1  0.76498100  0.09399800  0.18828700  1
  C  836  1  0.73620000  0.07659300  0.20325700  1
  C  837  1  0.70742200  0.05918800  0.18828700  1
  C  838  1  0.70581200  0.05922000  0.15916600  1
  C  839  1  0.73620700  0.07658900  0.14531800  1
  C  840  1  0.73619700  0.07659300  0.23269200  1
  C  841  1  0.73942800  0.10401200  0.24780300  1
  C  842  1  0.73892600  0.10397100  0.27673600  1
  C  843  1  0.73621000  0.07658600  0.29232700  1
  C  844  1  0.73346700  0.04920600  0.27673400  1
  C  845  1  0.73295900  0.04917200  0.24779900  1
  C  846  1  0.79788100  0.11082400  0.14452100  1
  C  847  1  0.83712600  0.11613500  0.15606500  1
  C  848  1  0.86750200  0.13288300  0.14213500  1
  C  849  1  0.86123700  0.14471400  0.11532800  1
  C  850  1  0.82222600  0.13887200  0.10357800  1
  C  851  1  0.79142900  0.12280800  0.11780600  1
  C  852  1  0.67453000  0.04236000  0.14452100  1
  C  853  1  0.68100200  0.03034200  0.11782300  1
  C  854  1  0.65020900  0.01426600  0.10359900  1
  C  855  1  0.61117900  0.00846300  0.11533400  1
  C  856  1  0.60489400  0.02032800  0.14212700  1
  C  857  1  0.63526700  0.03708300  0.15605300  1
  C  874  1  0.01699000  0.45741000  0.54302400  1
  C  875  1  0.98617800  0.40872600  0.55770200  1
  C  876  1  0.95532100  0.45739600  0.57240400  1
  C  877  1  0.96562900  0.47832200  0.59327700  1
  C  878  1  0.93505000  0.49521200  0.60692400  1
  C  879  1  0.89270500  0.49140600  0.60098600  1
  C  880  1  0.88303700  0.46985000  0.58013500  1
  C  881  1  0.91358100  0.45358300  0.56587200  1
  C  882  1  0.05873400  0.45358600  0.54953700  1
  C  883  1  0.08926700  0.46987300  0.53528500  1
  C  884  1  0.07958200  0.49145800  0.51446100  1
  C  885  1  0.03723200  0.49526900  0.50854300  1
  C  886  1  0.00666600  0.47836600  0.52218200  1
  C  887  1  0.97590600  0.39225100  0.53380200  1
  C  888  1  0.97576100  0.36008000  0.53387000  1
  C  889  1  0.98622500  0.34304400  0.55769400  1
  C  890  1  0.99668100  0.36008200  0.58151700  1
  C  891  1  0.99648800  0.39225300  0.58159300  1
  C  905  1  0.95543700  0.19571600  0.54297700  1
  C  906  1  0.98624900  0.24438900  0.55770000  1
  C  907  1  0.01700500  0.19568900  0.57243500  1
  C  908  1  0.00656500  0.17469200  0.59321700  1
  C  909  1  0.03704500  0.15772000  0.60687100  1
  C  910  1  0.07943200  0.16149000  0.60104100  1
  C  911  1  0.08922700  0.18313200  0.58028300  1
  C  912  1  0.05878000  0.19948100  0.56600000  1
  C  913  1  0.91367300  0.19953400  0.54943900  1
  C  914  1  0.88318700  0.18320700  0.53517200  1
  C  915  1  0.89293500  0.16158600  0.51439100  1
  C  916  1  0.93530800  0.15778600  0.50853300  1
  C  917  1  0.96582700  0.17473100  0.52217600  1
  C  918  1  0.99655500  0.26086400  0.53380600  1
  C  919  1  0.99672100  0.29303500  0.53387800  1
  C  920  1  0.98623100  0.31007300  0.55769400  1
  C  921  1  0.97574300  0.29303500  0.58151300  1
  C  922  1  0.97592100  0.26086400  0.58158700  1
  C  936  1  0.95540900  0.19563800  0.07230900  1
  C  937  1  0.98626200  0.24432500  0.05764700  1
  C  938  1  0.01714600  0.19566400  0.04295900  1
  C  939  1  0.00689500  0.17483300  0.02199800  1
  C  940  1  0.03750700  0.15802400  0.00830400  1
  C  941  1  0.07983900  0.16180000  0.01430200  1
  C  942  1  0.08945700  0.18323500  0.03526300  1
  C  943  1  0.05887500  0.19944200  0.04955100  1
  C  944  1  0.91367500  0.19943800  0.06574800  1
  C  945  1  0.88310700  0.18320700  0.08002800  1
  C  946  1  0.89273800  0.16171300  0.10093500  1
  C  947  1  0.93507600  0.15792600  0.10690900  1
  C  948  1  0.96567900  0.17476500  0.09323100  1
  C  949  1  0.99653400  0.26079700  0.08154900  1
  C  950  1  0.99669600  0.29297100  0.08148300  1
  C  951  1  0.98624300  0.31001600  0.05766200  1
  C  952  1  0.97579200  0.29298000  0.03383600  1
  C  953  1  0.97597100  0.26080700  0.03375600  1
  C  967  1  0.01702700  0.45734900  0.07237900  1
  C  968  1  0.98620600  0.40867300  0.05767600  1
  C  969  1  0.95540100  0.45737100  0.04299000  1
  C  970  1  0.96578200  0.47832700  0.02216200  1
  C  971  1  0.93526200  0.49528300  0.00853600  1
  C  972  1  0.89289600  0.49151500  0.01443300  1
  C  973  1  0.88315700  0.46992600  0.03524300  1
  C  974  1  0.91364700  0.45359300  0.04949500  1
  C  975  1  0.05876800  0.45357000  0.06583400  1
  C  976  1  0.08928800  0.46987800  0.08008100  1
  C  977  1  0.07958800  0.49144200  0.10091500  1
  C  978  1  0.03723800  0.49521400  0.10685700  1
  C  979  1  0.00668700  0.47827900  0.09323700  1
  C  980  1  0.97591200  0.39219200  0.08156800  1
  C  981  1  0.97576700  0.36002100  0.08149200  1
  C  982  1  0.98623400  0.34299000  0.05766800  1
  C  983  1  0.99669900  0.36003400  0.03384800  1
  C  984  1  0.99651300  0.39220600  0.03378100  1
  C  998  1  0.51699900  0.95744480  0.54297500  1
  C  999  1  0.48618200  0.90876980  0.55769600  1
  C  1000  1  0.45542600  0.95747480  0.57242300  1
  C  1001  1  0.46586000  0.97843980  0.59323000  1
  C  1002  1  0.43538000  0.99541979  0.60687700  1
  C  1003  1  0.39299600  0.99166879  0.60102700  1
  C  1004  1  0.38320400  0.97005880  0.58024400  1
  C  1005  1  0.41365400  0.95370980  0.56596300  1
  C  1006  1  0.55875500  0.95366880  0.54947400  1
  C  1007  1  0.58924500  0.96998980  0.53520300  1
  C  1008  1  0.57949900  0.99157479  0.51439100  1
  C  1009  1  0.53713000  0.99533779  0.50850000  1
  C  1010  1  0.50661300  0.97838680  0.52213900  1
  C  1011  1  0.47587200  0.89229500  0.53380400  1
  C  1012  1  0.47570400  0.86012200  0.53387800  1
  C  1013  1  0.48620300  0.84308600  0.55769400  1
  C  1014  1  0.49667400  0.86012400  0.58151500  1
  C  1015  1  0.49649700  0.89229700  0.58158700  1
  C  1029  1  0.45543500  0.69574800  0.54303000  1
  C  1030  1  0.48626700  0.74443000  0.55770200  1
  C  1031  1  0.51711200  0.69575000  0.57239200  1
  C  1032  1  0.50680900  0.67487500  0.59330600  1
  C  1033  1  0.53738400  0.65798600  0.60695300  1
  C  1034  1  0.57972600  0.66174400  0.60097500  1
  C  1035  1  0.58938900  0.68324400  0.58007800  1
  C  1036  1  0.55884400  0.69950800  0.56581300  1
  C  1037  1  0.41369700  0.69954200  0.54957400  1
  C  1038  1  0.38315800  0.68326400  0.53531500  1
  C  1039  1  0.39283700  0.66171000  0.51446700  1
  C  1040  1  0.43518400  0.65792500  0.50851800  1
  C  1041  1  0.46575000  0.67483000  0.52215500  1
  C  1042  1  0.49653700  0.76090400  0.53380200  1
  C  1043  1  0.49669900  0.79307700  0.53387400  1
  C  1044  1  0.48622400  0.81011400  0.55769400  1
  C  1045  1  0.47576800  0.79307600  0.58151700  1
  C  1046  1  0.47597300  0.76090500  0.58159700  1
  C  1060  1  0.45540700  0.69581200  0.07238100  1
  C  1061  1  0.48623400  0.74448700  0.05767800  1
  C  1062  1  0.51702900  0.69579200  0.04298000  1
  C  1063  1  0.50664100  0.67482700  0.02216000  1
  C  1064  1  0.53715500  0.65786600  0.00853200  1
  C  1065  1  0.57952400  0.66163400  0.01442500  1
  C  1066  1  0.58927000  0.68324100  0.03521800  1
  C  1067  1  0.55878300  0.69957000  0.04947900  1
  C  1068  1  0.41366300  0.69963000  0.06587100  1
  C  1069  1  0.38314300  0.68332500  0.08012000  1
  C  1070  1  0.39284900  0.66171800  0.10091900  1
  C  1071  1  0.43520200  0.65791000  0.10682900  1
  C  1072  1  0.46575300  0.67485300  0.09321500  1
  C  1073  1  0.49652700  0.76096700  0.08157000  1
  C  1074  1  0.49669300  0.79313900  0.08149000  1
  C  1075  1  0.48620900  0.81017100  0.05767000  1
  C  1076  1  0.47573800  0.79312600  0.03385300  1
  C  1077  1  0.47592100  0.76095500  0.03378300  1
  C  1091  1  0.51701400  0.95751980  0.07231900  1
  C  1092  1  0.48616900  0.90883580  0.05765200  1
  C  1093  1  0.45528500  0.95749080  0.04295300  1
  C  1094  1  0.46554500  0.97835080  0.02201700  1
  C  1095  1  0.43493300  0.99516879  0.00832900  1
  C  1096  1  0.39259500  0.99136079  0.01429600  1
  C  1097  1  0.38297400  0.96988280  0.03522000  1
  C  1098  1  0.41355000  0.95367480  0.04951000  1
  C  1099  1  0.55875200  0.95370280  0.06577900  1
  C  1100  1  0.58931900  0.96993480  0.08005800  1
  C  1101  1  0.57968000  0.99145679  0.10094400  1
  C  1102  1  0.53733900  0.99526079  0.10689800  1
  C  1103  1  0.50673900  0.97842580  0.09321700  1
  C  1104  1  0.47589400  0.89235900  0.08155100  1
  C  1105  1  0.47572600  0.86018800  0.08148300  1
  C  1106  1  0.48619700  0.84314500  0.05766400  1
  C  1107  1  0.49665300  0.86018100  0.03384000  1
  C  1108  1  0.49646600  0.89235400  0.03376000  1
  N  313  1  0.98616000  0.60083400  0.74251500  1
  N  344  1  0.98624000  0.37155500  0.74250700  1
  N  375  1  0.98627400  0.37148400  0.24244600  1
  N  406  1  0.98620200  0.60077700  0.24249300  1
  N  437  1  0.48619400  0.10087600  0.74250100  1
  N  468  1  0.48627300  0.87159500  0.74251500  1
  N  499  1  0.48623400  0.87165300  0.24249100  1
  N  530  1  0.48615400  0.10094600  0.24245200  1
  N  873  1  0.98616000  0.44119800  0.55770800  1
  N  904  1  0.98624000  0.21191900  0.55770000  1
  N  935  1  0.98627400  0.21184800  0.05763900  1
  N  966  1  0.98620200  0.44114100  0.05768600  1
  N  997  1  0.48619400  0.94123980  0.55769400  1
  N  1028  1  0.48627300  0.71195900  0.55770800  1
  N  1059  1  0.48623400  0.71201700  0.05768400  1
  N  1090  1  0.48615400  0.94130980  0.05764500  1
