# generated using pymatgen
data_H14C16N3
_symmetry_space_group_name_H-M   'P 1'
_cell_length_a   36.97570000
_cell_length_b   60.72315000
_cell_length_c   60.72310000
_cell_angle_alpha   119.99991829
_cell_angle_beta   90.00000000
_cell_angle_gamma   90.00000000
_symmetry_Int_Tables_number   1
_chemical_formula_structural   H14C16N3
_chemical_formula_sum   'H672 C768 N144'
_cell_volume   118074.36565105
_cell_formula_units_Z   48
loop_
 _symmetry_equiv_pos_site_id
 _symmetry_equiv_pos_as_xyz
  1  'x, y, z'
loop_
 _atom_site_type_symbol
 _atom_site_label
 _atom_site_symmetry_multiplicity
 _atom_site_fract_x
 _atom_site_fract_y
 _atom_site_fract_z
 _atom_site_occupancy
  H  4  1  0.82070100  0.98840900  0.31778000  1
  H  7  1  0.74973100  0.98847600  0.52030900  1
  H  10  1  0.71342200  0.99492700  0.33275800  1
  H  13  1  0.94443900  0.96698900  0.64126000  1
  H  15  1  0.44263300  0.97922500  0.32749000  1
  H  17  1  0.89229100  0.99060500  0.35448600  1
  H  18  1  0.88891700  0.98606000  0.27405700  1
  H  21  1  0.40386200  0.97831200  0.64551300  1
  H  22  1  0.56712900  0.99049500  0.59935100  1
  H  23  1  0.77912000  0.98893900  0.32772900  1
  H  24  1  0.90409100  0.98185600  0.65803400  1
  H  25  1  0.44915900  0.98954500  0.65004800  1
  H  26  1  0.52398200  0.99616600  0.60674300  1
  H  41  1  0.90953600  0.97150600  0.57850100  1
  H  42  1  0.46230300  0.96787000  0.26710700  1
  H  45  1  0.43564200  0.96308000  0.62125800  1
  H  46  1  0.90328700  0.96135300  0.62509100  1
  H  60  1  0.59660200  0.95515900  0.52812300  1
  H  64  1  0.73456800  0.95163000  0.36244800  1
  H  65  1  0.91139300  0.96097500  0.29170200  1
  H  66  1  0.42256600  0.95744100  0.56873000  1
  H  68  1  0.58095400  0.00112500  0.39471700  1
  H  69  1  0.47894100  0.00354100  0.26694800  1
  H  70  1  0.74428500  0.00865000  0.58551800  1
  H  71  1  0.65032100  0.01009400  0.60138900  1
  H  72  1  0.92714400  0.00496400  0.27814300  1
  H  74  1  0.59827600  0.02452400  0.36991200  1
  H  75  1  0.63143600  0.02126600  0.34798100  1
  H  76  1  0.43911500  0.01998600  0.26841100  1
  H  77  1  0.41206700  0.00536000  0.57482300  1
  H  79  1  0.70531700  0.02721300  0.59554700  1
  H  88  1  0.79221300  0.64388900  0.07060400  1
  H  97  1  0.88414100  0.69822500  0.10246000  1
  H  98  1  0.84340900  0.69576500  0.18582800  1
  H  99  1  0.88403900  0.70481300  0.18252900  1
  H  100  1  0.83343300  0.63992100  0.98428200  1
  H  101  1  0.80706700  0.61851500  0.98516100  1
  H  102  1  0.85754900  0.70021300  0.06952900  1
  H  103  1  0.78137900  0.67376400  0.11078200  1
  H  114  1  0.79230900  0.48474300  0.35438200  1
  H  123  1  0.88432000  0.46220200  0.30015700  1
  H  124  1  0.84366000  0.54800100  0.30252200  1
  H  125  1  0.88434400  0.53570700  0.29360600  1
  H  126  1  0.83328800  0.40244800  0.35850500  1
  H  127  1  0.80693000  0.42476800  0.37987400  1
  H  128  1  0.85766000  0.42728100  0.29815300  1
  H  129  1  0.78148700  0.49494100  0.32443400  1
  H  137  1  0.79226400  0.92754700  0.51348700  1
  H  145  1  0.88420700  0.89581500  0.53604600  1
  H  146  1  0.84337000  0.81239100  0.45030600  1
  H  147  1  0.88406600  0.81573600  0.46257800  1
  H  148  1  0.83345400  0.01398600  0.59568200  1
  H  149  1  0.80704300  0.01302200  0.57337700  1
  H  150  1  0.85761900  0.92879300  0.57095800  1
  H  151  1  0.78135400  0.88743200  0.50335900  1
  H  160  1  0.29229100  0.39369600  0.88842700  1
  H  169  1  0.38427300  0.33937800  0.85661600  1
  H  170  1  0.34342800  0.34163700  0.77315000  1
  H  171  1  0.38408400  0.33263000  0.77645900  1
  H  172  1  0.33341800  0.39773900  0.97479700  1
  H  173  1  0.30699600  0.41910200  0.97388900  1
  H  174  1  0.35772400  0.33745000  0.88957500  1
  H  175  1  0.28146500  0.36378900  0.84828600  1
  H  186  1  0.29221000  0.55281300  0.60468500  1
  H  195  1  0.38412700  0.57529500  0.65902800  1
  H  196  1  0.34338700  0.48946600  0.65656400  1
  H  197  1  0.38401700  0.50181400  0.66561500  1
  H  198  1  0.33342400  0.63517100  0.60072300  1
  H  199  1  0.30706100  0.61288400  0.57931400  1
  H  200  1  0.35754000  0.61021300  0.66101200  1
  H  201  1  0.28136800  0.54251200  0.63456000  1
  H  212  1  0.29227800  0.10993300  0.44555500  1
  H  221  1  0.38433300  0.14158900  0.42300800  1
  H  222  1  0.34372500  0.22501600  0.50882900  1
  H  223  1  0.38440600  0.22163200  0.49652900  1
  H  224  1  0.33333333  0.02349300  0.36330400  1
  H  225  1  0.30693600  0.02445600  0.38562400  1
  H  226  1  0.35766400  0.10866800  0.38809000  1
  H  227  1  0.28149800  0.15007800  0.45575400  1
  H  238  1  0.04109900  0.56198000  0.89429700  1
  H  247  1  0.95736500  0.57543000  0.85217300  1
  H  248  1  0.00107800  0.48655500  0.77356700  1
  H  249  1  0.96138400  0.49916900  0.77430500  1
  H  250  1  0.02434500  0.66145900  0.96115000  1
  H  251  1  0.04248100  0.64141800  0.96875500  1
  H  252  1  0.99238000  0.61260400  0.87511000  1
  H  253  1  0.05757200  0.54243600  0.85088200  1
  H  264  1  0.04112300  0.10392500  0.60796400  1
  H  273  1  0.95734900  0.14611300  0.66355100  1
  H  274  1  0.00112100  0.22473700  0.65334600  1
  H  275  1  0.96147200  0.22405000  0.66530100  1
  H  276  1  0.02443100  0.03720300  0.64076500  1
  H  277  1  0.04254600  0.02956000  0.61310400  1
  H  278  1  0.99234200  0.12319300  0.67778000  1
  H  279  1  0.05749100  0.14734000  0.63173200  1
  H  290  1  0.04112100  0.39025500  0.43621700  1
  H  299  1  0.95751100  0.33459300  0.42278800  1
  H  300  1  0.00125100  0.34495900  0.51168300  1
  H  301  1  0.96162900  0.33295600  0.49901600  1
  H  302  1  0.02472300  0.35737000  0.33667400  1
  H  303  1  0.04278700  0.38505500  0.35669700  1
  H  304  1  0.99253500  0.32037500  0.38562200  1
  H  305  1  0.05760700  0.36648500  0.45585100  1
  H  316  1  0.54115200  0.47547100  0.06477000  1
  H  325  1  0.45730800  0.46213100  0.10692400  1
  H  326  1  0.50114500  0.55093500  0.18553100  1
  H  327  1  0.46143500  0.53835200  0.18481000  1
  H  328  1  0.52454900  0.37595600  0.99810300  1
  H  329  1  0.54274300  0.39595500  0.99045800  1
  H  330  1  0.49227400  0.42494200  0.08401900  1
  H  331  1  0.55752000  0.49510400  0.10818800  1
  H  339  1  0.54106300  0.93351900  0.35107000  1
  H  347  1  0.45740500  0.89137800  0.29544500  1
  H  348  1  0.50099300  0.81284500  0.30588200  1
  H  349  1  0.46131900  0.81357700  0.29398100  1
  H  350  1  0.52458500  0.00033200  0.31836400  1
  H  351  1  0.54267000  0.00793400  0.34602200  1
  H  352  1  0.49247400  0.91431500  0.28121600  1
  H  353  1  0.55756600  0.89010900  0.32721400  1
  H  362  1  0.54110600  0.64714800  0.52276600  1
  H  371  1  0.45733000  0.70272700  0.53617200  1
  H  372  1  0.50115600  0.69261100  0.44738900  1
  H  373  1  0.46149700  0.70454800  0.46002000  1
  H  374  1  0.52438500  0.67991600  0.62228000  1
  H  375  1  0.54249900  0.65225400  0.60225600  1
  H  376  1  0.49232000  0.71695700  0.57332300  1
  H  377  1  0.55749300  0.67094000  0.50314100  1
  H  388  1  0.07392900  0.36110800  0.87024900  1
  H  397  1  0.98773000  0.31586500  0.83246000  1
  H  398  1  0.01042200  0.35089500  0.76754100  1
  H  399  1  0.99075500  0.32334300  0.75865100  1
  H  400  1  0.02389900  0.36881800  0.95691700  1
  H  401  1  0.06704300  0.37059000  0.95127600  1
  H  402  1  0.96367200  0.35400500  0.88206900  1
  H  403  1  0.03462200  0.38688100  0.85455200  1
  H  414  1  0.07402300  0.56712600  0.63723700  1
  H  423  1  0.98769500  0.57456100  0.68240800  1
  H  424  1  0.01062000  0.47466300  0.64752700  1
  H  425  1  0.99083500  0.49332200  0.67503300  1
  H  426  1  0.02395000  0.64594800  0.62931000  1
  H  427  1  0.06710000  0.63856900  0.62758800  1
  H  428  1  0.96374100  0.58595300  0.64419400  1
  H  429  1  0.03483300  0.52563800  0.61148200  1
  H  440  1  0.07391300  0.12797000  0.43117700  1
  H  449  1  0.98775400  0.16580100  0.42375600  1
  H  450  1  0.01056000  0.23073200  0.52369200  1
  H  451  1  0.99090300  0.23962900  0.50503100  1
  H  452  1  0.02368800  0.04118500  0.35242100  1
  H  453  1  0.06684300  0.04680100  0.35978300  1
  H  454  1  0.96362200  0.11621500  0.41234700  1
  H  455  1  0.03464600  0.14370300  0.47267700  1
  H  466  1  0.57403100  0.67639600  0.08884400  1
  H  475  1  0.48782500  0.72162700  0.12665500  1
  H  476  1  0.51043500  0.68653000  0.19153000  1
  H  477  1  0.49078900  0.71409200  0.20043500  1
  H  478  1  0.52390300  0.66855600  0.00212200  1
  H  479  1  0.56704500  0.66678700  0.00775800  1
  H  480  1  0.46376100  0.68349300  0.07706600  1
  H  481  1  0.53472900  0.65060700  0.10453800  1
  H  492  1  0.57389500  0.47041100  0.32192700  1
  H  501  1  0.48774700  0.46298700  0.27667400  1
  H  502  1  0.51033200  0.56296700  0.31182400  1
  H  503  1  0.49071100  0.54431700  0.28425000  1
  H  504  1  0.52384900  0.39143500  0.32959800  1
  H  505  1  0.56699400  0.39885700  0.33139300  1
  H  506  1  0.46363900  0.45148500  0.31479600  1
  H  507  1  0.53457000  0.51187700  0.34772700  1
  H  516  1  0.57399000  0.90939100  0.52791900  1
  H  524  1  0.48767900  0.87166300  0.53534800  1
  H  525  1  0.51053800  0.80670000  0.43542800  1
  H  526  1  0.49077300  0.79783500  0.45407900  1
  H  527  1  0.46372000  0.92129800  0.54676700  1
  H  528  1  0.53475100  0.89371400  0.48644300  1
  H  537  1  0.76385300  0.47270800  0.08678400  1
  H  546  1  0.84532000  0.46551300  0.13125300  1
  H  547  1  0.82704700  0.56613600  0.19422900  1
  H  548  1  0.84609600  0.54755000  0.20347400  1
  H  549  1  0.82089300  0.38734600  0.00986500  1
  H  550  1  0.77933300  0.39677100  0.00928400  1
  H  551  1  0.87104300  0.45044700  0.08686700  1
  H  552  1  0.80083100  0.51384200  0.10756400  1
  H  562  1  0.76378600  0.91142700  0.32618300  1
  H  570  1  0.84532100  0.86700300  0.27458300  1
  H  571  1  0.82729400  0.80414600  0.31239500  1
  H  572  1  0.84632100  0.79487600  0.28455300  1
  H  573  1  0.87097900  0.91145200  0.30390100  1
  H  574  1  0.80086100  0.89076700  0.34662400  1
  H  583  1  0.76389700  0.67199200  0.52555600  1
  H  592  1  0.84535000  0.72360700  0.53271200  1
  H  593  1  0.82746900  0.68571600  0.43202300  1
  H  594  1  0.84644400  0.71357900  0.45059300  1
  H  595  1  0.82075500  0.68064700  0.61105700  1
  H  596  1  0.77917100  0.67070300  0.60165100  1
  H  597  1  0.87108700  0.69429300  0.54784500  1
  H  598  1  0.80098700  0.65153000  0.48443700  1
  H  609  1  0.26373700  0.56478700  0.87221200  1
  H  618  1  0.34530200  0.57193900  0.82779900  1
  H  619  1  0.32740600  0.47125200  0.76498400  1
  H  620  1  0.34644600  0.48981900  0.75571200  1
  H  621  1  0.32071300  0.65009000  0.94925800  1
  H  622  1  0.27913700  0.64066300  0.94980000  1
  H  623  1  0.37096200  0.58706700  0.87227000  1
  H  624  1  0.30081900  0.52367000  0.85156800  1
  H  635  1  0.26388300  0.12593800  0.63273800  1
  H  644  1  0.34530500  0.17042500  0.68440200  1
  H  645  1  0.32727900  0.23329500  0.64660600  1
  H  646  1  0.34626700  0.24257200  0.67446100  1
  H  647  1  0.32082900  0.04908900  0.64134300  1
  H  648  1  0.27927700  0.04850300  0.63132300  1
  H  649  1  0.37105900  0.12602000  0.65510500  1
  H  650  1  0.30093500  0.14666400  0.61233500  1
  H  661  1  0.26371000  0.36531900  0.43347200  1
  H  670  1  0.34528000  0.31374000  0.42630700  1
  H  671  1  0.32719500  0.35149200  0.52696300  1
  H  672  1  0.34624800  0.32366000  0.50838500  1
  H  673  1  0.32076700  0.35708600  0.34819500  1
  H  674  1  0.27916600  0.36700100  0.35758300  1
  H  675  1  0.37094300  0.34310700  0.41123200  1
  H  676  1  0.30073500  0.38575000  0.47460100  1
  H  686  1  0.90718300  0.77979700  0.24533300  1
  H  687  1  0.92653900  0.74146600  0.20958200  1
  H  690  1  0.85628300  0.83035400  0.21351300  1
  H  691  1  0.84305100  0.80642200  0.18334600  1
  H  692  1  0.88598100  0.82124500  0.18787400  1
  H  694  1  0.90416500  0.74968600  0.13694300  1
  H  695  1  0.90719100  0.78271000  0.15149700  1
  H  696  1  0.86438600  0.76774000  0.14705600  1
  H  698  1  0.95210700  0.72717500  0.16187700  1
  H  700  1  0.89148400  0.83537900  0.25016600  1
  H  706  1  0.90704500  0.52343300  0.21847300  1
  H  707  1  0.92653200  0.52603600  0.25678600  1
  H  710  1  0.85614900  0.44104300  0.16800700  1
  H  711  1  0.84303800  0.43479900  0.19195400  1
  H  712  1  0.88594400  0.42453400  0.17708200  1
  H  714  1  0.90430300  0.44519400  0.24863700  1
  H  715  1  0.90727300  0.42671400  0.21561000  1
  H  716  1  0.86448800  0.43722400  0.23062000  1
  H  718  1  0.95224900  0.49262200  0.27103700  1
  H  720  1  0.89131500  0.47264100  0.16292500  1
  H  726  1  0.90711300  0.75287900  0.47474100  1
  H  727  1  0.92648900  0.78863200  0.47217100  1
  H  730  1  0.85626300  0.78468600  0.55712800  1
  H  731  1  0.84306500  0.81486700  0.56338700  1
  H  732  1  0.88599600  0.81030500  0.57365700  1
  H  734  1  0.90419500  0.86125800  0.55305600  1
  H  735  1  0.90722500  0.84668800  0.57151100  1
  H  736  1  0.86441600  0.85115400  0.56100500  1
  H  738  1  0.95212000  0.83632000  0.50560500  1
  H  740  1  0.89148200  0.74804700  0.52550300  1
  H  746  1  0.40711800  0.25762900  0.71368800  1
  H  747  1  0.42655500  0.29594700  0.74941600  1
  H  750  1  0.35606800  0.20716800  0.74556500  1
  H  751  1  0.34290300  0.23111700  0.77574400  1
  H  752  1  0.38580400  0.21624800  0.77118300  1
  H  754  1  0.40411400  0.28780600  0.82209200  1
  H  755  1  0.40707800  0.25478000  0.80754900  1
  H  756  1  0.36430100  0.26978900  0.81200400  1
  H  758  1  0.45213200  0.31022900  0.79710600  1
  H  760  1  0.39133800  0.20208800  0.70891900  1
  H  766  1  0.40718300  0.51398100  0.74059500  1
  H  767  1  0.42653100  0.51140700  0.70226500  1
  H  770  1  0.35623600  0.59634100  0.79115200  1
  H  771  1  0.34300300  0.60257800  0.76722100  1
  H  772  1  0.38592900  0.61288200  0.78205100  1
  H  774  1  0.40411900  0.59226600  0.71049500  1
  H  775  1  0.40713700  0.61073400  0.74351900  1
  H  776  1  0.36433600  0.60019700  0.72854500  1
  H  778  1  0.45208600  0.54482800  0.68798300  1
  H  780  1  0.39148100  0.56473000  0.79617700  1
  H  786  1  0.40712400  0.28449800  0.48425900  1
  H  787  1  0.42659900  0.24878100  0.48685500  1
  H  790  1  0.35622500  0.25259300  0.40187100  1
  H  791  1  0.34310000  0.22240300  0.39562500  1
  H  792  1  0.38601000  0.22700400  0.38535800  1
  H  794  1  0.40435200  0.17609900  0.40600800  1
  H  795  1  0.40732600  0.19064900  0.38753100  1
  H  796  1  0.36453900  0.18615500  0.39804300  1
  H  798  1  0.45229700  0.20111000  0.45343300  1
  H  800  1  0.39138600  0.28927000  0.43347700  1
  H  806  1  0.93523300  0.51512800  0.71230300  1
  H  807  1  0.91833700  0.50945000  0.74662300  1
  H  810  1  0.97896900  0.59999000  0.74843400  1
  H  811  1  0.99142500  0.60548800  0.77846200  1
  H  812  1  0.94768200  0.61429200  0.77343800  1
  H  814  1  0.93163700  0.58974700  0.82159700  1
  H  815  1  0.92715800  0.60920500  0.80826100  1
  H  816  1  0.97078300  0.60021100  0.81327600  1
  H  818  1  0.88970500  0.53985700  0.79401500  1
  H  820  1  0.94685500  0.56941700  0.71122300  1
  H  826  1  0.93523300  0.28598300  0.74314800  1
  H  827  1  0.91830000  0.25166900  0.70316200  1
  H  830  1  0.97910600  0.24985000  0.79184100  1
  H  831  1  0.99153800  0.21981700  0.76730700  1
  H  832  1  0.94780900  0.22485200  0.78115800  1
  H  834  1  0.93171000  0.17668800  0.70845600  1
  H  835  1  0.92726300  0.19002500  0.74125400  1
  H  836  1  0.97087400  0.18500800  0.72722300  1
  H  838  1  0.88971500  0.20428300  0.68618400  1
  H  840  1  0.94691500  0.28704600  0.79849400  1
  H  846  1  0.93537600  0.25515300  0.48319500  1
  H  847  1  0.91847000  0.29513700  0.48884400  1
  H  850  1  0.97906500  0.20636700  0.39832800  1
  H  851  1  0.99152000  0.23087800  0.39280200  1
  H  852  1  0.94776900  0.21705800  0.38402300  1
  H  854  1  0.93174600  0.28975500  0.40851900  1
  H  855  1  0.92725300  0.25695700  0.38908200  1
  H  856  1  0.97088500  0.27096200  0.39805400  1
  H  858  1  0.88983500  0.31209200  0.45840800  1
  H  860  1  0.94691900  0.19977500  0.42894400  1
  H  866  1  0.43536400  0.52247400  0.24682700  1
  H  867  1  0.41840700  0.52815900  0.21252500  1
  H  870  1  0.47913600  0.43762000  0.21065900  1
  H  871  1  0.49150600  0.43210300  0.18061200  1
  H  872  1  0.44778000  0.42332500  0.18569800  1
  H  874  1  0.43162600  0.44786600  0.13753800  1
  H  875  1  0.42718500  0.42841400  0.15088400  1
  H  876  1  0.47079500  0.43739100  0.14582000  1
  H  878  1  0.38970700  0.49777300  0.16518300  1
  H  880  1  0.44696600  0.46815600  0.24785800  1
  H  886  1  0.43537500  0.75149900  0.21600100  1
  H  887  1  0.41844500  0.78584000  0.25597600  1
  H  890  1  0.47899800  0.78755700  0.16718000  1
  H  891  1  0.49143600  0.81760400  0.19168100  1
  H  892  1  0.44768300  0.81254200  0.17785900  1
  H  894  1  0.43165600  0.86076600  0.25055200  1
  H  895  1  0.42714800  0.84739000  0.21775400  1
  H  896  1  0.47078400  0.85243600  0.23175000  1
  H  898  1  0.38973100  0.83322000  0.27287500  1
  H  900  1  0.44688500  0.75035100  0.16060200  1
  H  906  1  0.43513700  0.78236300  0.47592700  1
  H  907  1  0.41822000  0.74237100  0.47025100  1
  H  910  1  0.47909500  0.83103100  0.56073100  1
  H  911  1  0.49154400  0.80649200  0.56621600  1
  H  912  1  0.44782100  0.82034600  0.57505800  1
  H  914  1  0.43171800  0.74764300  0.55051000  1
  H  915  1  0.42728800  0.78043900  0.56998000  1
  H  916  1  0.47089300  0.76640200  0.56094000  1
  H  918  1  0.38969600  0.72536600  0.50064100  1
  H  920  1  0.44687700  0.83769800  0.53021100  1
  H  926  1  0.71725200  0.62448800  0.06090500  1
  H  927  1  0.65662000  0.63883000  0.06956900  1
  H  930  1  0.74425700  0.63504700  0.98959300  1
  H  931  1  0.70525800  0.62659900  0.97106700  1
  H  932  1  0.73009200  0.60278400  0.97262100  1
  H  934  1  0.61264000  0.63582200  0.99476100  1
  H  935  1  0.64478300  0.61580800  0.97315500  1
  H  936  1  0.65014800  0.64941700  0.98821800  1
  H  938  1  0.59668100  0.63091700  0.04310400  1
  H  940  1  0.74979200  0.58985000  0.00950300  1
  H  946  1  0.71704600  0.49441300  0.37379800  1
  H  947  1  0.65640400  0.48871300  0.35951100  1
  H  950  1  0.74419900  0.41251200  0.36319300  1
  H  951  1  0.70524900  0.40247200  0.37173900  1
  H  952  1  0.73013300  0.42786400  0.39548100  1
  H  954  1  0.61261300  0.41680300  0.36238600  1
  H  955  1  0.64472900  0.41528200  0.38245700  1
  H  956  1  0.65018600  0.39672200  0.34885800  1
  H  958  1  0.59653500  0.47008100  0.36742300  1
  H  960  1  0.74959300  0.47773800  0.40840100  1
  H  962  1  0.71714600  0.93715600  0.50376900  1
  H  963  1  0.65652000  0.92856500  0.50955000  1
  H  964  1  0.73014000  0.02551600  0.57011200  1
  H  966  1  0.61271000  0.00347300  0.58132800  1
  H  967  1  0.64477400  0.02505700  0.58276300  1
  H  973  1  0.21707700  0.41312200  0.89820600  1
  H  974  1  0.15644500  0.39881400  0.88958400  1
  H  977  1  0.24428100  0.40229200  0.96934800  1
  H  978  1  0.20532300  0.41074300  0.98792100  1
  H  979  1  0.23016100  0.43456400  0.98637900  1
  H  981  1  0.11265700  0.40156000  0.96430700  1
  H  982  1  0.14482700  0.42154900  0.98590600  1
  H  983  1  0.15019500  0.38793700  0.97078200  1
  H  985  1  0.09658400  0.40661500  0.91605900  1
  H  987  1  0.24957900  0.44764700  0.94952600  1
  H  993  1  0.21730400  0.54309900  0.58529200  1
  H  994  1  0.15666200  0.54876700  0.59962800  1
  H  997  1  0.24424100  0.62497300  0.59581900  1
  H  998  1  0.20523400  0.63503300  0.58735700  1
  H  999  1  0.23008600  0.60966600  0.56355100  1
  H  1001  1  0.11261900  0.62051500  0.59655000  1
  H  1002  1  0.14477000  0.62211600  0.57654700  1
  H  1003  1  0.15010100  0.64068000  0.61015800  1
  H  1005  1  0.09669000  0.56730000  0.59171700  1
  H  1007  1  0.24979000  0.55987300  0.55064500  1
  H  1013  1  0.21691200  0.10013900  0.45525000  1
  H  1014  1  0.15624000  0.10865100  0.44952500  1
  H  1017  1  0.24425700  0.02895200  0.37331900  1
  H  1018  1  0.20536700  0.01030700  0.36324100  1
  H  1019  1  0.23026700  0.01195900  0.38862800  1
  H  1021  1  0.11265700  0.03383000  0.37756400  1
  H  1022  1  0.14486500  0.01228200  0.37602100  1
  H  1023  1  0.15022500  0.02736700  0.35749500  1
  H  1025  1  0.09643600  0.08206400  0.43084300  1
  H  1027  1  0.24956900  0.04892200  0.43858100  1
  H  1033  1  0.11100700  0.55866500  0.90550400  1
  H  1034  1  0.17202600  0.55678500  0.89312600  1
  H  1037  1  0.09819100  0.63417200  0.98525900  1
  H  1038  1  0.13134800  0.65283200  0.98197700  1
  H  1039  1  0.14151700  0.63490000  0.99713300  1
  H  1041  1  0.22715100  0.62299200  0.96924900  1
  H  1042  1  0.19419700  0.64648100  0.98401000  1
  H  1043  1  0.21336900  0.64169100  0.95566500  1
  H  1045  1  0.23454800  0.56869800  0.91244300  1
  H  1047  1  0.08093100  0.58593000  0.96190900  1
  H  1053  1  0.11115100  0.09262600  0.59345300  1
  H  1054  1  0.17217700  0.10497400  0.60385800  1
  H  1057  1  0.09827500  0.01302600  0.58951200  1
  H  1058  1  0.13144200  0.01634900  0.61146500  1
  H  1059  1  0.14159000  0.00112400  0.57836900  1
  H  1061  1  0.22722400  0.02894400  0.59421200  1
  H  1062  1  0.19428100  0.01428200  0.60306700  1
  H  1063  1  0.21352900  0.04264700  0.62652400  1
  H  1065  1  0.23465900  0.08564600  0.59649100  1
  H  1067  1  0.08111700  0.03624700  0.56447200  1
  H  1073  1  0.11094000  0.40471000  0.43946800  1
  H  1074  1  0.17193400  0.39420600  0.44139900  1
  H  1077  1  0.09831800  0.40900600  0.36397900  1
  H  1078  1  0.13149600  0.38707100  0.34534500  1
  H  1079  1  0.14165700  0.42016100  0.36330800  1
  H  1081  1  0.22724300  0.40416000  0.37527400  1
  H  1082  1  0.19433500  0.39546500  0.35176300  1
  H  1083  1  0.21344500  0.37188400  0.35653900  1
  H  1085  1  0.23448300  0.40160400  0.42955700  1
  H  1087  1  0.08093100  0.43384500  0.41213300  1
  H  1093  1  0.61114700  0.47869800  0.05348000  1
  H  1094  1  0.67217600  0.48064600  0.06582400  1
  H  1097  1  0.59831400  0.40310500  0.97381900  1
  H  1098  1  0.63148200  0.38446100  0.97711800  1
  H  1099  1  0.64162600  0.40237300  0.96193300  1
  H  1101  1  0.72725000  0.41433400  0.98975500  1
  H  1102  1  0.69432100  0.39081200  0.97507100  1
  H  1103  1  0.71357100  0.39569300  0.00342600  1
  H  1105  1  0.73466500  0.46871700  0.04650000  1
  H  1107  1  0.58108900  0.45133800  0.99710400  1
  H  1108  1  0.61103100  0.94470000  0.36551300  1
  H  1109  1  0.67203800  0.93231000  0.35500100  1
  H  1110  1  0.64161000  0.03636900  0.38106700  1
  H  1112  1  0.72722900  0.00845600  0.36503100  1
  H  1113  1  0.69428300  0.02326500  0.35635600  1
  H  1119  1  0.61111500  0.63267700  0.51956600  1
  H  1120  1  0.67212200  0.64313400  0.51764300  1
  H  1123  1  0.59827600  0.62868900  0.59520100  1
  H  1124  1  0.63143300  0.65064600  0.61383800  1
  H  1125  1  0.64159900  0.61755300  0.59595200  1
  H  1127  1  0.72722900  0.63347400  0.58399900  1
  H  1128  1  0.69427700  0.64226700  0.60750100  1
  H  1129  1  0.71346600  0.66576900  0.60263300  1
  H  1131  1  0.73461200  0.63580800  0.52960300  1
  H  1133  1  0.58112700  0.60365500  0.54694100  1
  H  1139  1  0.94254700  0.63136100  0.94023300  1
  H  1140  1  0.91315400  0.63421000  0.97601400  1
  H  1143  1  0.97878300  0.71612700  0.96412600  1
  H  1144  1  0.97784900  0.72967900  0.99694600  1
  H  1145  1  0.93895900  0.73114800  0.98054600  1
  H  1147  1  0.90335200  0.72186600  0.03696600  1
  H  1148  1  0.90421400  0.73427500  0.01643800  1
  H  1149  1  0.94453800  0.73234800  0.03131700  1
  H  1151  1  0.90958500  0.66502000  0.02673300  1
  H  1153  1  0.96209300  0.68021900  0.92857000  1
  H  1159  1  0.94259400  0.36666400  0.36699400  1
  H  1160  1  0.91311300  0.39966500  0.36432700  1
  H  1163  1  0.97887200  0.30610300  0.28214000  1
  H  1164  1  0.97795700  0.32550300  0.26873200  1
  H  1165  1  0.93906400  0.30758700  0.26715200  1
  H  1167  1  0.90342700  0.37340700  0.27676900  1
  H  1168  1  0.90425500  0.34044700  0.26421900  1
  H  1169  1  0.94459300  0.35726900  0.26622200  1
  H  1171  1  0.90940100  0.41980600  0.33368600  1
  H  1173  1  0.96217600  0.30627700  0.31798100  1
  H  1178  1  0.94257100  0.05812800  0.63144800  1
  H  1179  1  0.91321900  0.02236100  0.59847200  1
  H  1182  1  0.97865300  0.03416200  0.69229800  1
  H  1183  1  0.97773000  0.00134400  0.67300200  1
  H  1184  1  0.93881800  0.01773000  0.69084900  1
  H  1186  1  0.96202900  0.06973800  0.69196400  1
  H  1192  1  0.44259300  0.40619200  0.01888200  1
  H  1193  1  0.41327900  0.40338300  0.98309800  1
  H  1196  1  0.47864100  0.32138900  0.99497500  1
  H  1197  1  0.47773000  0.30783800  0.96215200  1
  H  1198  1  0.43880100  0.30641000  0.97854500  1
  H  1200  1  0.40332700  0.31575100  0.92212800  1
  H  1201  1  0.40409700  0.30333500  0.94265100  1
  H  1202  1  0.44445900  0.30520600  0.92777700  1
  H  1204  1  0.40962800  0.37246700  0.93223000  1
  H  1206  1  0.46194100  0.35731200  0.03053700  1
  H  1212  1  0.44247700  0.67064200  0.59212400  1
  H  1213  1  0.41310600  0.63771300  0.59499300  1
  H  1216  1  0.47877100  0.73152600  0.67687100  1
  H  1217  1  0.47787600  0.71225700  0.69042600  1
  H  1218  1  0.43897200  0.73012500  0.69191500  1
  H  1220  1  0.40340000  0.66442600  0.68265400  1
  H  1221  1  0.40425100  0.69736000  0.69506000  1
  H  1222  1  0.44458600  0.68055900  0.69311700  1
  H  1224  1  0.40957700  0.61781000  0.62580800  1
  H  1226  1  0.46202200  0.73116400  0.64096100  1
  H  1230  1  0.41312500  0.01488300  0.36048200  1
  H  1232  1  0.47797800  0.03634800  0.28634900  1
  H  1234  1  0.40339400  0.07617400  0.33421700  1
  H  1235  1  0.40426500  0.05576500  0.30125600  1
  H  1236  1  0.44457800  0.07060700  0.31810200  1
  H  1238  1  0.40941200  0.06567500  0.38061900  1
  H  1244  1  0.89257100  0.42190900  0.00775800  1
  H  1245  1  0.91199000  0.41008100  0.96613800  1
  H  1248  1  0.88893500  0.34599500  0.01225300  1
  H  1249  1  0.88282300  0.32385800  0.98020600  1
  H  1250  1  0.92710900  0.33111600  0.99331400  1
  H  1252  1  0.93549000  0.32135800  0.92388000  1
  H  1253  1  0.94909700  0.31903000  0.95032700  1
  H  1254  1  0.90375900  0.31237900  0.93917500  1
  H  1256  1  0.92262200  0.36863200  0.91841200  1
  H  1258  1  0.91150900  0.38870100  0.03734400  1
  H  1264  1  0.89254800  0.64383900  0.57642700  1
  H  1265  1  0.91205300  0.61403000  0.58818800  1
  H  1268  1  0.88873500  0.72417200  0.65240500  1
  H  1269  1  0.88275100  0.71423700  0.67453400  1
  H  1270  1  0.92698700  0.72012800  0.66723200  1
  H  1272  1  0.93561500  0.66040800  0.67690700  1
  H  1273  1  0.94911000  0.68921300  0.67925900  1
  H  1274  1  0.90381800  0.68465500  0.68594800  1
  H  1276  1  0.92256700  0.60789200  0.62998500  1
  H  1278  1  0.91142100  0.70659900  0.60969700  1
  H  1283  1  0.91170000  0.03222000  0.38428300  1
  H  1286  1  0.88288200  0.01810900  0.28394100  1
  H  1288  1  0.93554000  0.07441000  0.33779800  1
  H  1289  1  0.94915700  0.04793900  0.30904500  1
  H  1290  1  0.90384400  0.05913400  0.31349500  1
  H  1292  1  0.92242200  0.08004600  0.39043000  1
  H  1298  1  0.39233300  0.61569100  0.95157900  1
  H  1299  1  0.41178300  0.62760100  0.99319400  1
  H  1302  1  0.38921700  0.69141100  0.94673500  1
  H  1303  1  0.38323000  0.71368300  0.97875800  1
  H  1304  1  0.42748000  0.70621100  0.96560600  1
  H  1306  1  0.43582600  0.71624000  0.03515100  1
  H  1307  1  0.44948700  0.71839500  0.00861500  1
  H  1308  1  0.40418900  0.72525000  0.01982200  1
  H  1310  1  0.42258500  0.66933600  0.04094900  1
  H  1312  1  0.41161000  0.64855500  0.92176100  1
  H  1318  1  0.39238100  0.39375100  0.38265800  1
  H  1319  1  0.41180800  0.42350300  0.37078200  1
  H  1322  1  0.38905000  0.31325800  0.30685000  1
  H  1323  1  0.38297800  0.32309500  0.28465300  1
  H  1324  1  0.42725600  0.31732700  0.29200400  1
  H  1326  1  0.43559100  0.37691400  0.28210200  1
  H  1327  1  0.44923500  0.34818400  0.27986300  1
  H  1328  1  0.40391100  0.35260900  0.27312200  1
  H  1330  1  0.42255300  0.42968900  0.32928800  1
  H  1332  1  0.41149400  0.33098800  0.34961900  1
  H  1337  1  0.39258700  0.04694400  0.60461200  1
  H  1340  1  0.38882200  0.05138000  0.68498400  1
  H  1341  1  0.38282100  0.01932300  0.67507600  1
  H  1342  1  0.42706400  0.03250100  0.68094300  1
  H  1344  1  0.41147500  0.07649100  0.66737400  1
  H  1350  1  0.77335700  0.57153700  0.10973800  1
  H  1351  1  0.78749800  0.60964700  0.11024600  1
  H  1354  1  0.76656400  0.59137100  0.19559500  1
  H  1355  1  0.75313900  0.62313400  0.20976900  1
  H  1356  1  0.79970200  0.61535500  0.20856700  1
  H  1358  1  0.79706700  0.67387100  0.19661800  1
  H  1359  1  0.81569400  0.65527800  0.20858500  1
  H  1360  1  0.76850000  0.66161100  0.21070800  1
  H  1362  1  0.83631300  0.64562900  0.14184700  1
  H  1364  1  0.75398200  0.55139900  0.13918200  1
  H  1370  1  0.77324000  0.59602200  0.42658000  1
  H  1371  1  0.78734400  0.55846800  0.38847500  1
  H  1374  1  0.76688600  0.66217400  0.40691900  1
  H  1375  1  0.75355400  0.64468300  0.37512700  1
  H  1376  1  0.80011300  0.65115100  0.38298800  1
  H  1378  1  0.79731800  0.58073200  0.32435700  1
  H  1379  1  0.81606700  0.61124300  0.34302200  1
  H  1380  1  0.76888400  0.60715300  0.33662300  1
  H  1382  1  0.83636000  0.55419600  0.35262900  1
  H  1384  1  0.75399300  0.64588600  0.44669200  1
  H  1390  1  0.77366800  0.88869100  0.40226700  1
  H  1391  1  0.78774900  0.88816900  0.43987000  1
  H  1394  1  0.76665700  0.80283700  0.33625200  1
  H  1395  1  0.75312000  0.78869300  0.35384700  1
  H  1396  1  0.79970600  0.78981600  0.34727300  1
  H  1398  1  0.79696100  0.80178100  0.41773600  1
  H  1399  1  0.81561000  0.78978300  0.38717900  1
  H  1400  1  0.76839800  0.78773600  0.39138400  1
  H  1402  1  0.83639400  0.85646900  0.44430200  1
  H  1404  1  0.75417300  0.85927800  0.35271600  1
  H  1410  1  0.27329800  0.46579800  0.84928500  1
  H  1411  1  0.28745600  0.42767800  0.84868800  1
  H  1414  1  0.26670200  0.44618400  0.76348800  1
  H  1415  1  0.25336000  0.41439300  0.74919100  1
  H  1416  1  0.29991300  0.42225000  0.75053200  1
  H  1418  1  0.29724300  0.36359700  0.76228300  1
  H  1419  1  0.31592600  0.38227300  0.75042700  1
  H  1420  1  0.26874300  0.37587500  0.74817300  1
  H  1422  1  0.33642600  0.39178300  0.81700400  1
  H  1424  1  0.25397700  0.48599500  0.81969000  1
  H  1430  1  0.27333000  0.44133200  0.53233500  1
  H  1431  1  0.28745600  0.47893400  0.57044800  1
  H  1434  1  0.26662600  0.37529400  0.55215300  1
  H  1435  1  0.25319500  0.39287400  0.58391700  1
  H  1436  1  0.29976100  0.38631500  0.57613700  1
  H  1438  1  0.29707800  0.45677400  0.63466000  1
  H  1439  1  0.31573600  0.42622600  0.61606500  1
  H  1440  1  0.26854100  0.43040900  0.62239500  1
  H  1442  1  0.33629900  0.48331500  0.60642300  1
  H  1444  1  0.25400400  0.39175400  0.51218300  1
  H  1450  1  0.27326800  0.14897700  0.55684600  1
  H  1451  1  0.28743100  0.14951200  0.51929000  1
  H  1454  1  0.26676400  0.23480500  0.62295600  1
  H  1455  1  0.25345200  0.24907700  0.60543400  1
  H  1456  1  0.30000200  0.24772100  0.61195000  1
  H  1458  1  0.29733200  0.23589000  0.54151600  1
  H  1459  1  0.31601800  0.24776500  0.57204800  1
  H  1460  1  0.26884300  0.25003400  0.56790400  1
  H  1462  1  0.33638500  0.18105900  0.51497900  1
  H  1464  1  0.25396100  0.17866100  0.60665400  1
  H  1470  1  0.06641300  0.44014100  0.85109600  1
  H  1471  1  0.05371800  0.47748900  0.84972800  1
  H  1474  1  0.07349300  0.37295800  0.76577600  1
  H  1475  1  0.08848700  0.38983500  0.75119500  1
  H  1476  1  0.04154000  0.38411000  0.75217100  1
  H  1478  1  0.04767600  0.45414700  0.76299800  1
  H  1479  1  0.02767100  0.42398000  0.75122900  1
  H  1480  1  0.07519500  0.42722700  0.74944500  1
  H  1482  1  0.00451600  0.47903300  0.81435100  1
  H  1484  1  0.08365700  0.38984900  0.82222700  1
  H  1490  1  0.06668600  0.14732100  0.52949400  1
  H  1491  1  0.05388600  0.14876600  0.56819600  1
  H  1494  1  0.07363400  0.23257500  0.54742800  1
  H  1495  1  0.08843300  0.24728000  0.57893500  1
  H  1496  1  0.04152100  0.24615300  0.57208400  1
  H  1498  1  0.04745200  0.23553100  0.63143900  1
  H  1499  1  0.02749800  0.24718100  0.61292200  1
  H  1500  1  0.07499200  0.24910700  0.61810300  1
  H  1502  1  0.00449700  0.18421200  0.60497500  1
  H  1504  1  0.08381400  0.17623800  0.50793900  1
  H  1510  1  0.06657800  0.46896400  0.55823500  1
  H  1511  1  0.05379700  0.43025800  0.52089400  1
  H  1514  1  0.07372300  0.45080900  0.62540500  1
  H  1515  1  0.08863800  0.41933500  0.60850700  1
  H  1516  1  0.04171000  0.42609200  0.61428900  1
  H  1518  1  0.04764100  0.36687900  0.54424500  1
  H  1519  1  0.02771700  0.38530500  0.57443700  1
  H  1520  1  0.07522700  0.38021000  0.57113300  1
  H  1522  1  0.00456400  0.39337800  0.51939000  1
  H  1524  1  0.08377000  0.49045600  0.60838200  1
  H  1530  1  0.56681200  0.59740100  0.10814100  1
  H  1531  1  0.55405300  0.56011800  0.10954600  1
  H  1534  1  0.57353000  0.66469300  0.19342100  1
  H  1535  1  0.58833700  0.64789100  0.20812400  1
  H  1536  1  0.54141700  0.65356400  0.20695300  1
  H  1538  1  0.54748300  0.58357600  0.19628900  1
  H  1539  1  0.52744900  0.61372000  0.20793400  1
  H  1540  1  0.57494700  0.61052600  0.20991100  1
  H  1542  1  0.50461200  0.55873600  0.14491400  1
  H  1544  1  0.58383200  0.64788100  0.13709600  1
  H  1550  1  0.56637700  0.89035700  0.42980400  1
  H  1551  1  0.55360100  0.88903600  0.39112000  1
  H  1554  1  0.57365200  0.80500700  0.41155300  1
  H  1555  1  0.58862900  0.79048400  0.38009600  1
  H  1556  1  0.54169300  0.79140300  0.38680200  1
  H  1558  1  0.54768600  0.80232700  0.32765400  1
  H  1559  1  0.52774100  0.79050800  0.34602900  1
  H  1560  1  0.57526100  0.78877100  0.34098900  1
  H  1562  1  0.50448200  0.85372300  0.35417800  1
  H  1564  1  0.58366100  0.86166900  0.45124900  1
  H  1570  1  0.56670200  0.56875300  0.40094800  1
  H  1571  1  0.55396300  0.60747200  0.43819900  1
  H  1574  1  0.57350100  0.58662300  0.33358200  1
  H  1575  1  0.58831800  0.61812900  0.35034900  1
  H  1576  1  0.54139600  0.61128800  0.34467300  1
  H  1578  1  0.54744000  0.67067400  0.41462800  1
  H  1579  1  0.52743200  0.65214400  0.38448000  1
  H  1580  1  0.57493100  0.65731700  0.38769000  1
  H  1582  1  0.50451700  0.64423400  0.43949100  1
  H  1584  1  0.58377800  0.54721700  0.35040400  1
  C  5  1  0.70109500  0.99122200  0.55953700  1
  C  6  1  0.66364100  0.98679000  0.56224900  1
  C  8  1  0.63979800  0.99590300  0.36215700  1
  C  9  1  0.67698500  0.98846300  0.35590200  1
  C  11  1  0.58135700  0.98759400  0.37656300  1
  C  12  1  0.91927900  0.97598300  0.64055200  1
  C  14  1  0.45321100  0.99537700  0.30408200  1
  C  16  1  0.89554700  0.99486600  0.32187400  1
  C  19  1  0.42009200  0.99274800  0.60141600  1
  C  20  1  0.42696900  0.98167700  0.63642200  1
  C  27  1  0.75244700  0.97920000  0.52980700  1
  C  28  1  0.81985400  0.97775000  0.56797500  1
  C  31  1  0.52541000  0.97104600  0.32583400  1
  C  34  1  0.72067000  0.97301200  0.53768300  1
  C  35  1  0.68913900  0.96494800  0.35337900  1
  C  36  1  0.61526300  0.97958600  0.36548600  1
  C  37  1  0.89735500  0.97986900  0.59541300  1
  C  38  1  0.46931300  0.97319800  0.28483300  1
  C  39  1  0.89245700  0.96884300  0.30500700  1
  C  40  1  0.43678900  0.97053300  0.58326900  1
  C  43  1  0.43982100  0.99500200  0.32564900  1
  C  44  1  0.64721700  0.96341900  0.54391000  1
  C  47  1  0.79985000  0.96339400  0.54521600  1
  C  48  1  0.84073100  0.96447600  0.57728800  1
  C  49  1  0.53902400  0.96322700  0.34279800  1
  C  50  1  0.50725400  0.95279500  0.30337800  1
  C  52  1  0.53390400  0.96160000  0.57504900  1
  C  53  1  0.49743400  0.95269300  0.57017500  1
  C  55  1  0.80775200  0.95738300  0.32100600  1
  C  58  1  0.70392200  0.95008000  0.51998100  1
  C  59  1  0.61072800  0.95782300  0.54326700  1
  C  61  1  0.66396000  0.94905700  0.35624900  1
  C  62  1  0.62773600  0.95622800  0.36222900  1
  C  63  1  0.72520300  0.95720100  0.35060600  1
  C  67  1  0.91534700  0.99942400  0.61585300  1
  C  78  1  0.72090600  0.01448900  0.57874900  1
  C  80  1  0.62689500  0.02077900  0.36549600  1
  C  81  1  0.46157300  0.01925600  0.27968700  1
  C  82  1  0.82402100  0.67513900  0.07532300  1
  C  83  1  0.80321800  0.65261500  0.06149900  1
  C  84  1  0.79990900  0.63984300  0.03480200  1
  C  85  1  0.81986800  0.64831100  0.02048100  1
  C  86  1  0.84071900  0.67090700  0.03380900  1
  C  87  1  0.84180800  0.68425700  0.06071100  1
  C  90  1  0.83060200  0.68576500  0.10232200  1
  C  91  1  0.80594200  0.68198800  0.11800600  1
  C  92  1  0.81590900  0.68536600  0.14194600  1
  C  93  1  0.85001100  0.69645900  0.15274800  1
  C  94  1  0.87385500  0.70294700  0.13848600  1
  C  95  1  0.86452300  0.69650600  0.11338800  1
  C  108  1  0.82408800  0.45815400  0.32315700  1
  C  109  1  0.80320100  0.46687900  0.34565200  1
  C  110  1  0.79982100  0.45300100  0.35847200  1
  C  111  1  0.81978400  0.43021600  0.35003800  1
  C  112  1  0.84065700  0.42089900  0.32744400  1
  C  113  1  0.84181100  0.43440800  0.31405600  1
  C  116  1  0.83075800  0.47452300  0.31253700  1
  C  117  1  0.80603600  0.49391200  0.31618900  1
  C  118  1  0.81609600  0.51450100  0.31287700  1
  C  119  1  0.85024300  0.51423000  0.30184500  1
  C  120  1  0.87412100  0.49351000  0.29543800  1
  C  121  1  0.86471300  0.47484000  0.30183800  1
  C  134  1  0.82405900  0.92292200  0.54007700  1
  C  135  1  0.80318700  0.93669000  0.53134200  1
  C  136  1  0.84185500  0.93757700  0.56379300  1
  C  138  1  0.83065400  0.89591800  0.52374100  1
  C  139  1  0.80588400  0.88018700  0.50438200  1
  C  140  1  0.81584900  0.85621400  0.48385000  1
  C  141  1  0.85000200  0.84545800  0.48409300  1
  C  142  1  0.87388800  0.85974900  0.50480400  1
  C  143  1  0.86458700  0.88486900  0.52341300  1
  C  154  1  0.32416900  0.36249900  0.88375500  1
  C  155  1  0.30328500  0.38498900  0.89755300  1
  C  156  1  0.29991000  0.39776300  0.92424500  1
  C  157  1  0.31989300  0.38932000  0.93858100  1
  C  158  1  0.34079600  0.36674900  0.92527400  1
  C  159  1  0.34191300  0.35337000  0.89837300  1
  C  162  1  0.33074600  0.35185600  0.85674900  1
  C  163  1  0.30601100  0.35554800  0.84104500  1
  C  164  1  0.31601800  0.35212300  0.81710000  1
  C  165  1  0.35009400  0.34102100  0.80626600  1
  C  166  1  0.37395300  0.33457600  0.82055400  1
  C  167  1  0.36466300  0.34109800  0.84568500  1
  C  180  1  0.32401200  0.57934500  0.63593600  1
  C  181  1  0.30321200  0.57064400  0.61341000  1
  C  182  1  0.29990700  0.58456900  0.60063800  1
  C  183  1  0.31986400  0.60735900  0.60910900  1
  C  184  1  0.34071200  0.61662800  0.63170500  1
  C  185  1  0.34180200  0.60307400  0.64505400  1
  C  188  1  0.33058900  0.56297100  0.64656200  1
  C  189  1  0.30592700  0.54351200  0.64278500  1
  C  190  1  0.31589300  0.52295100  0.64616500  1
  C  191  1  0.34999100  0.52324100  0.65725900  1
  C  192  1  0.37383700  0.54399000  0.66374900  1
  C  193  1  0.36450600  0.56264800  0.65730800  1
  C  206  1  0.32408800  0.11455400  0.41896900  1
  C  207  1  0.30318200  0.10079300  0.42769400  1
  C  208  1  0.29980400  0.07409400  0.41382500  1
  C  209  1  0.31978000  0.05973400  0.39104900  1
  C  210  1  0.34066100  0.07300100  0.38172500  1
  C  211  1  0.34183200  0.09989700  0.39523200  1
  C  214  1  0.33076800  0.14154400  0.43533300  1
  C  215  1  0.30605200  0.15728700  0.45472300  1
  C  216  1  0.31612900  0.18118000  0.47531700  1
  C  217  1  0.35028400  0.19193100  0.47504600  1
  C  218  1  0.37415300  0.17761700  0.45432200  1
  C  219  1  0.36473100  0.15255100  0.43564900  1
  C  232  1  0.01718300  0.58408900  0.88011600  1
  C  233  1  0.03389400  0.58002700  0.89876300  1
  C  234  1  0.03896500  0.59995200  0.92402200  1
  C  235  1  0.02527500  0.62471800  0.93185000  1
  C  236  1  0.00710900  0.62891600  0.91359800  1
  C  237  1  0.00473200  0.60900400  0.88810100  1
  C  240  1  0.01013300  0.56349000  0.85474600  1
  C  241  1  0.03408600  0.54267100  0.84204900  1
  C  242  1  0.02515600  0.52101500  0.81854600  1
  C  243  1  0.99233900  0.52056900  0.80594100  1
  C  244  1  0.96810200  0.54143600  0.81831000  1
  C  245  1  0.97677400  0.56191700  0.84259600  1
  C  258  1  0.01714600  0.11814300  0.64424100  1
  C  259  1  0.03387000  0.09947900  0.62155100  1
  C  260  1  0.03893600  0.07423200  0.61624600  1
  C  261  1  0.02527000  0.06643500  0.63321900  1
  C  262  1  0.00709300  0.08470600  0.65565100  1
  C  263  1  0.00471000  0.11019100  0.66120100  1
  C  266  1  0.01009000  0.14350100  0.64897400  1
  C  267  1  0.03399700  0.15616500  0.64078500  1
  C  268  1  0.02500700  0.17962800  0.64257800  1
  C  269  1  0.99228000  0.19231000  0.65484500  1
  C  270  1  0.96807400  0.17995700  0.66338100  1
  C  271  1  0.97674300  0.15566800  0.65957800  1
  C  284  1  0.01728100  0.35392900  0.41412900  1
  C  285  1  0.03389700  0.37666200  0.41818000  1
  C  286  1  0.03895400  0.38197300  0.39824300  1
  C  287  1  0.02535900  0.36498700  0.37345900  1
  C  288  1  0.00723600  0.34252900  0.36928100  1
  C  289  1  0.00485600  0.33697300  0.38921300  1
  C  292  1  0.01024400  0.34918400  0.43474700  1
  C  293  1  0.03410800  0.35743800  0.45563100  1
  C  294  1  0.02515600  0.35567400  0.47732600  1
  C  295  1  0.99241500  0.34341500  0.47773800  1
  C  296  1  0.96822300  0.33483000  0.45683400  1
  C  297  1  0.97691100  0.33857200  0.43631500  1
  C  310  1  0.51716100  0.45341600  0.07898700  1
  C  311  1  0.53392100  0.45743600  0.06032900  1
  C  312  1  0.53898300  0.43750000  0.03507800  1
  C  313  1  0.52527400  0.41273900  0.02727700  1
  C  314  1  0.50704300  0.40858600  0.04553600  1
  C  315  1  0.50468200  0.42851300  0.07102600  1
  C  318  1  0.51008600  0.47405000  0.10433900  1
  C  319  1  0.53402100  0.49488300  0.11701200  1
  C  320  1  0.52503600  0.51658900  0.14045500  1
  C  321  1  0.49225300  0.51702900  0.15309700  1
  C  322  1  0.46798500  0.49617100  0.14072600  1
  C  323  1  0.47672100  0.47563800  0.11648900  1
  C  336  1  0.51721800  0.91932700  0.31475700  1
  C  337  1  0.53390400  0.93797600  0.33747600  1
  C  338  1  0.50482000  0.92730600  0.29781000  1
  C  340  1  0.51014800  0.89396400  0.30999800  1
  C  341  1  0.53408300  0.88127700  0.31814500  1
  C  342  1  0.52513100  0.85778900  0.31632300  1
  C  343  1  0.49231200  0.84518600  0.30416700  1
  C  344  1  0.46810400  0.85753800  0.29563200  1
  C  345  1  0.47679600  0.88181100  0.29940800  1
  C  356  1  0.51712800  0.68342300  0.54483200  1
  C  357  1  0.53384700  0.66072900  0.54079900  1
  C  358  1  0.53890200  0.65541600  0.56073700  1
  C  359  1  0.52523100  0.67238100  0.58550600  1
  C  360  1  0.50705700  0.69481800  0.58967200  1
  C  361  1  0.50469900  0.70038200  0.56974600  1
  C  364  1  0.51007800  0.68816700  0.52421300  1
  C  365  1  0.53399600  0.67999400  0.50337000  1
  C  366  1  0.52501700  0.68180500  0.48170800  1
  C  367  1  0.49229000  0.69407100  0.48129400  1
  C  368  1  0.46806900  0.70258600  0.50217500  1
  C  369  1  0.47673200  0.69876700  0.52265100  1
  C  382  1  0.01770000  0.35621000  0.87222000  1
  C  383  1  0.05340400  0.36109000  0.88160800  1
  C  384  1  0.06171300  0.36649800  0.90647100  1
  C  385  1  0.03382900  0.36604700  0.92239700  1
  C  386  1  0.99736700  0.36200600  0.91347600  1
  C  387  1  0.98981300  0.35681600  0.88842400  1
  C  390  1  0.01089800  0.35227000  0.84740400  1
  C  391  1  0.02345200  0.37015700  0.84079700  1
  C  392  1  0.02126400  0.36553900  0.81564700  1
  C  393  1  0.00501600  0.34279100  0.79638500  1
  C  394  1  0.99229500  0.32458200  0.80285300  1
  C  395  1  0.99528100  0.32952000  0.82819500  1
  C  408  1  0.01778400  0.57396300  0.64208700  1
  C  409  1  0.05349400  0.57849000  0.63723600  1
  C  410  1  0.06179400  0.59791500  0.63178000  1
  C  411  1  0.03389700  0.61425000  0.63216800  1
  C  412  1  0.99743300  0.60936600  0.63620100  1
  C  413  1  0.98988800  0.58953300  0.64143400  1
  C  416  1  0.01098500  0.55309800  0.64604500  1
  C  417  1  0.02361200  0.52861100  0.62819300  1
  C  418  1  0.02144300  0.50809400  0.63283800  1
  C  419  1  0.00512400  0.51158500  0.65556700  1
  C  420  1  0.99230700  0.53625200  0.67373300  1
  C  421  1  0.99530000  0.55664300  0.66877600  1
  C  434  1  0.01767600  0.12603400  0.42434900  1
  C  435  1  0.05336900  0.11662500  0.41981100  1
  C  436  1  0.06163400  0.09174900  0.40035900  1
  C  437  1  0.03371000  0.07582900  0.38403600  1
  C  438  1  0.99726300  0.08477700  0.38892900  1
  C  439  1  0.98975400  0.10984200  0.40878000  1
  C  442  1  0.01091400  0.15085900  0.44522000  1
  C  443  1  0.02348200  0.15746100  0.46971000  1
  C  444  1  0.02133200  0.18261700  0.49023600  1
  C  445  1  0.00509400  0.20188300  0.48675300  1
  C  446  1  0.99236500  0.19542000  0.46207900  1
  C  447  1  0.99534000  0.17007500  0.44167400  1
  C  460  1  0.51779600  0.68129400  0.08689200  1
  C  461  1  0.55349800  0.67642200  0.07749400  1
  C  462  1  0.56177900  0.67100100  0.05262200  1
  C  463  1  0.53387700  0.67144200  0.03670600  1
  C  464  1  0.49742400  0.67549600  0.04564500  1
  C  465  1  0.48989700  0.68070200  0.07070300  1
  C  468  1  0.51101900  0.68523100  0.11170900  1
  C  469  1  0.52354600  0.66732300  0.11829500  1
  C  470  1  0.52132300  0.67192300  0.14343800  1
  C  471  1  0.50506900  0.69466300  0.16270500  1
  C  472  1  0.49236900  0.71288700  0.15625200  1
  C  473  1  0.49539500  0.70797400  0.13092000  1
  C  486  1  0.51766700  0.46354300  0.31701700  1
  C  487  1  0.55336800  0.45902900  0.32189500  1
  C  488  1  0.56167100  0.43956600  0.32729500  1
  C  489  1  0.53378500  0.42318800  0.32683400  1
  C  490  1  0.49732600  0.42806600  0.32278400  1
  C  491  1  0.48977800  0.44793600  0.31760600  1
  C  494  1  0.51087000  0.48443100  0.31309700  1
  C  495  1  0.52340500  0.50892200  0.33100700  1
  C  496  1  0.52121200  0.52947000  0.32641200  1
  C  497  1  0.50498000  0.52600200  0.30366800  1
  C  498  1  0.49229300  0.50132500  0.28543100  1
  C  499  1  0.49527900  0.48090600  0.29034700  1
  C  512  1  0.51775300  0.91139900  0.53476600  1
  C  513  1  0.55347100  0.92076300  0.53928900  1
  C  514  1  0.56179000  0.94564000  0.55871000  1
  C  515  1  0.48987000  0.92763300  0.55033900  1
  C  517  1  0.51093500  0.88658600  0.51389300  1
  C  518  1  0.52353500  0.87996800  0.48940600  1
  C  519  1  0.52135800  0.85481300  0.46888000  1
  C  520  1  0.50505600  0.83556500  0.47236100  1
  C  521  1  0.49226100  0.84204900  0.49702800  1
  C  522  1  0.49526500  0.86739000  0.51743100  1
  C  531  1  0.81850100  0.46527000  0.09031100  1
  C  532  1  0.78512500  0.46080900  0.07754200  1
  C  533  1  0.77942100  0.43954600  0.05305000  1
  C  534  1  0.80791200  0.42160500  0.04087100  1
  C  535  1  0.84201300  0.42618800  0.05337200  1
  C  536  1  0.84659400  0.44760000  0.07784900  1
  C  539  1  0.82287900  0.48643500  0.11545400  1
  C  540  1  0.81114200  0.51098700  0.12160400  1
  C  541  1  0.81426700  0.53194900  0.14651400  1
  C  542  1  0.83055300  0.52880200  0.16599800  1
  C  543  1  0.84232700  0.50410400  0.16008700  1
  C  544  1  0.83811800  0.48335700  0.13507500  1
  C  557  1  0.81843400  0.90795300  0.31523600  1
  C  558  1  0.78502600  0.92068200  0.32351000  1
  C  559  1  0.77927000  0.94516300  0.32672500  1
  C  560  1  0.84187600  0.94491300  0.31310700  1
  C  561  1  0.84650500  0.92043900  0.31004100  1
  C  563  1  0.82288500  0.88283600  0.31130800  1
  C  564  1  0.81120600  0.87672100  0.32974700  1
  C  565  1  0.81440500  0.85183300  0.32584800  1
  C  566  1  0.83070000  0.83233500  0.30322800  1
  C  567  1  0.84243300  0.83821500  0.28441000  1
  C  568  1  0.83815400  0.86320600  0.28862800  1
  C  577  1  0.81854900  0.68293500  0.53301300  1
  C  578  1  0.78513400  0.67469600  0.53749600  1
  C  579  1  0.77937500  0.67152800  0.55878900  1
  C  580  1  0.80785400  0.67728200  0.57674000  1
  C  581  1  0.84200000  0.68513300  0.57214000  1
  C  582  1  0.84661700  0.68815700  0.55070400  1
  C  585  1  0.82298900  0.68685700  0.51181900  1
  C  586  1  0.81133100  0.66840700  0.48726500  1
  C  587  1  0.81451300  0.67230200  0.46627200  1
  C  588  1  0.83079000  0.69492600  0.46939100  1
  C  589  1  0.84248200  0.71376300  0.49409300  1
  C  590  1  0.83822300  0.70954600  0.51486600  1
  C  603  1  0.31840000  0.57224300  0.86875100  1
  C  604  1  0.28499200  0.57669700  0.88147700  1
  C  605  1  0.27924200  0.59794300  0.90597300  1
  C  606  1  0.30773700  0.61586800  0.91820800  1
  C  607  1  0.34184000  0.61132500  0.90571700  1
  C  608  1  0.34647600  0.58991800  0.88124600  1
  C  611  1  0.32285700  0.55105200  0.84363700  1
  C  612  1  0.31117100  0.52650100  0.83752200  1
  C  613  1  0.31439500  0.50550400  0.81264200  1
  C  614  1  0.33072700  0.50862100  0.79315100  1
  C  615  1  0.34245100  0.53331900  0.79902500  1
  C  616  1  0.33815400  0.55409600  0.82401000  1
  C  629  1  0.31852800  0.12946000  0.64371100  1
  C  630  1  0.28514300  0.11669900  0.63541300  1
  C  631  1  0.27941800  0.09222500  0.63222300  1
  C  632  1  0.30789300  0.08005700  0.63801400  1
  C  633  1  0.34200500  0.09254500  0.64591300  1
  C  634  1  0.34660500  0.11700800  0.64894300  1
  C  637  1  0.32292500  0.15458900  0.64765800  1
  C  638  1  0.31123900  0.16071200  0.62922600  1
  C  639  1  0.31440900  0.18560900  0.63314300  1
  C  640  1  0.33067900  0.20510600  0.65577400  1
  C  641  1  0.34238900  0.19922400  0.67459300  1
  C  642  1  0.33814300  0.17422600  0.67035700  1
  C  655  1  0.31837100  0.35440000  0.42603100  1
  C  656  1  0.28496500  0.36266700  0.42156300  1
  C  657  1  0.27924000  0.36591400  0.40031400  1
  C  658  1  0.30775000  0.36023500  0.38240400  1
  C  659  1  0.34186700  0.35233700  0.38698500  1
  C  660  1  0.34646800  0.34923900  0.40837600  1
  C  663  1  0.32280100  0.35045200  0.44720900  1
  C  664  1  0.31109600  0.36887300  0.47176200  1
  C  665  1  0.31429200  0.36496000  0.49274100  1
  C  666  1  0.33060600  0.34234300  0.48961200  1
  C  667  1  0.34235900  0.32354000  0.46491300  1
  C  668  1  0.33808900  0.32777300  0.44415000  1
  C  681  1  0.91026900  0.75081400  0.18162100  1
  C  682  1  0.91446600  0.75487300  0.20646900  1
  C  683  1  0.90306100  0.77753300  0.22761500  1
  C  684  1  0.88733800  0.79705100  0.22466000  1
  C  685  1  0.88304100  0.79363100  0.19974300  1
  C  688  1  0.89510400  0.77042600  0.17802800  1
  C  689  1  0.86622700  0.81406800  0.19609400  1
  C  693  1  0.89265200  0.76732400  0.15197600  1
  C  697  1  0.92533600  0.72855000  0.16228200  1
  C  699  1  0.87894000  0.81948400  0.24671100  1
  C  701  1  0.91029900  0.48873400  0.24748100  1
  C  702  1  0.91441000  0.50952100  0.24341200  1
  C  703  1  0.90292800  0.50799400  0.22076100  1
  C  704  1  0.88718600  0.48551000  0.20126600  1
  C  705  1  0.88297700  0.46401300  0.20469700  1
  C  708  1  0.89512000  0.46551900  0.22789200  1
  C  709  1  0.86616400  0.43991600  0.18428100  1
  C  713  1  0.89274100  0.44257500  0.23100700  1
  C  717  1  0.92547200  0.49166200  0.26971700  1
  C  719  1  0.87879100  0.48510200  0.17881800  1
  C  721  1  0.91025800  0.81658700  0.50949000  1
  C  722  1  0.91442200  0.79174300  0.48869200  1
  C  723  1  0.90300400  0.77059400  0.49019900  1
  C  724  1  0.88729100  0.77354600  0.51267400  1
  C  725  1  0.88302500  0.79846000  0.53418100  1
  C  728  1  0.89510200  0.82017600  0.53269700  1
  C  729  1  0.86622600  0.80210400  0.55826800  1
  C  733  1  0.89267700  0.84622400  0.55565500  1
  C  737  1  0.92534800  0.83592700  0.50657700  1
  C  739  1  0.87892600  0.75149100  0.51306000  1
  C  741  1  0.41022600  0.28664600  0.77739900  1
  C  742  1  0.41440900  0.28257100  0.75254500  1
  C  743  1  0.40295600  0.25991800  0.73141000  1
  C  744  1  0.38717800  0.24042700  0.73438600  1
  C  745  1  0.38290200  0.24386100  0.75931200  1
  C  748  1  0.39501300  0.26705800  0.78101000  1
  C  749  1  0.36605600  0.22344400  0.76297600  1
  C  753  1  0.39256800  0.27017500  0.80707000  1
  C  757  1  0.42535700  0.30889200  0.79672200  1
  C  759  1  0.37881300  0.21797900  0.71234100  1
  C  761  1  0.41024500  0.54871300  0.71161600  1
  C  762  1  0.41445000  0.52792500  0.71567200  1
  C  763  1  0.40305100  0.52943200  0.73833000  1
  C  764  1  0.38731900  0.55190400  0.75784900  1
  C  765  1  0.38300800  0.57340100  0.75443200  1
  C  768  1  0.39506700  0.57191400  0.73122800  1
  C  769  1  0.36618000  0.59748000  0.77486800  1
  C  773  1  0.39260600  0.59486700  0.72813000  1
  C  777  1  0.42531400  0.54579600  0.68935500  1
  C  779  1  0.37893800  0.55228400  0.78028400  1
  C  781  1  0.41035800  0.22079200  0.44955200  1
  C  782  1  0.41447700  0.24564600  0.47034100  1
  C  783  1  0.40300200  0.26677300  0.46881800  1
  C  784  1  0.38726200  0.26379000  0.44633700  1
  C  785  1  0.38304600  0.23886500  0.42483800  1
  C  788  1  0.39518100  0.21717200  0.42633900  1
  C  789  1  0.36623500  0.23519000  0.40074200  1
  C  793  1  0.39279500  0.19111200  0.40339100  1
  C  797  1  0.42551900  0.20147700  0.45247600  1
  C  799  1  0.37886200  0.28583200  0.44593500  1
  C  801  1  0.93068400  0.54705200  0.77597800  1
  C  802  1  0.92834700  0.52684000  0.75069400  1
  C  803  1  0.93831400  0.53021100  0.73038100  1
  C  804  1  0.95130500  0.55386400  0.73458300  1
  C  805  1  0.95420600  0.57466900  0.76004600  1
  C  808  1  0.94292400  0.57141000  0.78089000  1
  C  809  1  0.96880500  0.59985700  0.76519700  1
  C  813  1  0.94309900  0.59369400  0.80743200  1
  C  817  1  0.91628800  0.54227200  0.79428900  1
  C  819  1  0.95877200  0.55584900  0.71321200  1
  C  821  1  0.93073000  0.22230800  0.71138400  1
  C  822  1  0.92839100  0.24759300  0.71645700  1
  C  823  1  0.93836600  0.26790600  0.74013900  1
  C  824  1  0.95140200  0.26370100  0.75957900  1
  C  825  1  0.95430300  0.23823700  0.75491800  1
  C  828  1  0.94300200  0.21739500  0.73082200  1
  C  829  1  0.96892400  0.23308800  0.77495200  1
  C  833  1  0.94318600  0.19085400  0.72656200  1
  C  837  1  0.91630200  0.20400100  0.68830400  1
  C  839  1  0.95883200  0.28507400  0.78294300  1
  C  841  1  0.93081700  0.28686700  0.45123300  1
  C  842  1  0.92848100  0.28181300  0.47145700  1
  C  843  1  0.93845300  0.25813500  0.46810400  1
  C  844  1  0.95144400  0.23867500  0.44445700  1
  C  845  1  0.95432500  0.24331300  0.42363900  1
  C  848  1  0.94304500  0.26740900  0.42688000  1
  C  849  1  0.96890300  0.22325800  0.39845100  1
  C  853  1  0.94320500  0.27164500  0.40458300  1
  C  857  1  0.91641900  0.30995300  0.45599700  1
  C  859  1  0.95889500  0.21532000  0.44248100  1
  C  861  1  0.43076100  0.49056400  0.18315500  1
  C  862  1  0.42847800  0.51078000  0.20844000  1
  C  863  1  0.43846900  0.50740300  0.22874800  1
  C  864  1  0.45146900  0.48374700  0.22453300  1
  C  865  1  0.45432500  0.46294300  0.19906900  1
  C  868  1  0.44300100  0.46620400  0.17823300  1
  C  869  1  0.46892100  0.43775000  0.19390700  1
  C  873  1  0.44312300  0.44392000  0.15169500  1
  C  877  1  0.41628900  0.49534300  0.16486200  1
  C  879  1  0.45888200  0.48174300  0.24590200  1
  C  881  1  0.43074700  0.81517000  0.24768300  1
  C  882  1  0.42844600  0.78989600  0.24264400  1
  C  883  1  0.43843300  0.76956800  0.21897300  1
  C  884  1  0.45140400  0.77374800  0.19950300  1
  C  885  1  0.45426000  0.79920100  0.20412800  1
  C  888  1  0.44296600  0.82005800  0.22821800  1
  C  889  1  0.46882600  0.80432700  0.18406500  1
  C  893  1  0.44310900  0.84658700  0.23244300  1
  C  897  1  0.41631900  0.83349400  0.27075500  1
  C  899  1  0.45885800  0.75236500  0.17615400  1
  C  901  1  0.43069300  0.75058300  0.50782600  1
  C  902  1  0.42832400  0.75566300  0.48762000  1
  C  903  1  0.43828700  0.77934900  0.49099200  1
  C  904  1  0.45134500  0.79878200  0.51463300  1
  C  905  1  0.45427600  0.79411500  0.53543000  1
  C  908  1  0.44298200  0.77001500  0.53217300  1
  C  909  1  0.46892100  0.81414100  0.56060500  1
  C  913  1  0.44319600  0.76574800  0.55445000  1
  C  917  1  0.41628100  0.72749600  0.50304900  1
  C  919  1  0.45877400  0.82214500  0.51662200  1
  C  921  1  0.64724100  0.63845300  0.03478100  1
  C  922  1  0.66805200  0.63606300  0.05297700  1
  C  923  1  0.70399700  0.62782200  0.04802200  1
  C  924  1  0.72073300  0.62269300  0.02511500  1
  C  925  1  0.70109300  0.62639600  0.00696700  1
  C  928  1  0.66362700  0.63349800  0.01142400  1
  C  929  1  0.72087000  0.62244400  0.98372400  1
  C  933  1  0.64149100  0.63375500  0.99093500  1
  C  937  1  0.61075500  0.64339900  0.04041100  1
  C  939  1  0.75250500  0.60862300  0.01886700  1
  C  941  1  0.64712500  0.45426300  0.35982900  1
  C  942  1  0.66790100  0.47485000  0.36218600  1
  C  943  1  0.70385400  0.47815800  0.37041700  1
  C  944  1  0.72064100  0.46036600  0.37550700  1
  C  945  1  0.70102800  0.43853000  0.37185700  1
  C  948  1  0.66355700  0.43586200  0.36476600  1
  C  949  1  0.72084900  0.41927100  0.37583200  1
  C  953  1  0.64146400  0.41509400  0.36449900  1
  C  957  1  0.61062800  0.45493300  0.35491000  1
  C  959  1  0.75236500  0.46828600  0.38963100  1
  C  961  1  0.66798200  0.94516900  0.52332800  1
  C  965  1  0.64155600  0.00731000  0.58300500  1
  C  968  1  0.14717200  0.39903500  0.92430400  1
  C  969  1  0.16794500  0.40144800  0.90610500  1
  C  970  1  0.20389300  0.40969100  0.91104700  1
  C  971  1  0.22068200  0.41472600  0.93391100  1
  C  972  1  0.20107700  0.41100900  0.95205900  1
  C  975  1  0.16360700  0.40392200  0.94762400  1
  C  976  1  0.22090900  0.41491300  0.97526400  1
  C  980  1  0.14151700  0.40362300  0.96811000  1
  C  984  1  0.11067500  0.39410900  0.91870400  1
  C  986  1  0.25238400  0.42887600  0.94015800  1
  C  988  1  0.14725800  0.58316600  0.59923200  1
  C  989  1  0.16808300  0.56258900  0.59685500  1
  C  990  1  0.20403100  0.55930800  0.58862000  1
  C  991  1  0.22072500  0.57709700  0.58349300  1
  C  992  1  0.20109400  0.59893700  0.58716900  1
  C  995  1  0.16362600  0.60156700  0.59426600  1
  C  996  1  0.22085800  0.61822800  0.58321100  1
  C  1000  1  0.14147100  0.62229200  0.59449700  1
  C  1004  1  0.11077500  0.58247500  0.60418200  1
  C  1006  1  0.25250300  0.56928000  0.56941900  1
  C  1008  1  0.14705800  0.07389000  0.41504900  1
  C  1009  1  0.16778500  0.09213800  0.43565700  1
  C  1010  1  0.20375500  0.08726100  0.43898000  1
  C  1011  1  0.22060900  0.06441100  0.42118000  1
  C  1012  1  0.20104500  0.04621300  0.39932400  1
  C  1015  1  0.16355800  0.05058400  0.39664200  1
  C  1016  1  0.22093600  0.02302200  0.38005400  1
  C  1020  1  0.14152200  0.03005800  0.37585500  1
  C  1024  1  0.11053900  0.07942500  0.41570100  1
  C  1026  1  0.25233800  0.05823000  0.42911700  1
  C  1028  1  0.18909900  0.59107900  0.92573900  1
  C  1029  1  0.16393400  0.57229900  0.90985800  1
  C  1030  1  0.12770500  0.57349000  0.91701900  1
  C  1031  1  0.11523400  0.59361400  0.94036000  1
  C  1032  1  0.13973700  0.61328500  0.95666900  1
  C  1035  1  0.17692900  0.61209600  0.94923500  1
  C  1036  1  0.12681500  0.63484600  0.98152200  1
  C  1040  1  0.20408500  0.63190900  0.96556300  1
  C  1044  1  0.22516900  0.58610400  0.91800200  1
  C  1046  1  0.08132600  0.59055100  0.94837600  1
  C  1048  1  0.18922400  0.07245000  0.60570900  1
  C  1049  1  0.16405800  0.08831000  0.60277900  1
  C  1050  1  0.12781000  0.08116300  0.59686500  1
  C  1051  1  0.11530700  0.05786800  0.59375700  1
  C  1052  1  0.13983400  0.04158200  0.59713500  1
  C  1055  1  0.17703700  0.04900400  0.60333600  1
  C  1056  1  0.12689900  0.01675900  0.59391000  1
  C  1060  1  0.20419000  0.03269700  0.60685700  1
  C  1064  1  0.22531200  0.08013900  0.60838500  1
  C  1066  1  0.08144500  0.04982600  0.58261100  1
  C  1068  1  0.18909400  0.39254300  0.40713100  1
  C  1069  1  0.16388500  0.39543400  0.42588200  1
  C  1070  1  0.12766400  0.40140900  0.42466100  1
  C  1071  1  0.11522600  0.40463500  0.40453500  1
  C  1072  1  0.13979400  0.40128700  0.38489800  1
  C  1075  1  0.17697800  0.39504100  0.38611600  1
  C  1076  1  0.12693100  0.40459600  0.36333400  1
  C  1080  1  0.20417700  0.39156700  0.36633200  1
  C  1084  1  0.22515000  0.38977200  0.41213300  1
  C  1086  1  0.08132300  0.41570500  0.40756500  1
  C  1088  1  0.68923900  0.44629500  0.03327400  1
  C  1089  1  0.66406300  0.46507100  0.04914800  1
  C  1090  1  0.62781500  0.46383600  0.04200300  1
  C  1091  1  0.61532000  0.44366400  0.01869700  1
  C  1092  1  0.63985800  0.42401600  0.00239400  1
  C  1095  1  0.67706100  0.42523800  0.00981500  1
  C  1096  1  0.62693000  0.40243900  0.97755400  1
  C  1100  1  0.70422400  0.40542700  0.99349500  1
  C  1104  1  0.72532200  0.45130900  0.04097100  1
  C  1106  1  0.58144100  0.44676200  0.01067100  1
  C  1111  1  0.70415400  0.00480100  0.35244300  1
  C  1114  1  0.68918700  0.64496900  0.55200900  1
  C  1115  1  0.66401400  0.64203400  0.53322000  1
  C  1116  1  0.62777700  0.63608700  0.53443800  1
  C  1117  1  0.61529000  0.63295700  0.55461400  1
  C  1118  1  0.63982000  0.63634000  0.57427900  1
  C  1121  1  0.67701200  0.64256700  0.57306900  1
  C  1122  1  0.62689800  0.63309600  0.59586700  1
  C  1126  1  0.70417000  0.64609300  0.59289500  1
  C  1130  1  0.72526300  0.64769100  0.54701000  1
  C  1132  1  0.58143600  0.62179500  0.55150400  1
  C  1134  1  0.91535500  0.67452600  0.99892500  1
  C  1135  1  0.92200000  0.65073500  0.97709000  1
  C  1136  1  0.93972400  0.64901800  0.95595200  1
  C  1137  1  0.95306600  0.67090300  0.95619200  1
  C  1138  1  0.94708000  0.69531200  0.97832600  1
  C  1141  1  0.92734100  0.69717900  0.99961100  1
  C  1142  1  0.96143300  0.71917800  0.97987400  1
  C  1146  1  0.91936600  0.72266500  0.02232600  1
  C  1150  1  0.89735600  0.67369700  0.01851700  1
  C  1152  1  0.96911900  0.66787200  0.93396000  1
  C  1154  1  0.91536500  0.38245300  0.32402900  1
  C  1155  1  0.92203700  0.38429400  0.34776500  1
  C  1156  1  0.93979300  0.36482400  0.34937400  1
  C  1157  1  0.95317400  0.34325400  0.32743300  1
  C  1158  1  0.94716700  0.34109800  0.30307800  1
  C  1161  1  0.92739100  0.36056300  0.30132000  1
  C  1162  1  0.96153100  0.31885100  0.27916200  1
  C  1166  1  0.91941900  0.35792300  0.27588700  1
  C  1170  1  0.89723300  0.40288500  0.32498900  1
  C  1172  1  0.96924200  0.32399700  0.33036300  1
  C  1174  1  0.92202900  0.02126700  0.61392000  1
  C  1175  1  0.93973100  0.04239600  0.63336600  1
  C  1176  1  0.95301700  0.04213900  0.65501500  1
  C  1177  1  0.94701100  0.01999000  0.65726000  1
  C  1180  1  0.92728700  0.99871500  0.63781600  1
  C  1181  1  0.96131500  0.01842000  0.67957800  1
  C  1185  1  0.96907200  0.06436000  0.67423400  1
  C  1187  1  0.41541800  0.36306700  0.96017400  1
  C  1188  1  0.42211700  0.38684800  0.98200400  1
  C  1189  1  0.43977500  0.38854000  0.00315300  1
  C  1190  1  0.45305700  0.36663800  0.00290800  1
  C  1191  1  0.44703400  0.34223800  0.98076900  1
  C  1194  1  0.42733100  0.34039800  0.95948500  1
  C  1195  1  0.46131300  0.31835700  0.97922400  1
  C  1199  1  0.41930500  0.31492500  0.93676500  1
  C  1203  1  0.39743300  0.36394300  0.94061300  1
  C  1205  1  0.46903700  0.36965200  0.02515200  1
  C  1207  1  0.41534500  0.65512200  0.63530600  1
  C  1208  1  0.42196300  0.65316300  0.61151300  1
  C  1209  1  0.43967500  0.67258100  0.60978400  1
  C  1210  1  0.45302900  0.69422800  0.63166300  1
  C  1211  1  0.44707200  0.69650600  0.65607500  1
  C  1214  1  0.42734800  0.67709100  0.65795400  1
  C  1215  1  0.46143800  0.71882800  0.67993200  1
  C  1219  1  0.41940200  0.67986400  0.68344400  1
  C  1223  1  0.39735000  0.63470300  0.63448900  1
  C  1225  1  0.46906200  0.71342800  0.62862200  1
  C  1227  1  0.41536700  0.03796900  0.34327000  1
  C  1228  1  0.42205000  0.01607600  0.34511400  1
  C  1229  1  0.44719300  0.01757600  0.30192500  1
  C  1231  1  0.42739600  0.03879200  0.32138400  1
  C  1233  1  0.41941000  0.06158100  0.31874200  1
  C  1237  1  0.39723300  0.05744100  0.36370200  1
  C  1239  1  0.92007600  0.37088800  0.95355800  1
  C  1240  1  0.90920500  0.39605600  0.97073300  1
  C  1241  1  0.89748700  0.40304600  0.99531900  1
  C  1242  1  0.89571200  0.38501200  0.00345600  1
  C  1243  1  0.90421200  0.35898900  0.98583400  1
  C  1246  1  0.91673100  0.35188800  0.96074600  1
  C  1247  1  0.90059600  0.33907500  0.99344800  1
  C  1251  1  0.92688400  0.32480900  0.94249600  1
  C  1255  1  0.93673500  0.36679800  0.93131900  1
  C  1257  1  0.89259400  0.39415700  0.02948000  1
  C  1259  1  0.92006700  0.64059800  0.62740000  1
  C  1260  1  0.90912500  0.63262300  0.60225000  1
  C  1261  1  0.89736700  0.65024000  0.59529600  1
  C  1262  1  0.89554100  0.67640600  0.61336000  1
  C  1263  1  0.90409900  0.68477100  0.63936600  1
  C  1266  1  0.91669400  0.66677100  0.64642800  1
  C  1267  1  0.90046900  0.71228800  0.65930300  1
  C  1271  1  0.92692900  0.67558000  0.67348900  1
  C  1275  1  0.93677900  0.62244400  0.63145000  1
  C  1277  1  0.89248300  0.69329000  0.60421900  1
  C  1279  1  0.91991900  0.04477400  0.35766200  1
  C  1280  1  0.90897100  0.02761700  0.36565600  1
  C  1281  1  0.89725900  0.00303300  0.34805600  1
  C  1282  1  0.90413500  0.01248300  0.31347900  1
  C  1284  1  0.91666000  0.03757200  0.33146700  1
  C  1285  1  0.90060100  0.00485800  0.28594400  1
  C  1287  1  0.92692000  0.05579700  0.32263100  1
  C  1291  1  0.93658500  0.06699900  0.37581600  1
  C  1293  1  0.42006200  0.66674700  0.00564300  1
  C  1294  1  0.40898200  0.64160300  0.98856800  1
  C  1295  1  0.39726000  0.63456300  0.96396800  1
  C  1296  1  0.39561900  0.65252800  0.95573300  1
  C  1297  1  0.40432200  0.67853400  0.97327000  1
  C  1300  1  0.41686200  0.68568700  0.99836600  1
  C  1301  1  0.40089800  0.69837100  0.96554000  1
  C  1305  1  0.42721800  0.71274800  0.01652000  1
  C  1309  1  0.43674800  0.67085600  0.02787600  1
  C  1311  1  0.39257900  0.64325600  0.92968800  1
  C  1313  1  0.42002700  0.39684000  0.33161800  1
  C  1314  1  0.40907600  0.40486800  0.35677800  1
  C  1315  1  0.39735500  0.38729500  0.36379600  1
  C  1316  1  0.39564300  0.36110500  0.34580700  1
  C  1317  1  0.40423800  0.35267300  0.31979000  1
  C  1320  1  0.41675700  0.37063500  0.31265400  1
  C  1321  1  0.40071100  0.32512600  0.29991000  1
  C  1325  1  0.42699300  0.36176400  0.28558000  1
  C  1329  1  0.43668400  0.41497800  0.32751000  1
  C  1331  1  0.39253600  0.34427200  0.35500300  1
  C  1333  1  0.40914900  0.00990900  0.59342300  1
  C  1334  1  0.39740600  0.03448800  0.61102900  1
  C  1335  1  0.39559700  0.04261300  0.63720000  1
  C  1336  1  0.40415700  0.02498700  0.64558400  1
  C  1338  1  0.41673500  0.99991600  0.62759600  1
  C  1339  1  0.40054400  0.03259200  0.67310800  1
  C  1343  1  0.39253800  0.06864100  0.65406400  1
  C  1345  1  0.79076300  0.63301700  0.15050600  1
  C  1346  1  0.78351100  0.61050900  0.12739000  1
  C  1347  1  0.77531700  0.58788200  0.12705900  1
  C  1348  1  0.77432500  0.58708800  0.14984800  1
  C  1349  1  0.77810500  0.61005400  0.17367700  1
  C  1352  1  0.78667000  0.63326600  0.17399100  1
  C  1353  1  0.77421900  0.60982300  0.19811400  1
  C  1357  1  0.79240400  0.65732000  0.19871400  1
  C  1361  1  0.81096500  0.65076900  0.14795300  1
  C  1363  1  0.77490800  0.56305500  0.14708100  1
  C  1365  1  0.79074300  0.57540100  0.36515100  1
  C  1366  1  0.78326800  0.57473300  0.38760300  1
  C  1367  1  0.77512000  0.59703000  0.41025000  1
  C  1368  1  0.77429600  0.62063800  0.41108800  1
  C  1369  1  0.77824300  0.62155200  0.38816400  1
  C  1372  1  0.78679100  0.59866500  0.36494000  1
  C  1373  1  0.77455100  0.64626000  0.38845700  1
  C  1377  1  0.79269600  0.59937600  0.34092300  1
  C  1381  1  0.81102600  0.55512100  0.34744200  1
  C  1383  1  0.77514000  0.64184700  0.43515500  1
  C  1385  1  0.79085900  0.84790500  0.42298900  1
  C  1386  1  0.78372300  0.87103100  0.42359100  1
  C  1387  1  0.77556400  0.87136900  0.40129500  1
  C  1388  1  0.77450400  0.84857800  0.37771400  1
  C  1389  1  0.77819300  0.82474500  0.37685400  1
  C  1392  1  0.78671000  0.82442400  0.39975600  1
  C  1393  1  0.77425700  0.80031100  0.35218800  1
  C  1397  1  0.79233500  0.79969200  0.39909000  1
  C  1401  1  0.81100400  0.85043100  0.44330500  1
  C  1403  1  0.77507800  0.85134000  0.35644400  1
  C  1405  1  0.29074700  0.40437100  0.80842500  1
  C  1406  1  0.28332600  0.42681700  0.83156100  1
  C  1407  1  0.27514800  0.44947400  0.83193700  1
  C  1408  1  0.27425000  0.45032800  0.80917800  1
  C  1409  1  0.27815000  0.42741000  0.78532600  1
  C  1412  1  0.28672800  0.40417800  0.78496200  1
  C  1413  1  0.27438000  0.42771900  0.76092400  1
  C  1417  1  0.29258900  0.38016900  0.76022100  1
  C  1421  1  0.31106300  0.38665300  0.81095500  1
  C  1423  1  0.27502900  0.47439800  0.81204300  1
  C  1425  1  0.29075200  0.46204100  0.59381300  1
  C  1426  1  0.28348600  0.46265000  0.57130700  1
  C  1427  1  0.27530200  0.44035400  0.54867800  1
  C  1428  1  0.27433600  0.41676700  0.54787900  1
  C  1429  1  0.27813100  0.41590000  0.57084200  1
  C  1432  1  0.28668500  0.43879800  0.59405500  1
  C  1433  1  0.27427100  0.39122900  0.57060700  1
  C  1437  1  0.29243200  0.43812800  0.61810800  1
  C  1441  1  0.31095000  0.48234800  0.61156400  1
  C  1443  1  0.27492300  0.39550500  0.52384400  1
  C  1445  1  0.29078500  0.18976800  0.53620400  1
  C  1446  1  0.28332900  0.16665200  0.53554800  1
  C  1447  1  0.27514500  0.16631100  0.55784300  1
  C  1448  1  0.27426900  0.18908900  0.58144400  1
  C  1449  1  0.27820100  0.21292300  0.58234500  1
  C  1452  1  0.28678500  0.21324900  0.55945700  1
  C  1453  1  0.27445300  0.23734300  0.60703900  1
  C  1457  1  0.29267500  0.23797200  0.56015700  1
  C  1461  1  0.31106300  0.18719700  0.51592200  1
  C  1463  1  0.27503900  0.18625300  0.60266500  1
  C  1465  1  0.05157100  0.45999800  0.80939100  1
  C  1466  1  0.05801300  0.46104100  0.83279100  1
  C  1467  1  0.06531000  0.43888600  0.83362000  1
  C  1468  1  0.06603200  0.41508300  0.81106500  1
  C  1469  1  0.06325400  0.41375700  0.78698100  1
  C  1472  1  0.05576600  0.43651600  0.78616600  1
  C  1473  1  0.06683000  0.38878300  0.76283200  1
  C  1477  1  0.05121100  0.43551300  0.76119300  1
  C  1481  1  0.03086000  0.47976900  0.81122100  1
  C  1483  1  0.06340000  0.39413200  0.81423300  1
  C  1485  1  0.05167600  0.18910400  0.59098100  1
  C  1486  1  0.05834800  0.16568600  0.56868800  1
  C  1487  1  0.06567700  0.16482200  0.54568800  1
  C  1488  1  0.06632700  0.18734500  0.54437300  1
  C  1489  1  0.06338100  0.21144500  0.56709000  1
  C  1492  1  0.05580900  0.21230700  0.59067400  1
  C  1493  1  0.06687600  0.23556100  0.56619900  1
  C  1497  1  0.05106200  0.23730000  0.61459500  1
  C  1501  1  0.03083300  0.18729000  0.60887700  1
  C  1503  1  0.06353300  0.18407800  0.52022700  1
  C  1505  1  0.05162500  0.40741400  0.53838600  1
  C  1506  1  0.05809900  0.42976700  0.53734000  1
  C  1507  1  0.06545000  0.45274400  0.55948900  1
  C  1508  1  0.06619700  0.45399300  0.58329400  1
  C  1509  1  0.06338900  0.43123400  0.58461900  1
  C  1512  1  0.05583900  0.40766800  0.56186600  1
  C  1513  1  0.06700500  0.43205100  0.60958700  1
  C  1517  1  0.05123800  0.38370300  0.56287400  1
  C  1521  1  0.03090300  0.38947500  0.51862000  1
  C  1523  1  0.06364900  0.47811300  0.60425700  1
  C  1525  1  0.55175700  0.57764700  0.14987900  1
  C  1526  1  0.55846900  0.57654300  0.12647700  1
  C  1527  1  0.56577400  0.59869600  0.12563600  1
  C  1528  1  0.56635500  0.62252500  0.14816800  1
  C  1529  1  0.56337200  0.62389000  0.17225900  1
  C  1532  1  0.55583000  0.60115000  0.17309500  1
  C  1533  1  0.56679300  0.64889300  0.19638700  1
  C  1537  1  0.55105100  0.60220100  0.19807500  1
  C  1541  1  0.53094300  0.55790800  0.14802800  1
  C  1543  1  0.56354800  0.64341200  0.14491500  1
  C  1545  1  0.55151900  0.84870200  0.36823200  1
  C  1546  1  0.55793100  0.87209100  0.39060700  1
  C  1547  1  0.56527900  0.87289100  0.41357200  1
  C  1548  1  0.56607900  0.85032300  0.41479800  1
  C  1549  1  0.56331600  0.82625400  0.39201300  1
  C  1552  1  0.55578100  0.82546400  0.36845500  1
  C  1553  1  0.56696400  0.80208800  0.39279800  1
  C  1557  1  0.55125400  0.80050200  0.34446900  1
  C  1561  1  0.53081600  0.85054100  0.35029200  1
  C  1563  1  0.56354300  0.85345000  0.43890400  1
  C  1565  1  0.55170500  0.63023300  0.42062400  1
  C  1566  1  0.55839900  0.60795200  0.42176300  1
  C  1567  1  0.56569000  0.58494000  0.39962900  1
  C  1568  1  0.56628800  0.58360800  0.37578300  1
  C  1569  1  0.56332600  0.60631500  0.37438300  1
  C  1572  1  0.55578900  0.62991000  0.39710400  1
  C  1573  1  0.56676600  0.60540200  0.34936200  1
  C  1577  1  0.55102100  0.65382000  0.39601500  1
  C  1581  1  0.53085900  0.64813000  0.44033100  1
  C  1583  1  0.56341300  0.55945600  0.35492000  1
  N  1  1  0.53021300  0.99536300  0.33087800  1
  N  2  1  0.54222900  0.98513600  0.59479500  1
  N  3  1  0.80216000  0.98023400  0.32248700  1
  N  29  1  0.86289500  0.97788700  0.59678900  1
  N  30  1  0.78511700  0.97476800  0.53361100  1
  N  32  1  0.55021500  0.98014800  0.36599100  1
  N  33  1  0.47136300  0.96892800  0.58407700  1
  N  51  1  0.49044300  0.95729400  0.28660400  1
  N  54  1  0.59586700  0.95348500  0.55992600  1
  N  56  1  0.86987300  0.95297100  0.30536500  1
  N  57  1  0.74571500  0.95474300  0.33234600  1
  N  73  1  0.82016500  0.00371400  0.57999400  1
  N  89  1  0.82018200  0.63443800  0.99451400  1
  N  96  1  0.86005600  0.69916200  0.17554800  1
  N  104  1  0.90833500  0.70922000  0.14481400  1
  N  105  1  0.79741200  0.67070500  0.14871900  1
  N  106  1  0.86290300  0.67705600  0.02045500  1
  N  107  1  0.78517300  0.61686100  0.02332600  1
  N  115  1  0.82005800  0.41816500  0.36395300  1
  N  122  1  0.86032100  0.53434000  0.29917000  1
  N  130  1  0.90856400  0.49354400  0.28908800  1
  N  131  1  0.79754700  0.53592100  0.32749700  1
  N  132  1  0.86283400  0.40140900  0.32136800  1
  N  133  1  0.78505600  0.46454600  0.38143800  1
  N  144  1  0.86004300  0.82267100  0.46397200  1
  N  152  1  0.90836600  0.85341600  0.50473700  1
  N  153  1  0.79740000  0.84958200  0.46242000  1
  N  161  1  0.32015300  0.40319700  0.96455000  1
  N  168  1  0.36009800  0.33826400  0.78343600  1
  N  176  1  0.40841400  0.32824900  0.81420000  1
  N  177  1  0.29750600  0.36677000  0.81030300  1
  N  178  1  0.36296200  0.36063800  0.93866800  1
  N  179  1  0.28508900  0.42071600  0.93571200  1
  N  187  1  0.32017500  0.61945400  0.59523800  1
  N  194  1  0.36003300  0.50314200  0.65996200  1
  N  202  1  0.40831600  0.54393800  0.67002600  1
  N  203  1  0.29739700  0.50151500  0.63150200  1
  N  204  1  0.36289700  0.63612700  0.63785100  1
  N  205  1  0.28517300  0.57306400  0.57765700  1
  N  213  1  0.32006100  0.03376900  0.37901300  1
  N  220  1  0.36037700  0.21470900  0.49516200  1
  N  228  1  0.40860000  0.18399000  0.45435500  1
  N  229  1  0.29758700  0.18797700  0.49673900  1
  N  230  1  0.36283200  0.05958000  0.36223200  1
  N  231  1  0.28503000  0.06268500  0.42538000  1
  N  239  1  0.03001600  0.64398800  0.95617500  1
  N  246  1  0.98379000  0.50008000  0.78300100  1
  N  254  1  0.93368800  0.54003900  0.81138500  1
  N  255  1  0.04433600  0.50017200  0.81303400  1
  N  256  1  0.99023600  0.65016500  0.91808900  1
  N  257  1  0.05017800  0.59368100  0.94093900  1
  N  265  1  0.02999700  0.04212000  0.62820700  1
  N  272  1  0.98375700  0.21527800  0.65735000  1
  N  280  1  0.93367300  0.18690400  0.66895700  1
  N  281  1  0.04425000  0.18525000  0.62735300  1
  N  282  1  0.99021300  0.08023500  0.67242200  1
  N  283  1  0.05025400  0.05727300  0.59310500  1
  N  291  1  0.03009500  0.37002000  0.35417100  1
  N  298  1  0.98386600  0.34098000  0.49823800  1
  N  306  1  0.93381400  0.32928200  0.45822500  1
  N  307  1  0.04436100  0.37093900  0.49817100  1
  N  308  1  0.99038200  0.32575600  0.34802900  1
  N  309  1  0.05017500  0.40514300  0.40445300  1
  N  317  1  0.52999900  0.39344900  0.00295600  1
  N  324  1  0.48372000  0.53753100  0.17603700  1
  N  332  1  0.43361700  0.49757600  0.14773900  1
  N  333  1  0.54431400  0.53741500  0.14606400  1
  N  334  1  0.49014300  0.38734700  0.04105600  1
  N  335  1  0.55026600  0.44370000  0.01812400  1
  N  346  1  0.48373100  0.82226600  0.30175600  1
  N  354  1  0.43369200  0.85060900  0.29008800  1
  N  355  1  0.54429800  0.85228400  0.33166400  1
  N  363  1  0.52994800  0.66736000  0.60480200  1
  N  370  1  0.48377900  0.69659600  0.46084200  1
  N  378  1  0.43366800  0.70815400  0.50079800  1
  N  379  1  0.54426800  0.66658700  0.46086100  1
  N  380  1  0.49018100  0.71159000  0.61091300  1
  N  381  1  0.55023700  0.63227600  0.55454900  1
  N  389  1  0.04214600  0.36978100  0.94591100  1
  N  396  1  0.00204900  0.33857600  0.77215600  1
  N  404  1  0.98008800  0.30241400  0.78425200  1
  N  405  1  0.03218500  0.38359200  0.81089300  1
  N  406  1  0.97129000  0.36424700  0.92966900  1
  N  407  1  0.09578600  0.37310800  0.91432700  1
  N  415  1  0.04220500  0.63400100  0.62838400  1
  N  422  1  0.00217900  0.49158800  0.65981100  1
  N  430  1  0.98006200  0.53982700  0.69589600  1
  N  431  1  0.03245300  0.48528700  0.61483600  1
  N  432  1  0.97135100  0.62326400  0.63387400  1
  N  433  1  0.09586800  0.59914800  0.62515300  1
  N  441  1  0.04197500  0.05230300  0.36426000  1
  N  448  1  0.00214100  0.22611300  0.50676800  1
  N  456  1  0.98017500  0.21402100  0.45850600  1
  N  457  1  0.03227400  0.18736100  0.51303700  1
  N  458  1  0.97116100  0.06859400  0.37500600  1
  N  459  1  0.09569700  0.08387600  0.39911300  1
  N  467  1  0.54215600  0.66770200  0.01318300  1
  N  474  1  0.50206700  0.69885600  0.18692400  1
  N  482  1  0.48016100  0.73505400  0.17485800  1
  N  483  1  0.53227300  0.65386300  0.14817800  1
  N  484  1  0.47133100  0.67322800  0.02945000  1
  N  485  1  0.59585000  0.66438200  0.04474800  1
  N  493  1  0.54209600  0.40340500  0.33056500  1
  N  500  1  0.50200000  0.54603200  0.29947900  1
  N  508  1  0.48011500  0.49777300  0.26326100  1
  N  509  1  0.53213600  0.55226600  0.34448800  1
  N  510  1  0.47124700  0.41411000  0.32501600  1
  N  511  1  0.59574500  0.43831700  0.33390400  1
  N  523  1  0.50210500  0.81133000  0.45235400  1
  N  529  1  0.48003600  0.82345100  0.50059300  1
  N  530  1  0.53235500  0.85002600  0.44607300  1
  N  538  1  0.80234000  0.40022100  0.01802800  1
  N  545  1  0.83476500  0.54915000  0.18990000  1
  N  553  1  0.85537900  0.50064500  0.17861800  1
  N  554  1  0.80515300  0.55491700  0.15072100  1
  N  555  1  0.87001200  0.41038700  0.04535400  1
  N  556  1  0.74585400  0.43555200  0.04348800  1
  N  569  1  0.83496200  0.80845100  0.29971200  1
  N  575  1  0.85548800  0.81967700  0.26242800  1
  N  576  1  0.80529500  0.84764100  0.34462200  1
  N  584  1  0.80223500  0.67587900  0.59815100  1
  N  591  1  0.83506900  0.69842800  0.44901700  1
  N  599  1  0.85549600  0.73575400  0.49753200  1
  N  600  1  0.80546600  0.65349400  0.44331600  1
  N  601  1  0.86997500  0.69296100  0.58796200  1
  N  602  1  0.74580600  0.66595100  0.56277600  1
  N  610  1  0.30217400  0.63720500  0.94109100  1
  N  617  1  0.33503000  0.48824600  0.76927700  1
  N  625  1  0.35549200  0.53675800  0.78048200  1
  N  626  1  0.30531300  0.48254500  0.80847400  1
  N  627  1  0.36990200  0.62706200  0.91388200  1
  N  628  1  0.24568200  0.60190500  0.91554400  1
  N  636  1  0.30229300  0.05723700  0.63660000  1
  N  643  1  0.33494100  0.22899100  0.65929300  1
  N  651  1  0.35541400  0.21776800  0.69658500  1
  N  652  1  0.30534900  0.18977000  0.61434400  1
  N  653  1  0.36999900  0.08454400  0.65372000  1
  N  654  1  0.24584500  0.08267200  0.62666500  1
  N  662  1  0.30219800  0.36175700  0.36105200  1
  N  669  1  0.33487100  0.33881600  0.50997300  1
  N  677  1  0.35542700  0.30156000  0.46146600  1
  N  678  1  0.30516500  0.38372000  0.51570900  1
  N  679  1  0.36989600  0.34465200  0.37121400  1
  N  680  1  0.24569000  0.37152900  0.39633600  1
