# generated using pymatgen
data_H3C7(NO)2
_symmetry_space_group_name_H-M   'P 1'
_cell_length_a   9.93566667
_cell_length_b   63.73120000
_cell_length_c   81.03380000
_cell_angle_alpha   90.00000000
_cell_angle_beta   90.00000000
_cell_angle_gamma   90.00000000
_symmetry_Int_Tables_number   1
_chemical_formula_structural   H3C7(NO)2
_chemical_formula_sum   'H216 C504 N144 O144'
_cell_volume   51311.57128103
_cell_formula_units_Z   72
loop_
 _symmetry_equiv_pos_site_id
 _symmetry_equiv_pos_as_xyz
  1  'x, y, z'
loop_
 _atom_site_type_symbol
 _atom_site_label
 _atom_site_symmetry_multiplicity
 _atom_site_fract_x
 _atom_site_fract_y
 _atom_site_fract_z
 _atom_site_occupancy
  C  1  1  0.00568000  0.42594500  0.06839700  1
  C  3  1  0.00549300  0.45933400  0.05477000  1
  C  5  1  0.00459700  0.45768500  0.08430400  1
  C  7  1  0.01388200  0.57993300  0.93773300  1
  C  9  1  0.00706500  0.54660400  0.95122400  1
  C  11  1  0.00145600  0.54825600  0.92179000  1
  C  13  1  0.01376600  0.08053500  0.56838700  1
  C  15  1  0.01394100  0.04714700  0.55476000  1
  C  17  1  0.01482200  0.04879600  0.58429300  1
  C  19  1  0.00557300  0.92654500  0.43772300  1
  C  21  1  0.01236800  0.95987400  0.45121300  1
  C  23  1  0.01792800  0.95822200  0.42178100  1
  C  25  1  0.99779300  0.40383500  0.46131100  1
  C  27  1  0.99121700  0.39165100  0.48925500  1
  C  29  1  0.00110500  0.42853700  0.48359700  1
  C  31  1  0.00736300  0.60285400  0.54451200  1
  C  33  1  0.99255500  0.61525600  0.51661300  1
  C  35  1  0.00372600  0.57844500  0.52210700  1
  C  37  1  0.02162200  0.10264100  0.96130600  1
  C  39  1  0.02820900  0.11482500  0.98925000  1
  C  41  1  0.01831000  0.07793800  0.98359200  1
  C  43  1  0.01209100  0.90362200  0.04451200  1
  C  45  1  0.02694100  0.89122000  0.01661200  1
  C  47  1  0.01571900  0.92803100  0.02210600  1
  C  49  1  0.99605600  0.26948200  0.07827600  1
  C  51  1  0.02489400  0.23360600  0.07092100  1
  C  53  1  0.01565400  0.24343000  0.09934200  1
  C  55  1  0.00744100  0.73643700  0.92762600  1
  C  57  1  0.03360500  0.77233200  0.93502700  1
  C  59  1  0.02424800  0.76260600  0.90657600  1
  C  61  1  0.02325200  0.23699500  0.57828600  1
  C  63  1  0.99457800  0.27287400  0.57093100  1
  C  65  1  0.00375700  0.26305000  0.59935200  1
  C  67  1  0.01196900  0.77003900  0.42762400  1
  C  69  1  0.98594300  0.73414300  0.43502400  1
  C  71  1  0.99525600  0.74387000  0.40657200  1
  C  73  1  0.03723800  0.35417700  0.31651100  1
  C  75  1  0.01277500  0.37706800  0.33942000  1
  C  77  1  0.01634300  0.39096100  0.31213300  1
  C  79  1  0.02944300  0.65230200  0.68953500  1
  C  81  1  0.02667500  0.62921300  0.66666667  1
  C  83  1  0.03809700  0.61533100  0.69382700  1
  C  85  1  0.98239500  0.15229800  0.81650200  1
  C  87  1  0.00671600  0.12940700  0.83941400  1
  C  89  1  0.00316800  0.11551000  0.81212600  1
  C  91  1  0.98992300  0.85417500  0.18953400  1
  C  93  1  0.99282600  0.87726100  0.16661300  1
  C  95  1  0.98142300  0.89114600  0.19382500  1
  C  97  1  0.03324700  0.22512500  0.24752400  1
  C  99  1  0.03683500  0.18819700  0.24311800  1
  C  101  1  0.04244500  0.21136900  0.22016200  1
  C  103  1  0.01841600  0.78145300  0.75852600  1
  C  105  1  0.02553800  0.81839500  0.76291300  1
  C  107  1  0.03231500  0.79522500  0.78583000  1
  C  109  1  0.98611800  0.28136000  0.74753200  1
  C  111  1  0.98253600  0.31828800  0.74312800  1
  C  113  1  0.97693900  0.29511800  0.72017100  1
  C  115  1  0.00115000  0.72502700  0.25853400  1
  C  117  1  0.99403900  0.68808200  0.26291500  1
  C  119  1  0.98737600  0.71124500  0.28583200  1
  C  121  1  0.99215200  0.01524900  0.30666400  1
  C  123  1  0.00918600  0.04105500  0.28547100  1
  C  125  1  0.98336000  0.00492200  0.27844400  1
  C  127  1  0.99363700  0.99132600  0.69925400  1
  C  129  1  0.01192000  0.96555400  0.72044600  1
  C  131  1  0.99312400  0.00179200  0.72745300  1
  C  133  1  0.02731400  0.49123800  0.80667200  1
  C  135  1  0.01039100  0.46542800  0.78548000  1
  C  137  1  0.03615600  0.50156100  0.77845000  1
  C  139  1  0.02568700  0.51515000  0.19926400  1
  C  141  1  0.00738700  0.54092200  0.22045600  1
  C  143  1  0.02621200  0.50468400  0.22746300  1
  C  145  1  0.00614200  0.47155600  0.03990900  1
  C  146  1  0.97776500  0.49332400  0.04009100  1
  C  147  1  0.97855400  0.50533200  0.02550700  1
  C  148  1  0.01025900  0.49628800  0.01003300  1
  C  149  1  0.03891400  0.47441500  0.00958500  1
  C  150  1  0.03571700  0.46245800  0.02437800  1
  C  152  1  0.01150700  0.50925800  0.99548400  1
  C  153  1  0.09163300  0.52772000  0.99425000  1
  C  154  1  0.08676200  0.54013700  0.97970300  1
  C  155  1  0.00736300  0.53438000  0.96595100  1
  C  156  1  0.92995100  0.51585000  0.96723200  1
  C  157  1  0.93014300  0.50379300  0.98179100  1
  C  169  1  0.01329300  0.03492400  0.53989900  1
  C  170  1  0.04166100  0.01315600  0.54008200  1
  C  171  1  0.04087700  0.00114700  0.52549800  1
  C  172  1  0.00918200  0.01019200  0.51002400  1
  C  173  1  0.98053800  0.03206500  0.50957500  1
  C  174  1  0.98373300  0.04402200  0.52436700  1
  C  176  1  0.00793400  0.99722000  0.49547400  1
  C  177  1  0.92780300  0.97876000  0.49424000  1
  C  178  1  0.93266900  0.96634000  0.47969200  1
  C  179  1  0.01206000  0.97209900  0.46594000  1
  C  180  1  0.08948900  0.99062700  0.46722100  1
  C  181  1  0.08930200  0.00268500  0.48178100  1
  C  193  1  0.00489000  0.40346200  0.06825900  1
  C  194  1  0.02930600  0.39192000  0.08289100  1
  C  195  1  0.02416400  0.36989600  0.08311400  1
  C  196  1  0.99205500  0.35827000  0.06878000  1
  C  197  1  0.97051300  0.36948200  0.05384000  1
  C  198  1  0.97763900  0.39177200  0.05377200  1
  C  200  1  0.98162400  0.33585300  0.07003500  1
  C  201  1  0.89281700  0.32617300  0.08151600  1
  C  202  1  0.89652700  0.30412000  0.08370400  1
  C  203  1  0.98390900  0.29116200  0.07444600  1
  C  204  1  0.06689900  0.30082000  0.06251000  1
  C  205  1  0.06690300  0.32280000  0.06050100  1
  C  217  1  0.01685100  0.60241000  0.93787100  1
  C  218  1  0.04327200  0.61385200  0.92324400  1
  C  219  1  0.03944700  0.63588200  0.92295900  1
  C  220  1  0.00667200  0.64761200  0.93722000  1
  C  221  1  0.98365200  0.63649800  0.95217000  1
  C  222  1  0.98959100  0.61419900  0.95230700  1
  C  224  1  0.99606300  0.67002400  0.93586300  1
  C  225  1  0.90761400  0.67959400  0.92428300  1
  C  226  1  0.91050300  0.70164700  0.92207700  1
  C  227  1  0.99667600  0.71471800  0.93140800  1
  C  228  1  0.07927700  0.70516300  0.94343800  1
  C  229  1  0.08012700  0.68318500  0.94546700  1
  C  241  1  0.01456100  0.10301900  0.56825000  1
  C  242  1  0.99008300  0.11456100  0.58288100  1
  C  243  1  0.99521600  0.13658400  0.58310500  1
  C  244  1  0.02737400  0.14821000  0.56877300  1
  C  245  1  0.04896700  0.13700100  0.55383400  1
  C  246  1  0.04184600  0.11470900  0.55376500  1
  C  248  1  0.03779000  0.17062900  0.57003100  1
  C  249  1  0.12654700  0.18030700  0.58151900  1
  C  250  1  0.12279400  0.20235900  0.58371300  1
  C  251  1  0.03538500  0.21531400  0.57445800  1
  C  252  1  0.95251200  0.20566200  0.56250700  1
  C  253  1  0.95255100  0.18368200  0.56049300  1
  C  265  1  0.00257500  0.90406600  0.43786200  1
  C  266  1  0.97620400  0.89262400  0.42323300  1
  C  267  1  0.98002800  0.87059400  0.42295000  1
  C  268  1  0.01275500  0.85886400  0.43721100  1
  C  269  1  0.03573300  0.86997900  0.45216300  1
  C  270  1  0.02979900  0.89227900  0.45229900  1
  C  272  1  0.02336200  0.83645200  0.43585600  1
  C  273  1  0.11184200  0.82688100  0.42428100  1
  C  274  1  0.10895400  0.80482700  0.42207700  1
  C  275  1  0.02277500  0.79175700  0.43140700  1
  C  276  1  0.94012200  0.80131400  0.44343100  1
  C  277  1  0.93926600  0.82329200  0.44545700  1
  C  289  1  0.00549300  0.46743500  0.10021200  1
  C  290  1  0.97737200  0.45567800  0.11462900  1
  C  291  1  0.98256400  0.46485600  0.13037400  1
  C  292  1  0.01852300  0.48615100  0.13250900  1
  C  293  1  0.04425700  0.49839700  0.11818900  1
  C  294  1  0.03678500  0.48894900  0.10232500  1
  C  296  1  0.02924600  0.49431400  0.14895300  1
  C  297  1  0.11627200  0.48502300  0.16082300  1
  C  298  1  0.11480200  0.49235700  0.17732600  1
  C  299  1  0.03131900  0.50913700  0.18238200  1
  C  300  1  0.94971400  0.51883700  0.17031900  1
  C  301  1  0.94740900  0.51135700  0.15395400  1
  C  313  1  0.99939800  0.53855900  0.90586600  1
  C  314  1  0.97157000  0.55044600  0.89150900  1
  C  315  1  0.97623400  0.54137200  0.87572200  1
  C  316  1  0.01138700  0.52005800  0.87349200  1
  C  317  1  0.03632100  0.50767000  0.88775800  1
  C  318  1  0.02927600  0.51701100  0.90366200  1
  C  320  1  0.02333400  0.51204400  0.85701500  1
  C  321  1  0.11210000  0.52133800  0.84534300  1
  C  322  1  0.11286900  0.51404400  0.82882800  1
  C  323  1  0.02993000  0.49730000  0.82356200  1
  C  324  1  0.94640700  0.48761700  0.83543900  1
  C  325  1  0.94190900  0.49505100  0.85181000  1
  C  337  1  0.01392800  0.03904500  0.60020100  1
  C  338  1  0.04204200  0.05080100  0.61462000  1
  C  339  1  0.03683500  0.04162400  0.63036400  1
  C  340  1  0.00086300  0.02032800  0.63249900  1
  C  341  1  0.97512200  0.00808400  0.61817800  1
  C  342  1  0.98261000  0.01753200  0.60231500  1
  C  344  1  0.99012400  0.01216600  0.64894200  1
  C  345  1  0.90311000  0.02145700  0.66081300  1
  C  346  1  0.90456400  0.01412300  0.67731600  1
  C  347  1  0.98803500  0.99734200  0.68237200  1
  C  348  1  0.06962000  0.98763900  0.67030900  1
  C  349  1  0.07194100  0.99511900  0.65394400  1
  C  361  1  0.02000100  0.96792000  0.40585600  1
  C  362  1  0.04782100  0.95603300  0.39149900  1
  C  363  1  0.04317500  0.96510800  0.37571200  1
  C  364  1  0.00805400  0.98642300  0.37348200  1
  C  365  1  0.98314000  0.99881100  0.38774900  1
  C  366  1  0.99016900  0.98946900  0.40365200  1
  C  368  1  0.99611200  0.99443800  0.35700600  1
  C  369  1  0.90732500  0.98514900  0.34533500  1
  C  370  1  0.90655500  0.99244500  0.32882100  1
  C  371  1  0.98948900  0.00919100  0.32355500  1
  C  372  1  0.07306700  0.01886500  0.33543000  1
  C  373  1  0.07756700  0.01142800  0.35180100  1
  C  385  1  0.00442500  0.44990200  0.48904800  1
  C  386  1  0.97172900  0.45549600  0.50545800  1
  C  387  1  0.97247000  0.47658800  0.51064100  1
  C  388  1  0.00840000  0.49304800  0.49976200  1
  C  389  1  0.04233600  0.48772400  0.48323500  1
  C  390  1  0.03911500  0.46642500  0.47814700  1
  C  392  1  0.00947700  0.51434000  0.50560700  1
  C  393  1  0.08769600  0.52070600  0.51943700  1
  C  394  1  0.08333400  0.54188200  0.52482800  1
  C  395  1  0.00629200  0.55726900  0.51651800  1
  C  396  1  0.93113900  0.55083100  0.50261600  1
  C  397  1  0.93095400  0.52973300  0.49746100  1
  C  409  1  0.01497900  0.05657300  0.98904400  1
  C  410  1  0.04768400  0.05098100  0.00545400  1
  C  411  1  0.04694400  0.02988900  0.01063700  1
  C  412  1  0.01100300  0.01343000  0.99975900  1
  C  413  1  0.97706000  0.01875300  0.98323400  1
  C  414  1  0.98028100  0.04005000  0.97814300  1
  C  416  1  0.00993200  0.99213600  0.00560500  1
  C  417  1  0.93172900  0.98577200  0.01943600  1
  C  418  1  0.93610100  0.96459500  0.02482700  1
  C  419  1  0.01314300  0.94920900  0.01651800  1
  C  420  1  0.08828000  0.95564700  0.00261400  1
  C  421  1  0.08845300  0.97674500  0.99745900  1
  C  433  1  0.99910000  0.39994700  0.44392300  1
  C  434  1  0.96087500  0.38031500  0.43725200  1
  C  435  1  0.95955200  0.37683400  0.42008500  1
  C  436  1  0.99713300  0.39280800  0.40886900  1
  C  437  1  0.03946600  0.41245700  0.41532600  1
  C  438  1  0.03894800  0.41574200  0.43263300  1
  C  440  1  0.99518100  0.38867900  0.39149700  1
  C  441  1  0.91083800  0.40002600  0.38048200  1
  C  442  1  0.91830700  0.39600100  0.36329000  1
  C  443  1  0.00467300  0.38047300  0.35672800  1
  C  444  1  0.08347400  0.36868900  0.36789800  1
  C  445  1  0.07982600  0.37287600  0.38495300  1
  C  457  1  0.01165300  0.60670100  0.56193600  1
  C  458  1  0.01673000  0.62729300  0.56844400  1
  C  459  1  0.01931800  0.63093600  0.58558400  1
  C  460  1  0.01559900  0.61417700  0.59703800  1
  C  461  1  0.01110400  0.59335800  0.59075800  1
  C  462  1  0.00953100  0.58997200  0.57345800  1
  C  464  1  0.01674500  0.61854800  0.61442700  1
  C  465  1  0.91769800  0.63141000  0.62209800  1
  C  466  1  0.92420900  0.63524200  0.63934000  1
  C  467  1  0.02399800  0.62587600  0.64932900  1
  C  468  1  0.12039200  0.61286000  0.64166200  1
  C  469  1  0.11834900  0.60963600  0.62448800  1
  C  481  1  0.02030800  0.10652900  0.94391900  1
  C  482  1  0.05869100  0.12615300  0.93724700  1
  C  483  1  0.06001400  0.12963400  0.92008000  1
  C  484  1  0.02226200  0.11366800  0.90886500  1
  C  485  1  0.97975700  0.09402900  0.91532400  1
  C  486  1  0.98028500  0.09074400  0.93263000  1
  C  488  1  0.02423300  0.11779400  0.89149300  1
  C  489  1  0.10845500  0.10642800  0.88047700  1
  C  490  1  0.10101300  0.11045400  0.86328400  1
  C  491  1  0.01478900  0.12600000  0.85672200  1
  C  492  1  0.93612100  0.13780500  0.86789300  1
  C  493  1  0.93974100  0.13361900  0.88494800  1
  C  505  1  0.00777900  0.89977500  0.06193500  1
  C  506  1  0.00307700  0.87918000  0.06844500  1
  C  507  1  0.00050000  0.87553700  0.08558500  1
  C  508  1  0.00385100  0.89229900  0.09703900  1
  C  509  1  0.00795700  0.91312000  0.09075800  1
  C  510  1  0.00953700  0.91650600  0.07345800  1
  C  512  1  0.00273500  0.88793000  0.11442800  1
  C  513  1  0.10202900  0.87511800  0.12210400  1
  C  514  1  0.09553200  0.87128500  0.13934700  1
  C  515  1  0.99550900  0.88059900  0.14932900  1
  C  516  1  0.89886300  0.89356400  0.14165700  1
  C  517  1  0.90090000  0.89678900  0.12448300  1
  C  529  1  0.98886100  0.37470700  0.50088200  1
  C  530  1  0.96042100  0.35386600  0.49594700  1
  C  531  1  0.95987400  0.33722100  0.50737300  1
  C  532  1  0.98996300  0.34052700  0.52424600  1
  C  533  1  0.01884400  0.36136300  0.52945900  1
  C  534  1  0.01713300  0.37801100  0.51781900  1
  C  536  1  0.99035600  0.32303000  0.53545200  1
  C  537  1  0.07303300  0.30506400  0.53296100  1
  C  538  1  0.06955500  0.28828400  0.54449000  1
  C  539  1  0.98888700  0.28908900  0.55885300  1
  C  540  1  0.90828600  0.30709900  0.56124900  1
  C  541  1  0.90717000  0.32352000  0.54963600  1
  C  553  1  0.98735600  0.63226200  0.50504200  1
  C  554  1  0.96312900  0.65315900  0.51015800  1
  C  555  1  0.96041200  0.66984900  0.49876900  1
  C  556  1  0.98400900  0.66653200  0.48173900  1
  C  557  1  0.00831700  0.64562900  0.47634400  1
  C  558  1  0.00885600  0.62895000  0.48795500  1
  C  560  1  0.98336100  0.68408000  0.47056600  1
  C  561  1  0.06921800  0.70175900  0.47270900  1
  C  562  1  0.06513800  0.71854200  0.46118500  1
  C  563  1  0.98088900  0.71798100  0.44713300  1
  C  564  1  0.89716700  0.70026200  0.44505600  1
  C  565  1  0.89649200  0.68388000  0.45670900  1
  C  577  1  0.03057900  0.13176900  0.00087800  1
  C  578  1  0.05905700  0.15260800  0.99594300  1
  C  579  1  0.05961200  0.16925300  0.00736900  1
  C  580  1  0.02950400  0.16594700  0.02424100  1
  C  581  1  0.00059600  0.14511200  0.02945400  1
  C  582  1  0.00230200  0.12846400  0.01781400  1
  C  584  1  0.02911000  0.18344600  0.03544600  1
  C  585  1  0.94644300  0.20141200  0.03295400  1
  C  586  1  0.94992500  0.21819100  0.04448200  1
  C  587  1  0.03059500  0.21739100  0.05884400  1
  C  588  1  0.11116800  0.19937600  0.06124500  1
  C  589  1  0.11228000  0.18295400  0.04963200  1
  C  601  1  0.03214400  0.87421600  0.00504200  1
  C  602  1  0.05636500  0.85331900  0.01015900  1
  C  603  1  0.05909900  0.83662800  0.99876900  1
  C  604  1  0.03552600  0.83994500  0.98173900  1
  C  605  1  0.01123600  0.86084900  0.97634300  1
  C  606  1  0.01068000  0.87752800  0.98795500  1
  C  608  1  0.03618500  0.82240000  0.97056600  1
  C  609  1  0.95030800  0.80472200  0.97270700  1
  C  610  1  0.95440500  0.78793600  0.96118500  1
  C  611  1  0.03871700  0.78849000  0.94713800  1
  C  612  1  0.12241100  0.80621100  0.94505900  1
  C  613  1  0.12307000  0.82259600  0.95671000  1
  C  625  1  0.01896600  0.23837600  0.11651700  1
  C  626  1  0.07061700  0.21904000  0.12230100  1
  C  627  1  0.07766200  0.21458300  0.13930400  1
  C  628  1  0.03260700  0.22924700  0.15118300  1
  C  629  1  0.97634600  0.24848000  0.14562800  1
  C  630  1  0.97111000  0.25276300  0.12848300  1
  C  632  1  0.04256700  0.22436400  0.16835600  1
  C  633  1  0.12435900  0.23633200  0.17924000  1
  C  634  1  0.12336700  0.23172300  0.19635300  1
  C  635  1  0.04608900  0.21507100  0.20290000  1
  C  636  1  0.97047600  0.20266700  0.19182100  1
  C  637  1  0.96764900  0.20738500  0.17485000  1
  C  649  1  0.02623700  0.76771200  0.88938200  1
  C  650  1  0.06405400  0.78785100  0.88366800  1
  C  651  1  0.06875000  0.79249700  0.86668100  1
  C  652  1  0.03570300  0.77718000  0.85472100  1
  C  653  1  0.99400400  0.75702700  0.86017600  1
  C  654  1  0.99039500  0.75262200  0.87730900  1
  C  656  1  0.04239000  0.78230300  0.83756400  1
  C  657  1  0.13312400  0.77200500  0.82668400  1
  C  658  1  0.12841500  0.77652100  0.80956300  1
  C  659  1  0.03873200  0.79159400  0.80305200  1
  C  660  1  0.95390600  0.80248000  0.81410100  1
  C  661  1  0.95460500  0.79771500  0.83106600  1
  C  673  1  0.00045400  0.26810600  0.61652600  1
  C  674  1  0.94883400  0.28744300  0.62231000  1
  C  675  1  0.94178800  0.29190300  0.63931200  1
  C  676  1  0.98681300  0.27723500  0.65119100  1
  C  677  1  0.04304500  0.25800100  0.64563800  1
  C  678  1  0.04828300  0.25371700  0.62849300  1
  C  680  1  0.97684400  0.28211900  0.66836500  1
  C  681  1  0.89502800  0.27015500  0.67924800  1
  C  682  1  0.89600700  0.27476300  0.69636000  1
  C  683  1  0.97328700  0.29141800  0.70290900  1
  C  684  1  0.04894200  0.30381500  0.69182900  1
  C  685  1  0.05178200  0.29909700  0.67486000  1
  C  697  1  0.99326000  0.73875900  0.38937700  1
  C  698  1  0.95637700  0.71857300  0.38367200  1
  C  699  1  0.95172700  0.71391600  0.36668600  1
  C  700  1  0.98384300  0.72927300  0.35472000  1
  C  701  1  0.02455900  0.74947900  0.36016400  1
  C  702  1  0.02817500  0.75389200  0.37729500  1
  C  704  1  0.97721600  0.72413800  0.33756500  1
  C  705  1  0.88571700  0.73430600  0.32670500  1
  C  706  1  0.89048200  0.72980400  0.30958200  1
  C  707  1  0.98098600  0.71486700  0.30305500  1
  C  708  1  0.06661200  0.70410000  0.31408200  1
  C  709  1  0.06585600  0.70886000  0.33104900  1
  C  721  1  0.03070000  0.24279800  0.25830200  1
  C  722  1  0.06984100  0.24116100  0.27504300  1
  C  723  1  0.07340500  0.25892000  0.28535900  1
  C  724  1  0.03657300  0.27890100  0.27931300  1
  C  725  1  0.99201200  0.28077800  0.26272600  1
  C  726  1  0.99042500  0.26277700  0.25248500  1
  C  728  1  0.04815100  0.29679800  0.28975700  1
  C  729  1  0.14407000  0.31276100  0.28643200  1
  C  730  1  0.14261100  0.33131300  0.29602000  1
  C  731  1  0.04993400  0.33420800  0.30905600  1
  C  732  1  0.96026200  0.31771700  0.31283000  1
  C  733  1  0.95894900  0.29928700  0.30322800  1
  C  745  1  0.01301700  0.76380500  0.74771800  1
  C  746  1  0.04740700  0.76550900  0.73081900  1
  C  747  1  0.04870600  0.74778500  0.72045700  1
  C  748  1  0.01408400  0.72776600  0.72661100  1
  C  749  1  0.97438700  0.72580000  0.74337500  1
  C  750  1  0.97482600  0.74377700  0.75364900  1
  C  752  1  0.02686100  0.70983600  0.71622800  1
  C  753  1  0.12856100  0.69465700  0.71919200  1
  C  754  1  0.13018500  0.67605800  0.70967600  1
  C  755  1  0.03461900  0.67231000  0.69708700  1
  C  756  1  0.93882400  0.68805700  0.69364000  1
  C  757  1  0.93453100  0.70654600  0.70318300  1
  C  769  1  0.98867900  0.26368700  0.75830900  1
  C  770  1  0.94944300  0.26531900  0.77504800  1
  C  771  1  0.94589900  0.24756000  0.78536300  1
  C  772  1  0.98285700  0.22758400  0.77931900  1
  C  773  1  0.02752400  0.22571200  0.76273700  1
  C  774  1  0.02908000  0.24371400  0.75249600  1
  C  776  1  0.97130300  0.20968200  0.78976100  1
  C  777  1  0.87548600  0.19370900  0.78642600  1
  C  778  1  0.87699700  0.17515100  0.79600700  1
  C  779  1  0.96967400  0.17226600  0.80904500  1
  C  780  1  0.05918300  0.18876900  0.81283800  1
  C  781  1  0.06043700  0.20720300  0.80324100  1
  C  793  1  0.00652800  0.74267700  0.24772700  1
  C  794  1  0.97215900  0.74097300  0.23082800  1
  C  795  1  0.97085000  0.75869800  0.22046500  1
  C  796  1  0.00542900  0.77871600  0.22662100  1
  C  797  1  0.04509300  0.78068400  0.24338500  1
  C  798  1  0.04466600  0.76270700  0.25365900  1
  C  800  1  0.99264000  0.79664600  0.21623700  1
  C  801  1  0.89090100  0.81182100  0.21919700  1
  C  802  1  0.88924400  0.83041600  0.20967900  1
  C  803  1  0.98479400  0.83416900  0.19708700  1
  C  804  1  0.08063600  0.81842500  0.19364600  1
  C  805  1  0.08497000  0.79994000  0.20319200  1
  C  817  1  0.01246300  0.40775300  0.30059500  1
  C  818  1  0.06405500  0.42782200  0.30442700  1
  C  819  1  0.06984700  0.44366800  0.29233300  1
  C  820  1  0.02257900  0.44004800  0.27610400  1
  C  821  1  0.96429200  0.42030100  0.27227800  1
  C  822  1  0.96132900  0.40444700  0.28450000  1
  C  824  1  0.03084100  0.45633500  0.26406600  1
  C  825  1  0.10920000  0.45420800  0.24948300  1
  C  826  1  0.10626800  0.47034000  0.23744500  1
  C  827  1  0.02990500  0.48881600  0.23973800  1
  C  828  1  0.95684400  0.49101700  0.25460800  1
  C  829  1  0.95628700  0.47496500  0.26650300  1
  C  841  1  0.03976800  0.59858100  0.70544200  1
  C  842  1  0.09616600  0.57879400  0.70172000  1
  C  843  1  0.10179800  0.56285300  0.71374900  1
  C  844  1  0.04973300  0.56610100  0.72980500  1
  C  845  1  0.98722500  0.58555500  0.73353200  1
  C  846  1  0.98429600  0.60148000  0.72138300  1
  C  848  1  0.05567100  0.54968700  0.74174300  1
  C  849  1  0.12900800  0.55182400  0.75670900  1
  C  850  1  0.12153500  0.53573800  0.76875300  1
  C  851  1  0.04512400  0.51733500  0.76613300  1
  C  852  1  0.97712000  0.51513400  0.75090200  1
  C  853  1  0.98126700  0.53112500  0.73896800  1
  C  865  1  0.00702800  0.09871800  0.80058900  1
  C  866  1  0.95538000  0.07865300  0.80441900  1
  C  867  1  0.94955300  0.06280700  0.79232600  1
  C  868  1  0.99683600  0.06642400  0.77609700  1
  C  869  1  0.05516900  0.08616900  0.77227100  1
  C  870  1  0.05816700  0.10202200  0.78449300  1
  C  872  1  0.98854800  0.05013900  0.76405900  1
  C  873  1  0.91019500  0.05227000  0.74947500  1
  C  874  1  0.91310800  0.03613800  0.73743600  1
  C  875  1  0.98944500  0.01766100  0.73972900  1
  C  876  1  0.06250100  0.01545500  0.75460000  1
  C  877  1  0.06307400  0.03150600  0.76649600  1
  C  889  1  0.97974600  0.90789600  0.20544000  1
  C  890  1  0.92340500  0.92768700  0.20171400  1
  C  891  1  0.91777400  0.94362800  0.21374300  1
  C  892  1  0.96978800  0.94037600  0.22980200  1
  C  893  1  0.03224600  0.92092100  0.23353200  1
  C  894  1  0.03516900  0.90499500  0.22138300  1
  C  896  1  0.96385500  0.95679200  0.24173900  1
  C  897  1  0.89047800  0.95466100  0.25670100  1
  C  898  1  0.89795000  0.97074800  0.26874600  1
  C  899  1  0.97440200  0.98914700  0.26612700  1
  C  900  1  0.04244600  0.99134400  0.25089900  1
  C  901  1  0.03830300  0.97535100  0.23896600  1
  C  913  1  0.01681600  0.06223800  0.27984200  1
  C  914  1  0.06698300  0.07860500  0.28988300  1
  C  915  1  0.07537700  0.09933100  0.28391100  1
  C  916  1  0.03280400  0.10444200  0.26774100  1
  C  917  1  0.97768300  0.08837900  0.25766800  1
  C  918  1  0.97144300  0.06762400  0.26381200  1
  C  920  1  0.04185300  0.12554900  0.26196700  1
  C  921  1  0.12427200  0.13110300  0.24831500  1
  C  922  1  0.12054800  0.15191600  0.24218400  1
  C  923  1  0.03938600  0.16751900  0.24956400  1
  C  924  1  0.96271700  0.16197400  0.26358500  1
  C  925  1  0.96269700  0.14125300  0.26957000  1
  C  937  1  0.01744100  0.94436500  0.72608800  1
  C  938  1  0.06462000  0.92783300  0.71600000  1
  C  939  1  0.07100100  0.90709600  0.72198600  1
  C  940  1  0.02920100  0.90213900  0.73821800  1
  C  941  1  0.97692000  0.91838600  0.74833900  1
  C  942  1  0.97278800  0.93914900  0.74218100  1
  C  944  1  0.03618500  0.88101600  0.74400600  1
  C  945  1  0.11885900  0.87525000  0.75758100  1
  C  946  1  0.11320100  0.85445800  0.76373300  1
  C  947  1  0.02978500  0.83906500  0.75645400  1
  C  948  1  0.95290500  0.84480000  0.74249700  1
  C  949  1  0.95483600  0.86551400  0.73649400  1
  C  961  1  0.00273000  0.44424600  0.77985200  1
  C  962  1  0.95247700  0.42788200  0.78989000  1
  C  963  1  0.94404700  0.40715700  0.78391900  1
  C  964  1  0.98666100  0.40204300  0.76775100  1
  C  965  1  0.04185300  0.41810100  0.75768000  1
  C  966  1  0.04813300  0.43885600  0.76382400  1
  C  968  1  0.97757400  0.38093600  0.76197700  1
  C  969  1  0.89518400  0.37538600  0.74832200  1
  C  970  1  0.89888600  0.35457200  0.74219000  1
  C  971  1  0.97999800  0.33896600  0.74957300  1
  C  972  1  0.05664200  0.34450600  0.76359700  1
  C  973  1  0.05668200  0.36522900  0.76958200  1
  C  985  1  0.00187300  0.56211100  0.22609700  1
  C  986  1  0.95467700  0.57864300  0.21600700  1
  C  987  1  0.94831600  0.59938000  0.22199200  1
  C  988  1  0.99014500  0.60433800  0.23822100  1
  C  989  1  0.04243100  0.58809400  0.24834400  1
  C  990  1  0.04654300  0.56732800  0.24218900  1
  C  992  1  0.98319900  0.62546500  0.24400800  1
  C  993  1  0.90055700  0.63123400  0.25758400  1
  C  994  1  0.90627300  0.65202800  0.26373400  1
  C  995  1  0.98970500  0.66741400  0.25645200  1
  C  996  1  0.06654600  0.66167500  0.24249400  1
  C  997  1  0.06456300  0.64096300  0.23649100  1
  H  151  1  0.05825300  0.44681300  0.02369300  1
  H  158  1  0.14641600  0.55321000  0.97899500  1
  H  159  1  0.86948400  0.51121600  0.95767200  1
  H  160  1  0.95394600  0.50074200  0.05090400  1
  H  161  1  0.86921100  0.49085500  0.98230200  1
  H  162  1  0.95460000  0.52092400  0.02631200  1
  H  175  1  0.96120700  0.05966700  0.52368200  1
  H  182  1  0.87301400  0.95326800  0.47898500  1
  H  183  1  0.14995700  0.99526000  0.45766100  1
  H  184  1  0.06547400  0.00573900  0.55089500  1
  H  185  1  0.15023800  0.01562200  0.48229100  1
  H  186  1  0.06482600  0.98555500  0.52630200  1
  H  199  1  0.95896300  0.39951600  0.04294700  1
  H  206  1  0.83402400  0.29748700  0.09229900  1
  H  207  1  0.13425600  0.29205800  0.05588100  1
  H  208  1  0.05157400  0.39942000  0.09371900  1
  H  209  1  0.13418000  0.32929400  0.05241000  1
  H  210  1  0.04336100  0.36236700  0.09403100  1
  H  223  1  0.96923000  0.60652400  0.96311700  1
  H  230  1  0.84812600  0.70819600  0.91342800  1
  H  231  1  0.14564100  0.71401200  0.95014400  1
  H  232  1  0.06550500  0.60625900  0.91245300  1
  H  233  1  0.14697800  0.67677700  0.95365300  1
  H  234  1  0.05953100  0.64333700  0.91203500  1
  H  247  1  0.06055800  0.10696700  0.54294100  1
  H  254  1  0.18526100  0.20899000  0.59231300  1
  H  255  1  0.88518300  0.21442400  0.55587500  1
  H  256  1  0.96777900  0.10705900  0.59370800  1
  H  257  1  0.88532000  0.17719000  0.55239500  1
  H  258  1  0.97597700  0.14411100  0.59402100  1
  H  271  1  0.05013500  0.89995300  0.46311000  1
  H  278  1  0.17135000  0.79827600  0.41343100  1
  H  279  1  0.87372600  0.79246600  0.45013300  1
  H  280  1  0.95401100  0.90021700  0.41244300  1
  H  281  1  0.87238600  0.82970200  0.45363900  1
  H  282  1  0.95997900  0.86313900  0.41202500  1
  H  295  1  0.05851800  0.49795400  0.09221300  1
  H  302  1  0.17711300  0.48530700  0.18573100  1
  H  303  1  0.88588300  0.53076500  0.17353500  1
  H  304  1  0.95221500  0.44013500  0.11388700  1
  H  305  1  0.88186200  0.51812500  0.14578700  1
  H  306  1  0.96068000  0.45565300  0.14038500  1
  H  319  1  0.05102200  0.50792200  0.91372800  1
  H  326  1  0.17664500  0.52107600  0.82057900  1
  H  327  1  0.88301500  0.47569600  0.83207800  1
  H  328  1  0.94764200  0.56603200  0.89232700  1
  H  329  1  0.87533500  0.48825900  0.85983700  1
  H  330  1  0.95518400  0.55068300  0.86574800  1
  H  343  1  0.96087100  0.00852700  0.59220300  1
  H  350  1  0.84225800  0.02117500  0.68572100  1
  H  351  1  0.13343200  0.97570800  0.67352500  1
  H  352  1  0.06720500  0.06634400  0.61387800  1
  H  353  1  0.13747700  0.98834800  0.64577700  1
  H  354  1  0.05872000  0.05082500  0.64037400  1
  H  367  1  0.96843500  0.99855700  0.41371900  1
  H  374  1  0.84276600  0.98541600  0.32057200  1
  H  375  1  0.13648200  0.03078300  0.33207000  1
  H  376  1  0.07172400  0.94044500  0.39231600  1
  H  377  1  0.14416500  0.01821700  0.35982700  1
  H  378  1  0.06421100  0.95579600  0.36573900  1
  H  391  1  0.06500100  0.46306400  0.46621100  1
  H  398  1  0.14107000  0.54616600  0.53474000  1
  H  399  1  0.87217000  0.56135600  0.49638500  1
  H  400  1  0.94413200  0.44425000  0.51381500  1
  H  401  1  0.87167200  0.52566700  0.48763500  1
  H  402  1  0.94510900  0.47985100  0.52255000  1
  H  415  1  0.95439300  0.04341200  0.96620700  1
  H  422  1  0.87837500  0.96031200  0.03474000  1
  H  423  1  0.14724900  0.94512000  0.99638400  1
  H  424  1  0.07528800  0.06222600  0.01381000  1
  H  425  1  0.14772400  0.98080900  0.98763200  1
  H  426  1  0.07431100  0.02662700  0.02254600  1
  H  439  1  0.07068700  0.42999500  0.43696200  1
  H  446  1  0.85698700  0.40431200  0.35551300  1
  H  447  1  0.14825200  0.35742300  0.36365100  1
  H  448  1  0.93084800  0.36836300  0.44484000  1
  H  449  1  0.14175500  0.36444600  0.39257700  1
  H  450  1  0.92912100  0.36247900  0.41580300  1
  H  463  1  0.00499500  0.57481000  0.56934000  1
  H  470  1  0.85148600  0.64434500  0.64472400  1
  H  471  1  0.19528500  0.60602200  0.64847800  1
  H  472  1  0.01920700  0.64000700  0.56073900  1
  H  473  1  0.19230000  0.60053800  0.61936800  1
  H  474  1  0.02474300  0.64612200  0.58965700  1
  H  487  1  0.94842000  0.07649900  0.93696000  1
  H  494  1  0.16224700  0.10212600  0.85550800  1
  H  495  1  0.87145000  0.14908500  0.86364500  1
  H  496  1  0.08885400  0.13809800  0.94483400  1
  H  497  1  0.87790200  0.14206400  0.89257300  1
  H  498  1  0.09057600  0.14398200  0.91579600  1
  H  511  1  0.01378700  0.93167000  0.06934000  1
  H  518  1  0.16842600  0.86221800  0.14473600  1
  H  519  1  0.82380400  0.90036500  0.14847000  1
  H  520  1  0.00088400  0.86646400  0.06074000  1
  H  521  1  0.82677800  0.90584700  0.11935800  1
  H  522  1  0.99536700  0.86035000  0.08965900  1
  H  535  1  0.04001600  0.39278400  0.52189900  1
  H  542  1  0.13204800  0.27571900  0.54266800  1
  H  543  1  0.84765700  0.30830900  0.57142300  1
  H  544  1  0.93808400  0.35053500  0.48390200  1
  H  545  1  0.84503100  0.33605200  0.55174100  1
  H  546  1  0.93644300  0.32250000  0.50320300  1
  H  559  1  0.02848700  0.61413400  0.48372100  1
  H  566  1  0.12983300  0.73089300  0.46274100  1
  H  567  1  0.83397400  0.69925700  0.43510700  1
  H  568  1  0.94581700  0.65650900  0.52232600  1
  H  569  1  0.83207700  0.67156800  0.45485300  1
  H  570  1  0.94042500  0.68462100  0.50309200  1
  H  583  1  0.97939500  0.11369300  0.02189400  1
  H  590  1  0.88744200  0.23075800  0.04265800  1
  H  591  1  0.17178200  0.19816700  0.07141800  1
  H  592  1  0.08140700  0.15594000  0.98389800  1
  H  593  1  0.17440500  0.17042200  0.05173900  1
  H  594  1  0.08306700  0.18397300  0.00319900  1
  H  607  1  0.99105900  0.89234300  0.98372000  1
  H  614  1  0.88968800  0.77558700  0.96274000  1
  H  615  1  0.18561600  0.80721600  0.93511100  1
  H  616  1  0.07365700  0.84996900  0.02232600  1
  H  617  1  0.18748900  0.83490800  0.95485400  1
  H  618  1  0.07907200  0.82185700  0.00309200  1
  H  631  1  0.92970000  0.26670100  0.12479500  1
  H  638  1  0.18216500  0.24055100  0.20407200  1
  H  639  1  0.91207200  0.19060500  0.19610700  1
  H  640  1  0.10692500  0.20812100  0.11418100  1
  H  641  1  0.90765900  0.19853700  0.16728600  1
  H  642  1  0.11828400  0.20056900  0.14297200  1
  H  655  1  0.95947800  0.73799800  0.88089200  1
  H  662  1  0.19354300  0.76889200  0.80181600  1
  H  663  1  0.88662200  0.81334400  0.80978800  1
  H  664  1  0.09098400  0.79935100  0.89183900  1
  H  665  1  0.88796700  0.80532800  0.83862500  1
  H  666  1  0.09866900  0.80718100  0.86308500  1
  H  679  1  0.08966900  0.23977700  0.62480400  1
  H  686  1  0.83719100  0.26593900  0.70408000  1
  H  687  1  0.10735800  0.31587500  0.69611700  1
  H  688  1  0.91254400  0.29836400  0.61418900  1
  H  689  1  0.11179300  0.30794200  0.66729700  1
  H  690  1  0.90118100  0.30591800  0.64298000  1
  H  703  1  0.05835900  0.76855600  0.38087100  1
  H  710  1  0.82480500  0.73734100  0.30184700  1
  H  711  1  0.13448300  0.69333600  0.30975200  1
  H  712  1  0.93015800  0.70704200  0.39184900  1
  H  713  1  0.13304900  0.70134400  0.33859300  1
  H  714  1  0.92252900  0.69919600  0.36309900  1
  H  727  1  0.95817900  0.26446100  0.24055900  1
  H  734  1  0.20940400  0.34302200  0.29319000  1
  H  735  1  0.88932600  0.31953700  0.32188200  1
  H  736  1  0.10082700  0.22709100  0.27980000  1
  H  737  1  0.88799100  0.28806600  0.30570400  1
  H  738  1  0.10632700  0.25721300  0.29726100  1
  H  751  1  0.94630700  0.74201000  0.76570800  1
  H  758  1  0.20198700  0.66497400  0.71220400  1
  H  759  1  0.86646300  0.68564600  0.68484800  1
  H  760  1  0.07694700  0.77960100  0.72596700  1
  H  761  1  0.85979000  0.71723800  0.70095000  1
  H  762  1  0.07891500  0.74952900  0.70845100  1
  H  775  1  0.06140200  0.24203400  0.74057200  1
  H  782  1  0.81028600  0.16343500  0.79317000  1
  H  783  1  0.13007000  0.18695600  0.82189700  1
  H  784  1  0.91836800  0.27938600  0.77980300  1
  H  785  1  0.13130300  0.21843500  0.80572600  1
  H  786  1  0.91290600  0.24926100  0.79726200  1
  H  799  1  0.07316300  0.76447400  0.26571900  1
  H  806  1  0.81741300  0.84149700  0.21220400  1
  H  807  1  0.15299700  0.82083800  0.18485500  1
  H  808  1  0.94265300  0.72688000  0.22597500  1
  H  809  1  0.15973600  0.78925100  0.20096200  1
  H  810  1  0.94066100  0.75695100  0.20845700  1
  H  823  1  0.91959100  0.39026100  0.28149100  1
  H  830  1  0.16321200  0.46863400  0.22699700  1
  H  831  1  0.89919800  0.50406600  0.25670000  1
  H  832  1  0.10332900  0.43082100  0.31586400  1
  H  833  1  0.89847800  0.47685000  0.27686500  1
  H  834  1  0.11161100  0.45782900  0.29540600  1
  H  847  1  0.93820400  0.61536000  0.72431000  1
  H  854  1  0.17474700  0.53746500  0.77949000  1
  H  855  1  0.91943400  0.50215800  0.74856500  1
  H  856  1  0.13757300  0.57601500  0.69036200  1
  H  857  1  0.92649800  0.52928900  0.72835500  1
  H  858  1  0.14607200  0.54885800  0.71073500  1
  H  871  1  0.09994100  0.11620600  0.78148600  1
  H  878  1  0.85617700  0.03784800  0.72698800  1
  H  879  1  0.12013100  0.00240400  0.75669000  1
  H  880  1  0.91608700  0.07565700  0.81585700  1
  H  881  1  0.12088100  0.02962000  0.77685700  1
  H  882  1  0.90775300  0.04864800  0.79539900  1
  H  895  1  0.08122500  0.89111300  0.22431200  1
  H  902  1  0.84470700  0.96902300  0.27948100  1
  H  903  1  0.10016200  0.00431700  0.24856400  1
  H  904  1  0.88203800  0.93046800  0.19035600  1
  H  905  1  0.09309700  0.97718400  0.22835500  1
  H  906  1  0.87353900  0.95762500  0.21072800  1
  H  919  1  0.93008700  0.05637400  0.25635700  1
  H  926  1  0.18056000  0.15573300  0.23235500  1
  H  927  1  0.90209800  0.17281500  0.26921700  1
  H  928  1  0.10071600  0.07551900  0.30156700  1
  H  929  1  0.90185600  0.13762300  0.27936600  1
  H  930  1  0.11446400  0.11069300  0.29145400  1
  H  943  1  0.93344800  0.95054100  0.74966800  1
  H  950  1  0.17347000  0.85049300  0.77350000  1
  H  951  1  0.89077400  0.83411800  0.73692800  1
  H  952  1  0.09772700  0.93080000  0.70427000  1
  H  953  1  0.89381500  0.86929300  0.72674900  1
  H  954  1  0.10803900  0.89560700  0.71440800  1
  H  967  1  0.08954000  0.45010300  0.75637200  1
  H  974  1  0.83889200  0.35075900  0.73235900  1
  H  975  1  0.11722700  0.33366400  0.76923200  1
  H  976  1  0.91871400  0.43097100  0.80157300  1
  H  977  1  0.11750900  0.36885600  0.77938100  1
  H  978  1  0.90490500  0.39579800  0.79146100  1
  H  991  1  0.08588900  0.55593800  0.24967600  1
  H  998  1  0.84603200  0.65599600  0.27350400  1
  H  999  1  0.12869600  0.67235400  0.23692300  1
  H  1000  1  0.92155800  0.57567300  0.20427900  1
  H  1001  1  0.12556500  0.63717800  0.22674600  1
  H  1002  1  0.91127600  0.61086700  0.21441300  1
  N  2  1  0.00558300  0.43789600  0.05444000  1
  N  4  1  0.00532200  0.46872200  0.06991400  1
  N  6  1  0.00496400  0.43643800  0.08299400  1
  N  8  1  0.01360100  0.56799000  0.95170100  1
  N  10  1  0.00120000  0.53714200  0.93614600  1
  N  12  1  0.00777600  0.56948900  0.92312300  1
  N  14  1  0.01386200  0.06858600  0.55443000  1
  N  16  1  0.01410300  0.03775900  0.56990400  1
  N  18  1  0.01446600  0.07004200  0.58298500  1
  N  20  1  0.00583500  0.93848700  0.45169200  1
  N  22  1  0.01821100  0.96933600  0.43613600  1
  N  24  1  0.01164200  0.93698900  0.42311300  1
  N  26  1  0.99184100  0.38808600  0.47265600  1
  N  28  1  0.99569900  0.41206700  0.49429300  1
  N  30  1  0.00245200  0.42379100  0.46723800  1
  N  32  1  0.99872900  0.61867200  0.53322200  1
  N  34  1  0.99454700  0.59488600  0.51145700  1
  N  36  1  0.01036000  0.58292500  0.53847900  1
  N  38  1  0.02759000  0.11839000  0.97265000  1
  N  40  1  0.02372100  0.09440800  0.99428800  1
  N  42  1  0.01695200  0.08268500  0.96723300  1
  N  44  1  0.02075500  0.88780600  0.03322100  1
  N  46  1  0.02492300  0.91159100  0.01145700  1
  N  48  1  0.00907500  0.92355300  0.03847900  1
  N  50  1  0.00891300  0.25417900  0.06664600  1
  N  52  1  0.02872800  0.22868200  0.08729000  1
  N  54  1  0.99930700  0.26363700  0.09438300  1
  N  56  1  0.01934700  0.75172500  0.93928200  1
  N  58  1  0.03640700  0.77733100  0.91866800  1
  N  60  1  0.00979500  0.74235900  0.91153400  1
  N  62  1  0.01048000  0.25229900  0.56665600  1
  N  64  1  0.99073300  0.27779800  0.58729900  1
  N  66  1  0.02004100  0.24284200  0.59439200  1
  N  68  1  0.00009867  0.75475000  0.43927900  1
  N  70  1  0.98316400  0.72914400  0.41866600  1
  N  72  1  0.00963800  0.76411700  0.41153200  1
  N  74  1  0.02689100  0.35735400  0.33306300  1
  N  76  1  0.00805400  0.39364400  0.32876400  1
  N  78  1  0.03135900  0.37110700  0.30643100  1
  N  80  1  0.02219700  0.64903900  0.67296800  1
  N  82  1  0.03567800  0.61257800  0.67716500  1
  N  84  1  0.03654200  0.63531700  0.69953500  1
  N  86  1  0.99266600  0.14912100  0.83305600  1
  N  88  1  0.01142000  0.11283000  0.82875700  1
  N  90  1  0.98822100  0.13536500  0.80642400  1
  N  92  1  0.99725500  0.85743600  0.17296600  1
  N  94  1  0.98384400  0.89389800  0.17716300  1
  N  96  1  0.98289700  0.87116100  0.19953300  1
  N  98  1  0.03262800  0.20510200  0.25335800  1
  N  100  1  0.04135400  0.19164400  0.22654200  1
  N  102  1  0.03882100  0.22776400  0.23087300  1
  N  104  1  0.01859700  0.80148700  0.75269800  1
  N  106  1  0.03192300  0.81495300  0.77947900  1
  N  108  1  0.02626100  0.77879800  0.77517100  1
  N  110  1  0.98673800  0.30138300  0.75336800  1
  N  112  1  0.97802600  0.31484100  0.72655200  1
  N  114  1  0.98055800  0.27872100  0.73088100  1
  N  116  1  0.00093800  0.70499600  0.25270200  1
  N  118  1  0.98772800  0.69152000  0.27948100  1
  N  120  1  0.99337300  0.72767800  0.27518000  1
  N  122  1  0.00784000  0.03559000  0.30175900  1
  N  124  1  0.99803100  0.02535100  0.27419900  1
  N  126  1  0.97933400  0.00027300  0.29478500  1
  N  128  1  0.00756800  0.97095500  0.70415300  1
  N  130  1  0.00577400  0.98133300  0.73171500  1
  N  132  1  0.98581600  0.00639600  0.71112100  1
  N  134  1  0.01166300  0.47089500  0.80176800  1
  N  136  1  0.02152700  0.48113200  0.77420700  1
  N  138  1  0.04014100  0.50621200  0.79479300  1
  N  140  1  0.01174900  0.53552300  0.20416300  1
  N  142  1  0.01354500  0.52514300  0.23172500  1
  N  144  1  0.03352400  0.50008000  0.21113200  1
  N  163  1  0.07424600  0.46484200  0.99441400  1
  N  164  1  0.17979600  0.53309700  0.00732300  1
  N  187  1  0.94522100  0.04163800  0.49440200  1
  N  188  1  0.83964100  0.97338200  0.50731400  1
  N  211  1  0.93798300  0.35822500  0.03932100  1
  N  212  1  0.80056400  0.33862400  0.09058300  1
  N  235  1  0.95040900  0.64785400  0.96661700  1
  N  236  1  0.81634600  0.66704200  0.91515200  1
  N  259  1  0.08153800  0.14825900  0.53931700  1
  N  260  1  0.21879000  0.16785700  0.59058700  1
  N  283  1  0.06893100  0.85862400  0.46661200  1
  N  284  1  0.20312900  0.83943100  0.41515200  1
  N  307  1  0.08139200  0.51971900  0.11999900  1
  N  308  1  0.20523800  0.46874500  0.15601400  1
  N  331  1  0.07269500  0.48632700  0.88585600  1
  N  332  1  0.20072900  0.53755800  0.85036300  1
  N  355  1  0.93796800  0.98676200  0.61998900  1
  N  356  1  0.81416100  0.03773800  0.65600400  1
  N  379  1  0.94680600  0.02015500  0.38584700  1
  N  380  1  0.81868500  0.96893100  0.35035400  1
  N  403  1  0.08244400  0.50367700  0.47209300  1
  N  404  1  0.17294000  0.50600000  0.52735600  1
  N  427  1  0.93694700  0.00279800  0.97209100  1
  N  428  1  0.84648900  0.00047700  0.02735600  1
  N  451  1  0.08645800  0.42830100  0.40448700  1
  N  452  1  0.81644100  0.41459800  0.38684200  1
  N  475  1  0.00465700  0.57616400  0.60182000  1
  N  476  1  0.81016100  0.63952800  0.61256000  1
  N  499  1  0.93258300  0.07819700  0.90448500  1
  N  500  1  0.20271200  0.09183300  0.88683600  1
  N  523  1  0.01401400  0.93031700  0.10182000  1
  N  524  1  0.20977300  0.86705600  0.11257300  1
  N  547  1  0.05312900  0.36524400  0.54615600  1
  N  548  1  0.16280600  0.30452400  0.51938400  1
  N  571  1  0.03598500  0.64168700  0.45947200  1
  N  572  1  0.16273100  0.70198800  0.48590700  1
  N  595  1  0.96629600  0.14123400  0.04615000  1
  N  596  1  0.85668500  0.20195100  0.01937600  1
  N  619  1  0.98359200  0.86479200  0.95947000  1
  N  620  1  0.85675200  0.80449800  0.98589900  1
  N  643  1  0.92225800  0.26287900  0.15719700  1
  N  644  1  0.20931000  0.25221700  0.17281700  1
  N  667  1  0.95251700  0.74175600  0.84851500  1
  N  668  1  0.23026500  0.75794600  0.83313800  1
  N  691  1  0.09710700  0.24360000  0.65720700  1
  N  692  1  0.81006500  0.25427100  0.67282400  1
  N  715  1  0.06504500  0.76480100  0.34849100  1
  N  716  1  0.78781200  0.74821800  0.33318300  1
  N  739  1  0.94696100  0.30045700  0.25672400  1
  N  740  1  0.24011300  0.30993500  0.27368800  1
  N  763  1  0.93295000  0.70601200  0.74954200  1
  N  764  1  0.22730500  0.69830300  0.73149300  1
  N  787  1  0.07271000  0.20603900  0.75673700  1
  N  788  1  0.77948800  0.19652900  0.77367600  1
  N  811  1  0.08647900  0.80047300  0.24955500  1
  N  812  1  0.79215600  0.80817100  0.23149800  1
  N  835  1  0.90643100  0.41682400  0.25652000  1
  N  836  1  0.19275900  0.43638100  0.24740700  1
  N  859  1  0.92454300  0.58863000  0.74906700  1
  N  860  1  0.21166500  0.56966500  0.75919300  1
  N  883  1  0.11304000  0.08964300  0.75651400  1
  N  884  1  0.82666600  0.07009900  0.74739900  1
  N  907  1  0.09487400  0.91784300  0.24907000  1
  N  908  1  0.80778000  0.93682400  0.25918400  1
  N  931  1  0.92513700  0.09332000  0.24186600  1
  N  932  1  0.21241400  0.11601300  0.24137100  1
  N  955  1  0.92496500  0.91362700  0.76420300  1
  N  956  1  0.20917800  0.89010100  0.76442600  1
  N  979  1  0.09443100  0.41315700  0.74188100  1
  N  980  1  0.80709600  0.39048100  0.74137400  1
  N  1003  1  0.09441100  0.59285400  0.26420700  1
  N  1004  1  0.81022600  0.61638900  0.26443300  1
  O  165  1  0.15395900  0.55098600  0.01303400  1
  O  166  1  0.99331400  0.45044800  0.99066300  1
  O  167  1  0.19115400  0.45734600  0.99484900  1
  O  168  1  0.30063700  0.53272800  0.00275000  1
  O  189  1  0.86547600  0.95549300  0.51302500  1
  O  190  1  0.02616100  0.05603100  0.49065100  1
  O  191  1  0.82831300  0.04913500  0.49483600  1
  O  192  1  0.71879800  0.97375100  0.50274100  1
  O  213  1  0.81826400  0.33687600  0.10588300  1
  O  214  1  0.02360500  0.36135700  0.02817400  1
  O  215  1  0.82379300  0.36319600  0.03393100  1
  O  216  1  0.68096600  0.33376000  0.08729400  1
  O  237  1  0.83489000  0.66877300  0.89986600  1
  O  238  1  0.03497400  0.64468100  0.97787800  1
  O  239  1  0.83555000  0.64303700  0.97188200  1
  O  240  1  0.69637400  0.67180000  0.91832700  1
  O  261  1  0.20104100  0.16959500  0.60588600  1
  O  262  1  0.99595700  0.14512800  0.52816600  1
  O  263  1  0.19574700  0.14328900  0.53393200  1
  O  264  1  0.33839000  0.17272500  0.58730500  1
  O  285  1  0.18462500  0.83769800  0.39986500  1
  O  286  1  0.98433600  0.86179600  0.47786800  1
  O  287  1  0.18377500  0.86343900  0.47188100  1
  O  288  1  0.32309700  0.83467300  0.41833300  1
  O  309  1  0.18437400  0.45217100  0.16402700  1
  O  310  1  0.99922800  0.53163600  0.11284400  1
  O  311  1  0.19710000  0.52314700  0.11435600  1
  O  312  1  0.32602900  0.47405800  0.15793600  1
  O  333  1  0.18122900  0.55416800  0.84234400  1
  O  334  1  0.99003400  0.47443300  0.89294800  1
  O  335  1  0.18824500  0.48275000  0.89149100  1
  O  336  1  0.32167300  0.53220100  0.84867800  1
  O  357  1  0.83503600  0.05431200  0.66401600  1
  O  358  1  0.02012200  0.97484300  0.61283400  1
  O  359  1  0.82225900  0.98333700  0.61434300  1
  O  360  1  0.69336400  0.03242900  0.65792600  1
  O  381  1  0.83816000  0.95232000  0.34233400  1
  O  382  1  0.02949200  0.03204600  0.39294100  1
  O  383  1  0.83126200  0.02373900  0.39148300  1
  O  384  1  0.69774300  0.97429100  0.34867000  1
  O  405  1  0.14361700  0.50394600  0.54235700  1
  O  406  1  0.00548800  0.50456000  0.45979700  1
  O  407  1  0.20087500  0.50093100  0.46710200  1
  O  408  1  0.29451800  0.51124700  0.52622800  1
  O  429  1  0.87582200  0.00253100  0.04235700  1
  O  430  1  0.01389800  0.00191500  0.95979500  1
  O  431  1  0.81851400  0.00554400  0.96710200  1
  O  432  1  0.72490800  0.99522900  0.02623000  1
  O  453  1  0.69806900  0.40852800  0.38420200  1
  O  454  1  0.20884700  0.43215000  0.40693500  1
  O  455  1  0.02158700  0.44510100  0.40619200  1
  O  456  1  0.83031400  0.43246500  0.38049400  1
  O  477  1  0.80624000  0.65922500  0.61312000  1
  O  478  1  0.10356000  0.56407100  0.60002600  1
  O  479  1  0.89825300  0.56577500  0.59996300  1
  O  480  1  0.69874900  0.63243600  0.61734200  1
  O  501  1  0.32114400  0.09787300  0.88419500  1
  O  502  1  0.81015600  0.07437800  0.90693800  1
  O  503  1  0.99728600  0.06138100  0.90618900  1
  O  504  1  0.18865600  0.07396900  0.88048900  1
  O  525  1  0.21412600  0.84736200  0.11313500  1
  O  526  1  0.91487100  0.94236100  0.10001900  1
  O  527  1  0.12021700  0.94075800  0.09996900  1
  O  528  1  0.32100900  0.87420800  0.11736100  1
  O  549  1  0.14015500  0.28906300  0.51016800  1
  O  550  1  0.97215900  0.37783900  0.55278800  1
  O  551  1  0.17020800  0.37250400  0.54748500  1
  O  552  1  0.28331600  0.30379300  0.52406400  1
  O  573  1  0.14492900  0.71753300  0.49519600  1
  O  574  1  0.95103800  0.62937000  0.45327700  1
  O  575  1  0.15149800  0.63406600  0.45748700  1
  O  576  1  0.28196800  0.70227600  0.48073200  1
  O  597  1  0.87935100  0.21741300  0.01015900  1
  O  598  1  0.04724600  0.12863500  0.05278200  1
  O  599  1  0.84920700  0.13397600  0.04747800  1
  O  600  1  0.73617000  0.20268400  0.02405400  1
  O  621  1  0.87450900  0.78895300  0.99519000  1
  O  622  1  0.06855800  0.87710900  0.95327800  1
  O  623  1  0.86808900  0.87241300  0.95748300  1
  O  624  1  0.73753400  0.80421100  0.98072000  1
  O  645  1  0.33102800  0.24755200  0.17487100  1
  O  646  1  0.79756400  0.26499900  0.15524000  1
  O  647  1  0.97607300  0.28066600  0.15596800  1
  O  648  1  0.18824400  0.26966700  0.17957100  1
  O  669  1  0.34716700  0.76500700  0.83110600  1
  O  670  1  0.83028600  0.73725300  0.85030600  1
  O  671  1  0.01988600  0.72513300  0.84977600  1
  O  672  1  0.22381700  0.74021100  0.82640000  1
  O  693  1  0.68835200  0.25894100  0.67487600  1
  O  694  1  0.22179900  0.24147500  0.65525200  1
  O  695  1  0.04326600  0.22581400  0.65597900  1
  O  696  1  0.83110500  0.23682100  0.67957900  1
  O  717  1  0.67131800  0.74098400  0.33117200  1
  O  718  1  0.18704100  0.76947100  0.35025700  1
  O  719  1  0.99676200  0.78133200  0.34976100  1
  O  720  1  0.79309600  0.76596600  0.32645100  1
  O  741  1  0.35737200  0.30938700  0.27947300  1
  O  742  1  0.82426800  0.29979000  0.25300900  1
  O  743  1  0.01172900  0.30614400  0.24417000  1
  O  744  1  0.23481300  0.32439100  0.26315700  1
  O  765  1  0.34261100  0.69962300  0.72521600  1
  O  766  1  0.81158500  0.70643000  0.75388100  1
  O  767  1  0.00240300  0.70039300  0.76173200  1
  O  768  1  0.22913700  0.68395200  0.74213200  1
  O  789  1  0.66220300  0.19705700  0.77945100  1
  O  790  1  0.19542000  0.20672000  0.75303400  1
  O  791  1  0.00804700  0.20034500  0.74417700  1
  O  792  1  0.78491400  0.18207700  0.76313900  1
  O  813  1  0.67685800  0.80684400  0.22521800  1
  O  814  1  0.20783100  0.80006200  0.25389800  1
  O  815  1  0.01698800  0.80608900  0.26174300  1
  O  816  1  0.79028400  0.82252700  0.24213300  1
  O  837  1  0.31480800  0.44153900  0.24733400  1
  O  838  1  0.78172800  0.41388200  0.25762900  1
  O  839  1  0.95753900  0.40118500  0.24943700  1
  O  840  1  0.16788300  0.42689300  0.23415300  1
  O  861  1  0.33355900  0.56451500  0.75994800  1
  O  862  1  0.79971900  0.59106500  0.74748600  1
  O  863  1  0.97110600  0.60439500  0.75644400  1
  O  864  1  0.18194800  0.57921300  0.77226900  1
  O  885  1  0.70461200  0.06494700  0.74732600  1
  O  886  1  0.23774700  0.09257900  0.75762300  1
  O  887  1  0.06196200  0.10528500  0.74943100  1
  O  888  1  0.85156300  0.07958900  0.73414600  1
  O  909  1  0.68589200  0.94198000  0.25993500  1
  O  910  1  0.21969700  0.91540000  0.24749400  1
  O  911  1  0.04825700  0.90208100  0.25644500  1
  O  912  1  0.83744600  0.92727600  0.27226200  1
  O  933  1  0.33311600  0.12119100  0.24355800  1
  O  934  1  0.80043300  0.09013800  0.24129300  1
  O  935  1  0.97992300  0.08262500  0.23069300  1
  O  936  1  0.19335200  0.11380700  0.22613400  1
  O  957  1  0.32912600  0.88459100  0.76212000  1
  O  958  1  0.80070400  0.91716600  0.76490600  1
  O  959  1  0.98180100  0.92418300  0.77530400  1
  O  960  1  0.19142100  0.89237000  0.77968000  1
  O  981  1  0.68637500  0.38530900  0.74355400  1
  O  982  1  0.21914900  0.41633200  0.74131400  1
  O  983  1  0.03970900  0.42385500  0.73070500  1
  O  984  1  0.82620900  0.39268500  0.72613900  1
  O  1005  1  0.69028500  0.62190400  0.26213000  1
  O  1006  1  0.21867500  0.58931400  0.26490700  1
  O  1007  1  0.03758900  0.58230100  0.27531100  1
  O  1008  1  0.82801100  0.61412000  0.27968700  1
