# generated using pymatgen
data_H17C30(N3O2)2
_symmetry_space_group_name_H-M   'P 1'
_cell_length_a   35.24780000
_cell_length_b   50.15330000
_cell_length_c   92.13900000
_cell_angle_alpha   90.00000000
_cell_angle_beta   90.00000000
_cell_angle_gamma   90.07480000
_symmetry_Int_Tables_number   1
_chemical_formula_structural   H17C30(N3O2)2
_chemical_formula_sum   'H816 C1440 N288 O192'
_cell_volume   162882.58536258
_cell_formula_units_Z   48
loop_
 _symmetry_equiv_pos_site_id
 _symmetry_equiv_pos_as_xyz
  1  'x, y, z'
loop_
 _atom_site_type_symbol
 _atom_site_label
 _atom_site_symmetry_multiplicity
 _atom_site_fract_x
 _atom_site_fract_y
 _atom_site_fract_z
 _atom_site_occupancy
  H  49  1  0.71713300  0.75569700  0.78341400  1
  H  50  1  0.75615700  0.75574800  0.80470800  1
  H  51  1  0.61992200  0.74405700  0.80944800  1
  H  52  1  0.65898800  0.74419600  0.83075600  1
  H  53  1  0.72888200  0.69693000  0.82139300  1
  H  54  1  0.75693800  0.66099600  0.83752700  1
  H  55  1  0.76893600  0.73247100  0.85823200  1
  H  56  1  0.78971700  0.76475600  0.87462000  1
  H  57  1  0.72062300  0.80412700  0.82361400  1
  H  58  1  0.74965800  0.83916600  0.84025700  1
  H  59  1  0.84919200  0.84366100  0.85522500  1
  H  60  1  0.86106600  0.89076800  0.85542200  1
  H  61  1  0.74182200  0.85662000  0.87432600  1
  H  62  1  0.75367900  0.90371000  0.87451500  1
  H  63  1  0.82658900  0.83606000  0.89071600  1
  H  64  1  0.84298500  0.80011200  0.90898700  1
  H  65  1  0.81258600  0.65809600  0.89182300  1
  H  66  1  0.82925900  0.69301600  0.91075100  1
  H  67  1  0.77926900  0.76013800  0.92360300  1
  H  68  1  0.79606700  0.75968900  0.94880000  1
  H  69  1  0.88959600  0.73414100  0.91270200  1
  H  70  1  0.90621700  0.73344700  0.93806100  1
  H  71  1  0.84870800  0.65386000  0.85538000  1
  H  72  1  0.86017600  0.60674100  0.85521400  1
  H  73  1  0.74994700  0.59327100  0.87169100  1
  H  74  1  0.73842600  0.64037600  0.87179500  1
  H  127  1  0.71774800  0.74401900  0.21547200  1
  H  128  1  0.75678100  0.74379400  0.19418100  1
  H  129  1  0.62021700  0.75291400  0.18931400  1
  H  130  1  0.65928900  0.75258900  0.16801200  1
  H  131  1  0.72685500  0.80144100  0.17666200  1
  H  132  1  0.75486300  0.83716200  0.16035000  1
  H  133  1  0.77048300  0.76506100  0.14070300  1
  H  134  1  0.79468200  0.73278600  0.12513600  1
  H  135  1  0.72376000  0.69408200  0.17611100  1
  H  136  1  0.75262100  0.65879600  0.15962400  1
  H  137  1  0.85029700  0.65382300  0.14227200  1
  H  138  1  0.86187600  0.60671700  0.14203300  1
  H  139  1  0.73955700  0.64061600  0.12624900  1
  H  140  1  0.75113500  0.59352300  0.12599400  1
  H  141  1  0.81756300  0.66044100  0.10687400  1
  H  142  1  0.83305900  0.69617600  0.08834500  1
  H  143  1  0.81769600  0.83889200  0.10712500  1
  H  144  1  0.83383000  0.80351200  0.08833100  1
  H  145  1  0.77245800  0.75099600  0.07558900  1
  H  146  1  0.78651200  0.75159700  0.05015400  1
  H  147  1  0.88962900  0.74864700  0.08510000  1
  H  148  1  0.90371000  0.74920800  0.05955400  1
  H  149  1  0.84846700  0.84372400  0.14385700  1
  H  150  1  0.86025500  0.89083600  0.14402500  1
  H  151  1  0.75192400  0.90427600  0.12583700  1
  H  152  1  0.74008800  0.85718500  0.12571900  1
  H  205  1  0.95186800  0.25481200  0.21536100  1
  H  206  1  0.91303100  0.25473700  0.19402000  1
  H  207  1  0.04956200  0.24502800  0.18938700  1
  H  208  1  0.01067200  0.24502400  0.16803200  1
  H  209  1  0.94189200  0.19665300  0.17698200  1
  H  210  1  0.91420700  0.16074400  0.16071000  1
  H  211  1  0.90059200  0.23247100  0.14044900  1
  H  212  1  0.87815800  0.26471200  0.12445900  1
  H  213  1  0.94779800  0.30397400  0.17545600  1
  H  214  1  0.91841000  0.33903500  0.15896100  1
  H  215  1  0.81914800  0.34366600  0.14312900  1
  H  216  1  0.80742800  0.39077000  0.14276100  1
  H  217  1  0.92795800  0.35662400  0.12522100  1
  H  218  1  0.91625500  0.40369900  0.12486400  1
  H  219  1  0.84398900  0.33630300  0.10797300  1
  H  220  1  0.82773100  0.30047200  0.08961500  1
  H  221  1  0.85635100  0.15821200  0.10674400  1
  H  222  1  0.83917600  0.19327300  0.08797100  1
  H  223  1  0.89034700  0.25975200  0.07515800  1
  H  224  1  0.87362200  0.25934800  0.04996000  1
  H  225  1  0.77935000  0.23499200  0.08605000  1
  H  226  1  0.76278000  0.23436100  0.06068500  1
  H  227  1  0.82215100  0.15382600  0.14381200  1
  H  228  1  0.81043800  0.10671800  0.14410100  1
  H  229  1  0.91903300  0.09317100  0.12616600  1
  H  230  1  0.93081500  0.14027800  0.12594400  1
  H  283  1  0.95129400  0.24504800  0.78316100  1
  H  284  1  0.91245000  0.24495200  0.80450300  1
  H  285  1  0.04927000  0.25247300  0.80922700  1
  H  286  1  0.01038000  0.25229100  0.83058000  1
  H  287  1  0.94382000  0.30196200  0.82229900  1
  H  288  1  0.91614800  0.33759600  0.83871700  1
  H  289  1  0.89901000  0.26528900  0.85798300  1
  H  290  1  0.87370800  0.23295700  0.87333200  1
  H  291  1  0.94450700  0.19460600  0.82222700  1
  H  292  1  0.91534300  0.15923800  0.83860900  1
  H  293  1  0.81820200  0.15384900  0.85681400  1
  H  294  1  0.80675500  0.10670300  0.85718900  1
  H  295  1  0.93008500  0.14098500  0.87166700  1
  H  296  1  0.91864200  0.09386500  0.87205500  1
  H  297  1  0.85266200  0.16043400  0.89175500  1
  H  298  1  0.83729400  0.19604100  0.91035200  1
  H  299  1  0.85170600  0.33890400  0.89165700  1
  H  300  1  0.83517400  0.30338400  0.91034300  1
  H  301  1  0.89690200  0.25126200  0.92305300  1
  H  302  1  0.88286500  0.25178000  0.94848900  1
  H  303  1  0.77975200  0.24808400  0.91355800  1
  H  304  1  0.76568800  0.24856600  0.93910900  1
  H  305  1  0.82243900  0.34369300  0.85428100  1
  H  306  1  0.81040900  0.39074500  0.85398500  1
  H  307  1  0.91694800  0.40465700  0.87360100  1
  H  308  1  0.92905200  0.35761000  0.87384000  1
  H  361  1  0.21917600  0.25765100  0.28325200  1
  H  362  1  0.25736900  0.25718600  0.30476900  1
  H  363  1  0.12150500  0.24253600  0.30849200  1
  H  364  1  0.15971400  0.24219600  0.33002200  1
  H  365  1  0.22921100  0.19651400  0.32126700  1
  H  366  1  0.25665900  0.16053700  0.33752600  1
  H  367  1  0.26855200  0.23202500  0.35822600  1
  H  368  1  0.28960300  0.26429200  0.37459200  1
  H  369  1  0.22112200  0.30376800  0.32347200  1
  H  370  1  0.24986700  0.33875500  0.34020000  1
  H  371  1  0.34923200  0.34309500  0.35539600  1
  H  372  1  0.36123300  0.39018400  0.35554500  1
  H  373  1  0.24153500  0.35630700  0.37417000  1
  H  374  1  0.25351600  0.40338600  0.37430900  1
  H  375  1  0.32586900  0.33563200  0.39084300  1
  H  376  1  0.34217400  0.29967000  0.40911400  1
  H  377  1  0.31221500  0.15762500  0.39184900  1
  H  378  1  0.32901600  0.19254800  0.41075700  1
  H  379  1  0.27887600  0.25937900  0.42370500  1
  H  380  1  0.29583900  0.25884400  0.44888600  1
  H  381  1  0.38934300  0.23389300  0.41265500  1
  H  382  1  0.40612700  0.23310000  0.43799900  1
  H  383  1  0.34789600  0.15352500  0.35513200  1
  H  384  1  0.35969800  0.10645000  0.35497900  1
  H  385  1  0.25018500  0.09267100  0.37205500  1
  H  386  1  0.23831500  0.13974000  0.37214200  1
  H  439  1  0.21958700  0.24180000  0.71566600  1
  H  440  1  0.25788500  0.24186900  0.69417200  1
  H  441  1  0.12159300  0.25382300  0.69014600  1
  H  442  1  0.15990100  0.25375100  0.66864300  1
  H  443  1  0.22727600  0.30111900  0.67679300  1
  H  444  1  0.25476100  0.33683900  0.66035200  1
  H  445  1  0.27010700  0.26471000  0.64070100  1
  H  446  1  0.29455700  0.23241600  0.62516500  1
  H  447  1  0.22417500  0.19371800  0.67626700  1
  H  448  1  0.25277000  0.15844600  0.65972100  1
  H  449  1  0.35030500  0.15356100  0.64215800  1
  H  450  1  0.36199400  0.10647000  0.64196300  1
  H  451  1  0.23929100  0.14013800  0.62646900  1
  H  452  1  0.25097700  0.09305300  0.62626200  1
  H  453  1  0.31695800  0.16003400  0.60685300  1
  H  454  1  0.33239500  0.19574700  0.58830700  1
  H  455  1  0.31732700  0.33849600  0.60707200  1
  H  456  1  0.33356900  0.30308300  0.58831200  1
  H  457  1  0.27233100  0.25092100  0.57550100  1
  H  458  1  0.28664100  0.25145600  0.55008600  1
  H  459  1  0.38937100  0.24784200  0.58517700  1
  H  460  1  0.40371000  0.24833600  0.55965000  1
  H  461  1  0.34776300  0.34325300  0.64406000  1
  H  462  1  0.35987400  0.39032400  0.64420900  1
  H  463  1  0.25225900  0.40404100  0.62548000  1
  H  464  1  0.24008800  0.35698600  0.62538300  1
  H  517  1  0.45013800  0.75656800  0.71544100  1
  H  518  1  0.41221800  0.75624400  0.69385400  1
  H  519  1  0.54842500  0.74340100  0.69025500  1
  H  520  1  0.51048200  0.74319500  0.66865400  1
  H  521  1  0.44203000  0.69643500  0.67705200  1
  H  522  1  0.41496400  0.66044900  0.66068200  1
  H  523  1  0.40147100  0.73214200  0.64036500  1
  H  524  1  0.37878300  0.76434700  0.62438500  1
  H  525  1  0.44784600  0.80378700  0.67546400  1
  H  526  1  0.41878000  0.83878300  0.65886200  1
  H  527  1  0.31963600  0.84323300  0.64276700  1
  H  528  1  0.30783400  0.89032500  0.64247700  1
  H  529  1  0.42884300  0.85644100  0.62527400  1
  H  530  1  0.41705800  0.90351600  0.62499900  1
  H  531  1  0.34521200  0.83593500  0.60771000  1
  H  532  1  0.32897900  0.80003900  0.58938800  1
  H  533  1  0.35726700  0.65779200  0.60667500  1
  H  534  1  0.33992100  0.69282600  0.58791500  1
  H  535  1  0.39111900  0.75892300  0.57495500  1
  H  536  1  0.37406000  0.75845600  0.54978300  1
  H  537  1  0.27999100  0.73482000  0.58609500  1
  H  538  1  0.26309700  0.73411900  0.56075900  1
  H  539  1  0.32361700  0.65345600  0.64401300  1
  H  540  1  0.31177200  0.60636700  0.64429400  1
  H  541  1  0.41965400  0.59274600  0.62576600  1
  H  542  1  0.43157800  0.63983900  0.62555600  1
  H  595  1  0.44969000  0.74275000  0.28305900  1
  H  596  1  0.41167600  0.74276500  0.30462500  1
  H  597  1  0.54827200  0.75338800  0.30845700  1
  H  598  1  0.51023600  0.75327000  0.33003100  1
  H  599  1  0.44376900  0.80136400  0.32218800  1
  H  600  1  0.41664400  0.83705800  0.33869500  1
  H  601  1  0.39986000  0.76480300  0.35806900  1
  H  602  1  0.37438000  0.73249400  0.37342400  1
  H  603  1  0.44463400  0.69397500  0.32224300  1
  H  604  1  0.41578400  0.65866700  0.33872500  1
  H  605  1  0.31874300  0.65342900  0.35712400  1
  H  606  1  0.30723000  0.60629300  0.35743600  1
  H  607  1  0.43086900  0.64039100  0.37165600  1
  H  608  1  0.41936200  0.59326700  0.37197600  1
  H  609  1  0.35368400  0.66000900  0.39195800  1
  H  610  1  0.33834400  0.69566800  0.41052700  1
  H  611  1  0.35264800  0.83849900  0.39172600  1
  H  612  1  0.33599500  0.80300500  0.41040700  1
  H  613  1  0.39747400  0.75137000  0.42322700  1
  H  614  1  0.38314700  0.75188100  0.44864000  1
  H  615  1  0.28048200  0.74725100  0.41354900  1
  H  616  1  0.26612900  0.74772000  0.43907600  1
  H  617  1  0.32372200  0.84324300  0.35412400  1
  H  618  1  0.31158500  0.89028000  0.35383000  1
  H  619  1  0.41750600  0.90424800  0.37391100  1
  H  620  1  0.42972600  0.85721200  0.37414500  1
  H  630  1  0.92160600  0.76655200  0.98385700  1
  H  632  1  0.81587900  0.74002400  0.01423200  1
  H  640  1  0.90397900  0.74104500  0.03340500  1
  H  642  1  0.84480300  0.78058400  0.96727400  1
  H  648  1  0.74836200  0.26614200  0.01493100  1
  H  650  1  0.85384600  0.24017300  0.98434400  1
  H  658  1  0.76543300  0.24086900  0.96532100  1
  H  660  1  0.82624100  0.28035800  0.03131900  1
  H  666  1  0.42172200  0.26599600  0.48384500  1
  H  668  1  0.31615500  0.23938600  0.51428000  1
  H  676  1  0.40428300  0.24070100  0.53344700  1
  H  678  1  0.34527200  0.28002500  0.46727000  1
  H  684  1  0.24821600  0.76575200  0.51489100  1
  H  686  1  0.35385400  0.73963600  0.48441700  1
  H  694  1  0.26563600  0.74030000  0.46530900  1
  H  696  1  0.32567400  0.78002800  0.53136500  1
  H  702  1  0.81560600  0.03374800  0.88284800  1
  H  704  1  0.85525000  0.96417800  0.84968300  1
  H  712  1  0.77083100  0.94817000  0.86812200  1
  H  714  1  0.90019000  0.04930700  0.86651500  1
  H  720  1  0.81446600  0.46389500  0.11568000  1
  H  722  1  0.85457500  0.53301800  0.14909100  1
  H  730  1  0.76976700  0.54904500  0.13109300  1
  H  732  1  0.89921700  0.44820900  0.13159500  1
  H  738  1  0.85532500  0.96363000  0.11711000  1
  H  740  1  0.81505100  0.03339900  0.15003800  1
  H  748  1  0.90085800  0.04875100  0.13223700  1
  H  750  1  0.76955400  0.94879500  0.13229900  1
  H  756  1  0.85392500  0.53420800  0.88143900  1
  H  758  1  0.81398400  0.46394600  0.84872100  1
  H  766  1  0.89956800  0.44895700  0.86678000  1
  H  768  1  0.76829500  0.54870600  0.86593700  1
  H  774  1  0.31603300  0.53327300  0.38274100  1
  H  776  1  0.35551400  0.46365500  0.34958000  1
  H  784  1  0.27096900  0.44780200  0.36794600  1
  H  786  1  0.40071400  0.54873200  0.36635100  1
  H  792  1  0.31486700  0.96355600  0.61582100  1
  H  794  1  0.35481000  0.03272200  0.64923200  1
  H  802  1  0.26988600  0.04860300  0.63129300  1
  H  804  1  0.39973500  0.94798000  0.63179200  1
  H  810  1  0.35580600  0.46311900  0.61701400  1
  H  812  1  0.31566200  0.53311700  0.64981600  1
  H  820  1  0.40152500  0.54829600  0.63190100  1
  H  822  1  0.26990000  0.44853300  0.63216900  1
  H  828  1  0.35433400  0.03389300  0.38150100  1
  H  830  1  0.31451500  0.96341200  0.34890500  1
  H  838  1  0.40014600  0.94858400  0.36707600  1
  H  840  1  0.26855800  0.04814300  0.36603400  1
  H  846  1  0.58062000  0.77569000  0.77197800  1
  H  848  1  0.58582600  0.72401300  0.72763300  1
  H  856  1  0.49527900  0.75153300  0.73416000  1
  H  858  1  0.67129800  0.74921000  0.76514200  1
  H  864  1  0.58088400  0.72267000  0.22675900  1
  H  866  1  0.58574700  0.77443400  0.27108300  1
  H  874  1  0.49520200  0.74700500  0.26442200  1
  H  876  1  0.67155400  0.74922600  0.23370700  1
  H  882  1  0.08865700  0.27619000  0.22683200  1
  H  884  1  0.08324100  0.22452600  0.27118200  1
  H  892  1  0.17401000  0.25191100  0.26457100  1
  H  894  1  0.99785600  0.25009100  0.23369600  1
  H  900  1  0.08833700  0.22260000  0.77189500  1
  H  902  1  0.08334600  0.27388800  0.72741100  1
  H  910  1  0.17404400  0.24697000  0.73423400  1
  H  912  1  0.99758700  0.24853300  0.76485400  1
  H  961  1  0.46179800  0.67594200  0.78341400  1
  H  962  1  0.50082200  0.67599300  0.80470800  1
  H  963  1  0.36458700  0.66430200  0.80944800  1
  H  964  1  0.40365300  0.66444100  0.83075600  1
  H  965  1  0.47354700  0.61717500  0.82139300  1
  H  966  1  0.50160300  0.58124100  0.83752700  1
  H  967  1  0.51360100  0.65271600  0.85823200  1
  H  968  1  0.53438200  0.68500100  0.87462000  1
  H  969  1  0.46528800  0.72437200  0.82361400  1
  H  970  1  0.49432300  0.75941100  0.84025700  1
  H  971  1  0.59385700  0.76390600  0.85522500  1
  H  972  1  0.60573100  0.81101300  0.85542200  1
  H  973  1  0.48648700  0.77686500  0.87432600  1
  H  974  1  0.49834400  0.82395500  0.87451500  1
  H  975  1  0.57125400  0.75630500  0.89071600  1
  H  976  1  0.58765000  0.72035700  0.90898700  1
  H  977  1  0.55725100  0.57834100  0.89182300  1
  H  978  1  0.57392400  0.61326100  0.91075100  1
  H  979  1  0.52393400  0.68038300  0.92360300  1
  H  980  1  0.54073200  0.67993400  0.94880000  1
  H  981  1  0.63426100  0.65438600  0.91270200  1
  H  982  1  0.65088200  0.65369200  0.93806100  1
  H  983  1  0.59337300  0.57410500  0.85538000  1
  H  984  1  0.60484100  0.52698600  0.85521400  1
  H  985  1  0.49461200  0.51351600  0.87169100  1
  H  986  1  0.48309100  0.56062100  0.87179500  1
  H  1039  1  0.46241300  0.66426400  0.21547200  1
  H  1040  1  0.50144600  0.66403900  0.19418100  1
  H  1041  1  0.36488200  0.67315900  0.18931400  1
  H  1042  1  0.40395400  0.67283400  0.16801200  1
  H  1043  1  0.47152000  0.72168600  0.17666200  1
  H  1044  1  0.49952800  0.75740700  0.16035000  1
  H  1045  1  0.51514800  0.68530600  0.14070300  1
  H  1046  1  0.53934700  0.65303100  0.12513600  1
  H  1047  1  0.46842500  0.61432700  0.17611100  1
  H  1048  1  0.49728600  0.57904100  0.15962400  1
  H  1049  1  0.59496200  0.57406800  0.14227200  1
  H  1050  1  0.60654100  0.52696200  0.14203300  1
  H  1051  1  0.48422200  0.56086100  0.12624900  1
  H  1052  1  0.49580000  0.51376800  0.12599400  1
  H  1053  1  0.56222800  0.58068600  0.10687400  1
  H  1054  1  0.57772400  0.61642100  0.08834500  1
  H  1055  1  0.56236100  0.75913700  0.10712500  1
  H  1056  1  0.57849500  0.72375700  0.08833100  1
  H  1057  1  0.51712300  0.67124100  0.07558900  1
  H  1058  1  0.53117700  0.67184200  0.05015400  1
  H  1059  1  0.63429400  0.66889200  0.08510000  1
  H  1060  1  0.64837500  0.66945300  0.05955400  1
  H  1061  1  0.59313200  0.76396900  0.14385700  1
  H  1062  1  0.60492000  0.81108100  0.14402500  1
  H  1063  1  0.49658900  0.82452100  0.12583700  1
  H  1064  1  0.48475300  0.77743000  0.12571900  1
  H  1117  1  0.69653300  0.17505700  0.21536100  1
  H  1118  1  0.65769600  0.17498200  0.19402000  1
  H  1119  1  0.79422700  0.16527300  0.18938700  1
  H  1120  1  0.75533700  0.16526900  0.16803200  1
  H  1121  1  0.68655700  0.11689800  0.17698200  1
  H  1122  1  0.65887200  0.08098900  0.16071000  1
  H  1123  1  0.64525700  0.15271600  0.14044900  1
  H  1124  1  0.62282300  0.18495700  0.12445900  1
  H  1125  1  0.69246300  0.22421900  0.17545600  1
  H  1126  1  0.66307500  0.25928000  0.15896100  1
  H  1127  1  0.56381300  0.26391100  0.14312900  1
  H  1128  1  0.55209300  0.31101500  0.14276100  1
  H  1129  1  0.67262300  0.27686900  0.12522100  1
  H  1130  1  0.66092000  0.32394400  0.12486400  1
  H  1131  1  0.58865400  0.25654800  0.10797300  1
  H  1132  1  0.57239600  0.22071700  0.08961500  1
  H  1133  1  0.60101600  0.07845700  0.10674400  1
  H  1134  1  0.58384100  0.11351800  0.08797100  1
  H  1135  1  0.63501200  0.17999700  0.07515800  1
  H  1136  1  0.61828700  0.17959300  0.04996000  1
  H  1137  1  0.52401500  0.15523700  0.08605000  1
  H  1138  1  0.50744500  0.15460600  0.06068500  1
  H  1139  1  0.56681600  0.07407100  0.14381200  1
  H  1140  1  0.55510300  0.02696300  0.14410100  1
  H  1141  1  0.66369800  0.01341600  0.12616600  1
  H  1142  1  0.67548000  0.06052300  0.12594400  1
  H  1195  1  0.69595900  0.16529300  0.78316100  1
  H  1196  1  0.65711500  0.16519700  0.80450300  1
  H  1197  1  0.79393500  0.17271800  0.80922700  1
  H  1198  1  0.75504500  0.17253600  0.83058000  1
  H  1199  1  0.68848500  0.22220700  0.82229900  1
  H  1200  1  0.66081300  0.25784100  0.83871700  1
  H  1201  1  0.64367500  0.18553400  0.85798300  1
  H  1202  1  0.61837300  0.15320200  0.87333200  1
  H  1203  1  0.68917200  0.11485100  0.82222700  1
  H  1204  1  0.66000800  0.07948300  0.83860900  1
  H  1205  1  0.56286700  0.07409400  0.85681400  1
  H  1206  1  0.55142000  0.02694800  0.85718900  1
  H  1207  1  0.67475000  0.06123000  0.87166700  1
  H  1208  1  0.66330700  0.01411000  0.87205500  1
  H  1209  1  0.59732700  0.08067900  0.89175500  1
  H  1210  1  0.58195900  0.11628600  0.91035200  1
  H  1211  1  0.59637100  0.25914900  0.89165700  1
  H  1212  1  0.57983900  0.22362900  0.91034300  1
  H  1213  1  0.64156700  0.17150700  0.92305300  1
  H  1214  1  0.62753000  0.17202500  0.94848900  1
  H  1215  1  0.52441700  0.16832900  0.91355800  1
  H  1216  1  0.51035300  0.16881100  0.93910900  1
  H  1217  1  0.56710400  0.26393800  0.85428100  1
  H  1218  1  0.55507400  0.31099000  0.85398500  1
  H  1219  1  0.66161300  0.32490200  0.87360100  1
  H  1220  1  0.67371700  0.27785500  0.87384000  1
  H  1273  1  0.96384090  0.17789600  0.28325200  1
  H  1274  1  0.00203400  0.17743100  0.30476900  1
  H  1275  1  0.86617000  0.16278100  0.30849200  1
  H  1276  1  0.90437890  0.16244100  0.33002200  1
  H  1277  1  0.97387590  0.11675900  0.32126700  1
  H  1278  1  0.00132400  0.08078200  0.33752600  1
  H  1279  1  0.01321700  0.15227000  0.35822600  1
  H  1280  1  0.03426800  0.18453700  0.37459200  1
  H  1281  1  0.96578690  0.22401300  0.32347200  1
  H  1282  1  0.99453192  0.25900000  0.34020000  1
  H  1283  1  0.09389700  0.26334000  0.35539600  1
  H  1284  1  0.10589800  0.31042900  0.35554500  1
  H  1285  1  0.98619990  0.27655200  0.37417000  1
  H  1286  1  0.99818092  0.32363100  0.37430900  1
  H  1287  1  0.07053400  0.25587700  0.39084300  1
  H  1288  1  0.08683900  0.21991500  0.40911400  1
  H  1289  1  0.05688000  0.07787000  0.39184900  1
  H  1290  1  0.07368100  0.11279300  0.41075700  1
  H  1291  1  0.02354100  0.17962400  0.42370500  1
  H  1292  1  0.04050400  0.17908900  0.44888600  1
  H  1293  1  0.13400800  0.15413800  0.41265500  1
  H  1294  1  0.15079200  0.15334500  0.43799900  1
  H  1295  1  0.09256100  0.07377000  0.35513200  1
  H  1296  1  0.10436300  0.02669500  0.35497900  1
  H  1297  1  0.99484992  0.01291600  0.37205500  1
  H  1298  1  0.98297990  0.05998500  0.37214200  1
  H  1351  1  0.96425190  0.16204500  0.71566600  1
  H  1352  1  0.00255000  0.16211400  0.69417200  1
  H  1353  1  0.86625800  0.17406800  0.69014600  1
  H  1354  1  0.90456590  0.17399600  0.66864300  1
  H  1355  1  0.97194090  0.22136400  0.67679300  1
  H  1356  1  0.99942591  0.25708400  0.66035200  1
  H  1357  1  0.01477200  0.18495500  0.64070100  1
  H  1358  1  0.03922200  0.15266100  0.62516500  1
  H  1359  1  0.96883990  0.11396300  0.67626700  1
  H  1360  1  0.99743492  0.07869100  0.65972100  1
  H  1361  1  0.09497000  0.07380600  0.64215800  1
  H  1362  1  0.10665900  0.02671500  0.64196300  1
  H  1363  1  0.98395590  0.06038300  0.62646900  1
  H  1364  1  0.99564192  0.01329800  0.62626200  1
  H  1365  1  0.06162300  0.08027900  0.60685300  1
  H  1366  1  0.07706000  0.11599200  0.58830700  1
  H  1367  1  0.06199200  0.25874100  0.60707200  1
  H  1368  1  0.07823400  0.22332800  0.58831200  1
  H  1369  1  0.01699600  0.17116600  0.57550100  1
  H  1370  1  0.03130600  0.17170100  0.55008600  1
  H  1371  1  0.13403600  0.16808700  0.58517700  1
  H  1372  1  0.14837500  0.16858100  0.55965000  1
  H  1373  1  0.09242800  0.26349800  0.64406000  1
  H  1374  1  0.10453900  0.31056900  0.64420900  1
  H  1375  1  0.99692392  0.32428600  0.62548000  1
  H  1376  1  0.98475290  0.27723100  0.62538300  1
  H  1429  1  0.19480300  0.67681300  0.71544100  1
  H  1430  1  0.15688300  0.67648900  0.69385400  1
  H  1431  1  0.29309000  0.66364600  0.69025500  1
  H  1432  1  0.25514700  0.66344000  0.66865400  1
  H  1433  1  0.18669500  0.61668000  0.67705200  1
  H  1434  1  0.15962900  0.58069400  0.66068200  1
  H  1435  1  0.14613600  0.65238700  0.64036500  1
  H  1436  1  0.12344800  0.68459200  0.62438500  1
  H  1437  1  0.19251100  0.72403200  0.67546400  1
  H  1438  1  0.16344500  0.75902800  0.65886200  1
  H  1439  1  0.06430100  0.76347800  0.64276700  1
  H  1440  1  0.05249900  0.81057000  0.64247700  1
  H  1441  1  0.17350800  0.77668600  0.62527400  1
  H  1442  1  0.16172300  0.82376100  0.62499900  1
  H  1443  1  0.08987700  0.75618000  0.60771000  1
  H  1444  1  0.07364400  0.72028400  0.58938800  1
  H  1445  1  0.10193200  0.57803700  0.60667500  1
  H  1446  1  0.08458600  0.61307100  0.58791500  1
  H  1447  1  0.13578400  0.67916800  0.57495500  1
  H  1448  1  0.11872500  0.67870100  0.54978300  1
  H  1449  1  0.02465600  0.65506500  0.58609500  1
  H  1450  1  0.00776200  0.65436400  0.56075900  1
  H  1451  1  0.06828200  0.57370100  0.64401300  1
  H  1452  1  0.05643700  0.52661200  0.64429400  1
  H  1453  1  0.16431900  0.51299100  0.62576600  1
  H  1454  1  0.17624300  0.56008400  0.62555600  1
  H  1507  1  0.19435500  0.66299500  0.28305900  1
  H  1508  1  0.15634100  0.66301000  0.30462500  1
  H  1509  1  0.29293700  0.67363300  0.30845700  1
  H  1510  1  0.25490100  0.67351500  0.33003100  1
  H  1511  1  0.18843400  0.72160900  0.32218800  1
  H  1512  1  0.16130900  0.75730300  0.33869500  1
  H  1513  1  0.14452500  0.68504800  0.35806900  1
  H  1514  1  0.11904500  0.65273900  0.37342400  1
  H  1515  1  0.18929900  0.61422000  0.32224300  1
  H  1516  1  0.16044900  0.57891200  0.33872500  1
  H  1517  1  0.06340800  0.57367400  0.35712400  1
  H  1518  1  0.05189500  0.52653800  0.35743600  1
  H  1519  1  0.17553400  0.56063600  0.37165600  1
  H  1520  1  0.16402700  0.51351200  0.37197600  1
  H  1521  1  0.09834900  0.58025400  0.39195800  1
  H  1522  1  0.08300900  0.61591300  0.41052700  1
  H  1523  1  0.09731300  0.75874400  0.39172600  1
  H  1524  1  0.08066000  0.72325000  0.41040700  1
  H  1525  1  0.14213900  0.67161500  0.42322700  1
  H  1526  1  0.12781200  0.67212600  0.44864000  1
  H  1527  1  0.02514700  0.66749600  0.41354900  1
  H  1528  1  0.01079400  0.66796500  0.43907600  1
  H  1529  1  0.06838700  0.76348800  0.35412400  1
  H  1530  1  0.05625000  0.81052500  0.35383000  1
  H  1531  1  0.16217100  0.82449300  0.37391100  1
  H  1532  1  0.17439100  0.77745700  0.37414500  1
  H  1542  1  0.66627100  0.68679700  0.98385700  1
  H  1544  1  0.56054400  0.66026900  0.01423200  1
  H  1552  1  0.64864400  0.66129000  0.03340500  1
  H  1554  1  0.58946800  0.70082900  0.96727400  1
  H  1560  1  0.49302700  0.18638700  0.01493100  1
  H  1562  1  0.59851100  0.16041800  0.98434400  1
  H  1570  1  0.51009800  0.16111400  0.96532100  1
  H  1572  1  0.57090600  0.20060300  0.03131900  1
  H  1578  1  0.16638700  0.18624100  0.48384500  1
  H  1580  1  0.06082000  0.15963100  0.51428000  1
  H  1588  1  0.14894800  0.16094600  0.53344700  1
  H  1590  1  0.08993700  0.20027000  0.46727000  1
  H  1596  1  0.99288092  0.68599700  0.51489100  1
  H  1598  1  0.09851900  0.65988100  0.48441700  1
  H  1606  1  0.01030100  0.66054500  0.46530900  1
  H  1608  1  0.07033900  0.70027300  0.53136500  1
  H  1614  1  0.56027100  0.95399250  0.88284800  1
  H  1616  1  0.59991500  0.88442300  0.84968300  1
  H  1624  1  0.51549600  0.86841500  0.86812200  1
  H  1626  1  0.64485500  0.96955150  0.86651500  1
  H  1632  1  0.55913100  0.38414000  0.11568000  1
  H  1634  1  0.59924000  0.45326300  0.14909100  1
  H  1642  1  0.51443200  0.46929000  0.13109300  1
  H  1644  1  0.64388200  0.36845400  0.13159500  1
  H  1650  1  0.59999000  0.88387500  0.11711000  1
  H  1652  1  0.55971600  0.95364350  0.15003800  1
  H  1660  1  0.64552300  0.96899550  0.13223700  1
  H  1662  1  0.51421900  0.86904000  0.13229900  1
  H  1668  1  0.59859000  0.45445300  0.88143900  1
  H  1670  1  0.55864900  0.38419100  0.84872100  1
  H  1678  1  0.64423300  0.36920200  0.86678000  1
  H  1680  1  0.51296000  0.46895100  0.86593700  1
  H  1686  1  0.06069800  0.45351800  0.38274100  1
  H  1688  1  0.10017900  0.38390000  0.34958000  1
  H  1696  1  0.01563400  0.36804700  0.36794600  1
  H  1698  1  0.14537900  0.46897700  0.36635100  1
  H  1704  1  0.05953200  0.88380100  0.61582100  1
  H  1706  1  0.09947500  0.95296650  0.64923200  1
  H  1714  1  0.01455100  0.96884750  0.63129300  1
  H  1716  1  0.14440000  0.86822500  0.63179200  1
  H  1722  1  0.10047100  0.38336400  0.61701400  1
  H  1724  1  0.06032700  0.45336200  0.64981600  1
  H  1732  1  0.14619000  0.46854100  0.63190100  1
  H  1734  1  0.01456500  0.36877800  0.63216900  1
  H  1740  1  0.09899900  0.95413750  0.38150100  1
  H  1742  1  0.05918000  0.88365700  0.34890500  1
  H  1750  1  0.14481100  0.86882900  0.36707600  1
  H  1752  1  0.01322300  0.96838750  0.36603400  1
  H  1758  1  0.32528500  0.69593500  0.77197800  1
  H  1760  1  0.33049100  0.64425800  0.72763300  1
  H  1768  1  0.23994400  0.67177800  0.73416000  1
  H  1770  1  0.41596300  0.66945500  0.76514200  1
  H  1776  1  0.32554900  0.64291500  0.22675900  1
  H  1778  1  0.33041200  0.69467900  0.27108300  1
  H  1786  1  0.23986700  0.66725000  0.26442200  1
  H  1788  1  0.41621900  0.66947100  0.23370700  1
  H  1794  1  0.83332200  0.19643500  0.22683200  1
  H  1796  1  0.82790600  0.14477100  0.27118200  1
  H  1804  1  0.91867490  0.17215600  0.26457100  1
  H  1806  1  0.74252100  0.17033600  0.23369600  1
  H  1812  1  0.83300200  0.14284500  0.77189500  1
  H  1814  1  0.82801100  0.19413300  0.72741100  1
  H  1822  1  0.91870890  0.16721500  0.73423400  1
  H  1824  1  0.74225200  0.16877800  0.76485400  1
  H  1873  1  0.20646300  0.59618600  0.78341400  1
  H  1874  1  0.24548700  0.59623700  0.80470800  1
  H  1875  1  0.10925200  0.58454600  0.80944800  1
  H  1876  1  0.14831800  0.58468500  0.83075600  1
  H  1877  1  0.21821200  0.53741900  0.82139300  1
  H  1878  1  0.24626800  0.50148500  0.83752700  1
  H  1879  1  0.25826600  0.57296000  0.85823200  1
  H  1880  1  0.27904700  0.60524500  0.87462000  1
  H  1881  1  0.20995300  0.64461600  0.82361400  1
  H  1882  1  0.23898800  0.67965500  0.84025700  1
  H  1883  1  0.33852200  0.68415000  0.85522500  1
  H  1884  1  0.35039600  0.73125700  0.85542200  1
  H  1885  1  0.23115200  0.69710900  0.87432600  1
  H  1886  1  0.24300900  0.74419900  0.87451500  1
  H  1887  1  0.31591900  0.67654900  0.89071600  1
  H  1888  1  0.33231500  0.64060100  0.90898700  1
  H  1889  1  0.30191600  0.49858500  0.89182300  1
  H  1890  1  0.31858900  0.53350500  0.91075100  1
  H  1891  1  0.26859900  0.60062700  0.92360300  1
  H  1892  1  0.28539700  0.60017800  0.94880000  1
  H  1893  1  0.37892600  0.57463000  0.91270200  1
  H  1894  1  0.39554700  0.57393600  0.93806100  1
  H  1895  1  0.33803800  0.49434900  0.85538000  1
  H  1896  1  0.34950600  0.44723000  0.85521400  1
  H  1897  1  0.23927700  0.43376000  0.87169100  1
  H  1898  1  0.22775600  0.48086500  0.87179500  1
  H  1951  1  0.20707800  0.58450800  0.21547200  1
  H  1952  1  0.24611100  0.58428300  0.19418100  1
  H  1953  1  0.10954700  0.59340300  0.18931400  1
  H  1954  1  0.14861900  0.59307800  0.16801200  1
  H  1955  1  0.21618500  0.64193000  0.17666200  1
  H  1956  1  0.24419300  0.67765100  0.16035000  1
  H  1957  1  0.25981300  0.60555000  0.14070300  1
  H  1958  1  0.28401200  0.57327500  0.12513600  1
  H  1959  1  0.21309000  0.53457100  0.17611100  1
  H  1960  1  0.24195100  0.49928500  0.15962400  1
  H  1961  1  0.33962700  0.49431200  0.14227200  1
  H  1962  1  0.35120600  0.44720600  0.14203300  1
  H  1963  1  0.22888700  0.48110500  0.12624900  1
  H  1964  1  0.24046500  0.43401200  0.12599400  1
  H  1965  1  0.30689300  0.50093000  0.10687400  1
  H  1966  1  0.32238900  0.53666500  0.08834500  1
  H  1967  1  0.30702600  0.67938100  0.10712500  1
  H  1968  1  0.32316000  0.64400100  0.08833100  1
  H  1969  1  0.26178800  0.59148500  0.07558900  1
  H  1970  1  0.27584200  0.59208600  0.05015400  1
  H  1971  1  0.37895900  0.58913600  0.08510000  1
  H  1972  1  0.39304000  0.58969700  0.05955400  1
  H  1973  1  0.33779700  0.68421300  0.14385700  1
  H  1974  1  0.34958500  0.73132500  0.14402500  1
  H  1975  1  0.24125400  0.74476500  0.12583700  1
  H  1976  1  0.22941800  0.69767400  0.12571900  1
  H  2029  1  0.44119800  0.09530100  0.21536100  1
  H  2030  1  0.40236100  0.09522600  0.19402000  1
  H  2031  1  0.53889200  0.08551700  0.18938700  1
  H  2032  1  0.50000200  0.08551300  0.16803200  1
  H  2033  1  0.43122200  0.03714200  0.17698200  1
  H  2034  1  0.40353700  0.00123300  0.16071000  1
  H  2035  1  0.38992200  0.07296000  0.14044900  1
  H  2036  1  0.36748800  0.10520100  0.12445900  1
  H  2037  1  0.43712800  0.14446300  0.17545600  1
  H  2038  1  0.40774000  0.17952400  0.15896100  1
  H  2039  1  0.30847800  0.18415500  0.14312900  1
  H  2040  1  0.29675800  0.23125900  0.14276100  1
  H  2041  1  0.41728800  0.19711300  0.12522100  1
  H  2042  1  0.40558500  0.24418800  0.12486400  1
  H  2043  1  0.33333333  0.17679200  0.10797300  1
  H  2044  1  0.31706100  0.14096100  0.08961500  1
  H  2045  1  0.34568100  0.99870106  0.10674400  1
  H  2046  1  0.32850600  0.03376200  0.08797100  1
  H  2047  1  0.37967700  0.10024100  0.07515800  1
  H  2048  1  0.36295200  0.09983700  0.04996000  1
  H  2049  1  0.26868000  0.07548100  0.08605000  1
  H  2050  1  0.25211000  0.07485000  0.06068500  1
  H  2051  1  0.31148100  0.99431506  0.14381200  1
  H  2052  1  0.29976800  0.94720710  0.14410100  1
  H  2053  1  0.40836300  0.93366010  0.12616600  1
  H  2054  1  0.42014500  0.98076710  0.12594400  1
  H  2107  1  0.44062400  0.08553700  0.78316100  1
  H  2108  1  0.40178000  0.08544100  0.80450300  1
  H  2109  1  0.53860000  0.09296200  0.80922700  1
  H  2110  1  0.49971000  0.09278000  0.83058000  1
  H  2111  1  0.43315000  0.14245100  0.82229900  1
  H  2112  1  0.40547800  0.17808500  0.83871700  1
  H  2113  1  0.38834000  0.10577800  0.85798300  1
  H  2114  1  0.36303800  0.07344600  0.87333200  1
  H  2115  1  0.43383700  0.03509500  0.82222700  1
  H  2116  1  0.40467300  0.99972706  0.83860900  1
  H  2117  1  0.30753200  0.99433806  0.85681400  1
  H  2118  1  0.29608500  0.94719210  0.85718900  1
  H  2119  1  0.41941500  0.98147410  0.87166700  1
  H  2120  1  0.40797200  0.93435410  0.87205500  1
  H  2121  1  0.34199200  0.00092300  0.89175500  1
  H  2122  1  0.32662400  0.03653000  0.91035200  1
  H  2123  1  0.34103600  0.17939300  0.89165700  1
  H  2124  1  0.32450400  0.14387300  0.91034300  1
  H  2125  1  0.38623200  0.09175100  0.92305300  1
  H  2126  1  0.37219500  0.09226900  0.94848900  1
  H  2127  1  0.26908200  0.08857300  0.91355800  1
  H  2128  1  0.25501800  0.08905500  0.93910900  1
  H  2129  1  0.31176900  0.18418200  0.85428100  1
  H  2130  1  0.29973900  0.23123400  0.85398500  1
  H  2131  1  0.40627800  0.24514600  0.87360100  1
  H  2132  1  0.41838200  0.19809900  0.87384000  1
  H  2185  1  0.70850600  0.09814000  0.28325200  1
  H  2186  1  0.74669900  0.09767500  0.30476900  1
  H  2187  1  0.61083500  0.08302500  0.30849200  1
  H  2188  1  0.64904400  0.08268500  0.33002200  1
  H  2189  1  0.71854100  0.03700300  0.32126700  1
  H  2190  1  0.74598900  0.00102600  0.33752600  1
  H  2191  1  0.75788200  0.07251400  0.35822600  1
  H  2192  1  0.77893300  0.10478100  0.37459200  1
  H  2193  1  0.71045200  0.14425700  0.32347200  1
  H  2194  1  0.73919700  0.17924400  0.34020000  1
  H  2195  1  0.83856200  0.18358400  0.35539600  1
  H  2196  1  0.85056300  0.23067300  0.35554500  1
  H  2197  1  0.73086500  0.19679600  0.37417000  1
  H  2198  1  0.74284600  0.24387500  0.37430900  1
  H  2199  1  0.81519900  0.17612100  0.39084300  1
  H  2200  1  0.83150400  0.14015900  0.40911400  1
  H  2201  1  0.80154500  0.99811406  0.39184900  1
  H  2202  1  0.81834600  0.03303700  0.41075700  1
  H  2203  1  0.76820600  0.09986800  0.42370500  1
  H  2204  1  0.78516900  0.09933300  0.44888600  1
  H  2205  1  0.87867300  0.07438200  0.41265500  1
  H  2206  1  0.89545700  0.07358900  0.43799900  1
  H  2207  1  0.83722600  0.99401406  0.35513200  1
  H  2208  1  0.84902800  0.94693910  0.35497900  1
  H  2209  1  0.73951500  0.93316010  0.37205500  1
  H  2210  1  0.72764500  0.98022910  0.37214200  1
  H  2263  1  0.70891700  0.08228900  0.71566600  1
  H  2264  1  0.74721500  0.08235800  0.69417200  1
  H  2265  1  0.61092300  0.09431200  0.69014600  1
  H  2266  1  0.64923100  0.09424000  0.66864300  1
  H  2267  1  0.71660600  0.14160800  0.67679300  1
  H  2268  1  0.74409100  0.17732800  0.66035200  1
  H  2269  1  0.75943700  0.10519900  0.64070100  1
  H  2270  1  0.78388700  0.07290500  0.62516500  1
  H  2271  1  0.71350500  0.03420700  0.67626700  1
  H  2272  1  0.74210000  0.99893506  0.65972100  1
  H  2273  1  0.83963500  0.99405006  0.64215800  1
  H  2274  1  0.85132400  0.94695910  0.64196300  1
  H  2275  1  0.72862100  0.98062710  0.62646900  1
  H  2276  1  0.74030700  0.93354210  0.62626200  1
  H  2277  1  0.80628800  0.00052300  0.60685300  1
  H  2278  1  0.82172500  0.03623600  0.58830700  1
  H  2279  1  0.80665700  0.17898500  0.60707200  1
  H  2280  1  0.82289900  0.14357200  0.58831200  1
  H  2281  1  0.76166100  0.09141000  0.57550100  1
  H  2282  1  0.77597100  0.09194500  0.55008600  1
  H  2283  1  0.87870100  0.08833100  0.58517700  1
  H  2284  1  0.89304000  0.08882500  0.55965000  1
  H  2285  1  0.83709300  0.18374200  0.64406000  1
  H  2286  1  0.84920400  0.23081300  0.64420900  1
  H  2287  1  0.74158900  0.24453000  0.62548000  1
  H  2288  1  0.72941800  0.19747500  0.62538300  1
  H  2341  1  0.93946780  0.59705700  0.71544100  1
  H  2342  1  0.90154780  0.59673300  0.69385400  1
  H  2343  1  0.03775500  0.58389000  0.69025500  1
  H  2344  1  0.99981183  0.58368400  0.66865400  1
  H  2345  1  0.93135980  0.53692400  0.67705200  1
  H  2346  1  0.90429380  0.50093800  0.66068200  1
  H  2347  1  0.89080100  0.57263100  0.64036500  1
  H  2348  1  0.86811300  0.60483600  0.62438500  1
  H  2349  1  0.93717580  0.64427600  0.67546400  1
  H  2350  1  0.90810980  0.67927200  0.65886200  1
  H  2351  1  0.80896600  0.68372200  0.64276700  1
  H  2352  1  0.79716400  0.73081400  0.64247700  1
  H  2353  1  0.91817280  0.69693000  0.62527400  1
  H  2354  1  0.90638780  0.74400500  0.62499900  1
  H  2355  1  0.83454200  0.67642400  0.60771000  1
  H  2356  1  0.81830900  0.64052800  0.58938800  1
  H  2357  1  0.84659700  0.49828100  0.60667500  1
  H  2358  1  0.82925100  0.53331500  0.58791500  1
  H  2359  1  0.88044900  0.59941200  0.57495500  1
  H  2360  1  0.86339000  0.59894500  0.54978300  1
  H  2361  1  0.76932100  0.57530900  0.58609500  1
  H  2362  1  0.75242700  0.57460800  0.56075900  1
  H  2363  1  0.81294700  0.49394500  0.64401300  1
  H  2364  1  0.80110200  0.44685600  0.64429400  1
  H  2365  1  0.90898380  0.43323500  0.62576600  1
  H  2366  1  0.92090780  0.48032800  0.62555600  1
  H  2419  1  0.93901980  0.58323900  0.28305900  1
  H  2420  1  0.90100580  0.58325400  0.30462500  1
  H  2421  1  0.03760200  0.59387700  0.30845700  1
  H  2422  1  0.99956583  0.59375900  0.33003100  1
  H  2423  1  0.93309880  0.64185300  0.32218800  1
  H  2424  1  0.90597380  0.67754700  0.33869500  1
  H  2425  1  0.88919000  0.60529200  0.35806900  1
  H  2426  1  0.86371000  0.57298300  0.37342400  1
  H  2427  1  0.93396380  0.53446400  0.32224300  1
  H  2428  1  0.90511380  0.49915600  0.33872500  1
  H  2429  1  0.80807300  0.49391800  0.35712400  1
  H  2430  1  0.79656000  0.44678200  0.35743600  1
  H  2431  1  0.92019880  0.48088000  0.37165600  1
  H  2432  1  0.90869180  0.43375600  0.37197600  1
  H  2433  1  0.84301400  0.50049800  0.39195800  1
  H  2434  1  0.82767400  0.53615700  0.41052700  1
  H  2435  1  0.84197800  0.67898800  0.39172600  1
  H  2436  1  0.82532500  0.64349400  0.41040700  1
  H  2437  1  0.88680400  0.59185900  0.42322700  1
  H  2438  1  0.87247700  0.59237000  0.44864000  1
  H  2439  1  0.76981200  0.58774000  0.41354900  1
  H  2440  1  0.75545900  0.58820900  0.43907600  1
  H  2441  1  0.81305200  0.68373200  0.35412400  1
  H  2442  1  0.80091500  0.73076900  0.35383000  1
  H  2443  1  0.90683580  0.74473700  0.37391100  1
  H  2444  1  0.91905580  0.69770100  0.37414500  1
  H  2454  1  0.41093600  0.60704100  0.98385700  1
  H  2456  1  0.30520900  0.58051300  0.01423200  1
  H  2464  1  0.39330900  0.58153400  0.03340500  1
  H  2466  1  0.33413300  0.62107300  0.96727400  1
  H  2472  1  0.23769200  0.10663100  0.01493100  1
  H  2474  1  0.34317600  0.08066200  0.98434400  1
  H  2482  1  0.25476300  0.08135800  0.96532100  1
  H  2484  1  0.31557100  0.12084700  0.03131900  1
  H  2490  1  0.91105180  0.10648500  0.48384500  1
  H  2492  1  0.80548500  0.07987500  0.51428000  1
  H  2500  1  0.89361300  0.08119000  0.53344700  1
  H  2502  1  0.83460200  0.12051400  0.46727000  1
  H  2508  1  0.73754600  0.60624100  0.51489100  1
  H  2510  1  0.84318400  0.58012500  0.48441700  1
  H  2518  1  0.75496600  0.58078900  0.46530900  1
  H  2520  1  0.81500400  0.62051700  0.53136500  1
  H  2526  1  0.30493600  0.87423700  0.88284800  1
  H  2528  1  0.34458000  0.80466700  0.84968300  1
  H  2536  1  0.26016100  0.78865900  0.86812200  1
  H  2538  1  0.38952000  0.88979600  0.86651500  1
  H  2544  1  0.30379600  0.30438400  0.11568000  1
  H  2546  1  0.34390500  0.37350700  0.14909100  1
  H  2554  1  0.25909700  0.38953400  0.13109300  1
  H  2556  1  0.38854700  0.28869800  0.13159500  1
  H  2562  1  0.34465500  0.80411900  0.11711000  1
  H  2564  1  0.30438100  0.87388800  0.15003800  1
  H  2572  1  0.39018800  0.88924000  0.13223700  1
  H  2574  1  0.25888400  0.78928400  0.13229900  1
  H  2580  1  0.34325500  0.37469700  0.88143900  1
  H  2582  1  0.30331400  0.30443500  0.84872100  1
  H  2590  1  0.38889800  0.28944600  0.86678000  1
  H  2592  1  0.25762500  0.38919500  0.86593700  1
  H  2598  1  0.80536300  0.37376200  0.38274100  1
  H  2600  1  0.84484400  0.30414400  0.34958000  1
  H  2608  1  0.76029900  0.28829100  0.36794600  1
  H  2610  1  0.89004400  0.38922100  0.36635100  1
  H  2616  1  0.80419700  0.80404500  0.61582100  1
  H  2618  1  0.84414000  0.87321100  0.64923200  1
  H  2626  1  0.75921600  0.88909200  0.63129300  1
  H  2628  1  0.88906500  0.78846900  0.63179200  1
  H  2634  1  0.84513600  0.30360800  0.61701400  1
  H  2636  1  0.80499200  0.37360600  0.64981600  1
  H  2644  1  0.89085500  0.38878500  0.63190100  1
  H  2646  1  0.75923000  0.28902200  0.63216900  1
  H  2652  1  0.84366400  0.87438200  0.38150100  1
  H  2654  1  0.80384500  0.80390100  0.34890500  1
  H  2662  1  0.88947600  0.78907300  0.36707600  1
  H  2664  1  0.75788800  0.88863200  0.36603400  1
  H  2670  1  0.06995000  0.61617900  0.77197800  1
  H  2672  1  0.07515600  0.56450200  0.72763300  1
  H  2680  1  0.98460880  0.59202200  0.73416000  1
  H  2682  1  0.16062800  0.58969900  0.76514200  1
  H  2688  1  0.07021400  0.56315900  0.22675900  1
  H  2690  1  0.07507700  0.61492300  0.27108300  1
  H  2698  1  0.98453180  0.58749400  0.26442200  1
  H  2700  1  0.16088400  0.58971500  0.23370700  1
  H  2706  1  0.57798700  0.11667900  0.22683200  1
  H  2708  1  0.57257100  0.06501500  0.27118200  1
  H  2716  1  0.66334000  0.09240000  0.26457100  1
  H  2718  1  0.48718600  0.09058000  0.23369600  1
  H  2724  1  0.57766700  0.06308900  0.77189500  1
  H  2726  1  0.57267600  0.11437700  0.72741100  1
  H  2734  1  0.66337400  0.08745900  0.73423400  1
  H  2736  1  0.48691700  0.08902200  0.76485400  1
  C  1  1  0.74100500  0.70037800  0.83129500  1
  C  2  1  0.75669800  0.68086200  0.83999800  1
  C  3  1  0.77052400  0.69300000  0.85259200  1
  C  5  1  0.74569300  0.72494300  0.83822600  1
  C  6  1  0.73404100  0.74996200  0.83248700  1
  C  7  1  0.74374700  0.77498600  0.83866400  1
  C  9  1  0.76899400  0.80580800  0.85337900  1
  C  10  1  0.75135800  0.81904300  0.84187500  1
  C  11  1  0.73514000  0.80004900  0.83295400  1
  C  12  1  0.78842700  0.81789700  0.86516000  1
  C  13  1  0.80311500  0.80414600  0.87744300  1
  C  15  1  0.81760400  0.77220800  0.89374000  1
  C  16  1  0.82956700  0.79670600  0.89932700  1
  C  17  1  0.82110200  0.81622000  0.88927500  1
  C  18  1  0.82193500  0.74726300  0.90088700  1
  C  19  1  0.81476400  0.72225500  0.89422100  1
  C  21  1  0.79958600  0.69149100  0.87760600  1
  C  22  1  0.81152800  0.67821900  0.89013100  1
  C  23  1  0.81997400  0.69718700  0.90049700  1
  C  24  1  0.78708200  0.67933900  0.86453600  1
  C  25  1  0.79226100  0.65132200  0.86334500  1
  C  26  1  0.76380000  0.63339200  0.86796500  1
  C  27  1  0.77060200  0.60574600  0.86787600  1
  C  28  1  0.80595300  0.59554500  0.86316100  1
  C  29  1  0.83416400  0.61357000  0.85847300  1
  C  30  1  0.82744900  0.64119300  0.85853900  1
  C  31  1  0.83300500  0.74743300  0.91579200  1
  C  32  1  0.80630300  0.75488500  0.92648600  1
  C  33  1  0.81620000  0.75474900  0.94126800  1
  C  34  1  0.85309300  0.74730100  0.94571800  1
  C  35  1  0.87959000  0.73942200  0.93507100  1
  C  36  1  0.86985200  0.73983000  0.92023100  1
  C  37  1  0.79415800  0.84594200  0.86453400  1
  C  38  1  0.82865400  0.85621900  0.85908700  1
  C  39  1  0.83563000  0.88382600  0.85925300  1
  C  40  1  0.80827200  0.90170400  0.86472600  1
  C  41  1  0.77370100  0.89134900  0.87016700  1
  C  42  1  0.76672400  0.86371100  0.87009600  1
  C  43  1  0.71120700  0.74995300  0.81970000  1
  C  44  1  0.72747600  0.75322800  0.80579900  1
  C  45  1  0.67151700  0.74656900  0.82081300  1
  C  46  1  0.64861000  0.74650200  0.80829400  1
  C  47  1  0.66466800  0.74964900  0.79436000  1
  C  48  1  0.70447200  0.75310300  0.79328700  1
  C  79  1  0.73951400  0.79779800  0.16688200  1
  C  80  1  0.75522100  0.81721000  0.15809300  1
  C  81  1  0.77012500  0.80480900  0.14576700  1
  C  83  1  0.74532900  0.77303300  0.16030000  1
  C  84  1  0.73447700  0.74804000  0.16633200  1
  C  85  1  0.74482400  0.72292500  0.16043400  1
  C  87  1  0.76993100  0.69184900  0.14585300  1
  C  88  1  0.75379200  0.67887000  0.15776700  1
  C  89  1  0.73763900  0.69799200  0.16660700  1
  C  90  1  0.78807500  0.67947800  0.13386300  1
  C  91  1  0.80113000  0.69292000  0.12121100  1
  C  93  1  0.81504100  0.72469800  0.10472800  1
  C  94  1  0.82275800  0.69988300  0.09851600  1
  C  95  1  0.81487800  0.68045100  0.10869700  1
  C  96  1  0.82052300  0.74967000  0.09772800  1
  C  97  1  0.81499900  0.77478200  0.10447600  1
  C  99  1  0.80057900  0.80586800  0.12098600  1
  C  100  1  0.81460900  0.81882700  0.10866900  1
  C  101  1  0.82284200  0.79967100  0.09838300  1
  C  102  1  0.78755200  0.81824100  0.13391200  1
  C  103  1  0.79291900  0.84626000  0.13502800  1
  C  104  1  0.76510500  0.86417400  0.12990000  1
  C  105  1  0.77210000  0.89180800  0.12998800  1
  C  106  1  0.80697800  0.90201500  0.13522200  1
  C  107  1  0.83457600  0.88400200  0.14037700  1
  C  108  1  0.82765700  0.85638800  0.14032700  1
  C  109  1  0.82977300  0.74962500  0.08267300  1
  C  110  1  0.80022400  0.75047900  0.07233200  1
  C  111  1  0.80850300  0.75085400  0.05740800  1
  C  112  1  0.84636300  0.75015500  0.05245700  1
  C  113  1  0.87599500  0.74933200  0.06281300  1
  C  114  1  0.86777600  0.74908800  0.07779000  1
  C  115  1  0.79364100  0.65142900  0.13451800  1
  C  116  1  0.82902500  0.64121900  0.13905400  1
  C  117  1  0.83581500  0.61360300  0.13887000  1
  C  118  1  0.80746000  0.59564800  0.13422800  1
  C  119  1  0.77198600  0.60593600  0.12971000  1
  C  120  1  0.76514300  0.63357900  0.12983600  1
  C  121  1  0.71166700  0.74816700  0.17912600  1
  C  122  1  0.72802800  0.74576100  0.19306300  1
  C  123  1  0.67188300  0.75082600  0.17797800  1
  C  124  1  0.64897300  0.75101000  0.19049500  1
  C  125  1  0.66510800  0.74866200  0.20446100  1
  C  126  1  0.70501400  0.74596500  0.20557200  1
  C  157  1  0.92952500  0.20016900  0.16713400  1
  C  158  1  0.91393300  0.18066700  0.15837600  1
  C  159  1  0.89973600  0.19289000  0.14587400  1
  C  161  1  0.92429300  0.22481900  0.16035700  1
  C  162  1  0.93550600  0.24985000  0.16623400  1
  C  163  1  0.92540400  0.27489000  0.16018600  1
  C  165  1  0.89983300  0.30575000  0.14559800  1
  C  166  1  0.91705100  0.31893000  0.15722400  1
  C  167  1  0.93341500  0.29992500  0.16608000  1
  C  168  1  0.88052100  0.31789500  0.13381100  1
  C  169  1  0.86617300  0.30423400  0.12143000  1
  C  171  1  0.85185000  0.27237600  0.10503500  1
  C  172  1  0.84059200  0.29696100  0.09937200  1
  C  173  1  0.84895400  0.31642100  0.10947500  1
  C  174  1  0.84730000  0.24745200  0.09787200  1
  C  175  1  0.85447900  0.22239600  0.10447100  1
  C  177  1  0.87019400  0.19150900  0.12093500  1
  C  178  1  0.85780100  0.17832800  0.10843700  1
  C  179  1  0.84887500  0.19736900  0.09818000  1
  C  180  1  0.88307600  0.17927800  0.13392300  1
  C  181  1  0.87781600  0.15125300  0.13509100  1
  C  182  1  0.90574300  0.13330800  0.13008500  1
  C  183  1  0.89878900  0.10566700  0.13024300  1
  C  184  1  0.86382900  0.09549400  0.13541600  1
  C  185  1  0.83615200  0.11353300  0.14047800  1
  C  186  1  0.84302800  0.14114800  0.14035400  1
  C  187  1  0.83626500  0.24768600  0.08296400  1
  C  188  1  0.86318800  0.25478700  0.07227100  1
  C  189  1  0.85332000  0.25470200  0.05748700  1
  C  190  1  0.81625300  0.24763100  0.05302600  1
  C  191  1  0.78954100  0.24008000  0.06367700  1
  C  192  1  0.79924300  0.24046000  0.07852200  1
  C  193  1  0.87488900  0.34594200  0.13445100  1
  C  194  1  0.84001900  0.35622400  0.13949900  1
  C  195  1  0.83314500  0.38383100  0.13924200  1
  C  196  1  0.86095500  0.40170800  0.13405900  1
  C  197  1  0.89591300  0.39134600  0.12903100  1
  C  198  1  0.90279200  0.36371300  0.12919300  1
  C  199  1  0.95823400  0.24985700  0.17905100  1
  C  200  1  0.94177800  0.25263800  0.19295000  1
  C  201  1  0.99800700  0.24703600  0.17797200  1
  C  202  1  0.02080900  0.24705300  0.19051900  1
  C  203  1  0.00457500  0.24976600  0.20445000  1
  C  204  1  0.96468000  0.25261700  0.20549100  1
  C  235  1  0.93114500  0.29825400  0.83207100  1
  C  236  1  0.91548200  0.31761400  0.84088700  1
  C  237  1  0.90014500  0.30511200  0.85311300  1
  C  239  1  0.92472900  0.27341800  0.83850300  1
  C  240  1  0.93510100  0.24845000  0.83234200  1
  C  241  1  0.92438800  0.22330900  0.83813900  1
  C  243  1  0.89901100  0.19215400  0.85263100  1
  C  244  1  0.91469400  0.17927600  0.84060500  1
  C  245  1  0.93100800  0.19844000  0.83181700  1
  C  246  1  0.88093700  0.17969500  0.86461800  1
  C  247  1  0.86818900  0.19304300  0.87734000  1
  C  249  1  0.85440500  0.22470700  0.89388400  1
  C  250  1  0.84718100  0.19983200  0.90012900  1
  C  251  1  0.85492900  0.18046700  0.88990500  1
  C  252  1  0.84883900  0.24962900  0.90091800  1
  C  253  1  0.85437700  0.27478500  0.89421200  1
  C  255  1  0.86919600  0.30599300  0.87780900  1
  C  256  1  0.85479100  0.31885200  0.89008500  1
  C  257  1  0.84629700  0.29962200  0.90030700  1
  C  258  1  0.88257700  0.31846100  0.86495500  1
  C  259  1  0.87714500  0.34646200  0.86383900  1
  C  260  1  0.90437500  0.36449200  0.86934600  1
  C  261  1  0.89725600  0.39209900  0.86916700  1
  C  262  1  0.86281200  0.40214900  0.86347900  1
  C  263  1  0.83578000  0.38402100  0.85796700  1
  C  264  1  0.84285400  0.35644200  0.85808800  1
  C  265  1  0.83959700  0.24950500  0.91597500  1
  C  266  1  0.86914400  0.25056100  0.92631400  1
  C  267  1  0.86087500  0.25087400  0.94123800  1
  C  268  1  0.82302700  0.24994500  0.94619500  1
  C  269  1  0.79339700  0.24887300  0.93584500  1
  C  270  1  0.80160600  0.24868500  0.92086500  1
  C  271  1  0.87541100  0.15163000  0.86395600  1
  C  272  1  0.83973500  0.14130700  0.85979900  1
  C  273  1  0.83302600  0.11367100  0.86006300  1
  C  274  1  0.86175400  0.09580700  0.86440200  1
  C  275  1  0.89752700  0.10620800  0.86852800  1
  C  276  1  0.90429000  0.13386900  0.86832700  1
  C  277  1  0.95779900  0.24861100  0.81951600  1
  C  278  1  0.94126000  0.24658800  0.80559200  1
  C  279  1  0.99765500  0.25081900  0.82062200  1
  C  280  1  0.02045700  0.25091700  0.80807600  1
  C  281  1  0.00415200  0.24889000  0.79412200  1
  C  282  1  0.96416800  0.24669400  0.79305200  1
  C  313  1  0.24106100  0.19994800  0.33121800  1
  C  314  1  0.25641500  0.18040600  0.33999400  1
  C  315  1  0.27006700  0.19253400  0.35261700  1
  C  317  1  0.24571400  0.22451900  0.33814700  1
  C  318  1  0.23440800  0.24956000  0.33232600  1
  C  319  1  0.24402900  0.27457000  0.33854600  1
  C  321  1  0.26898600  0.30537100  0.35335100  1
  C  322  1  0.25156700  0.31862800  0.34180800  1
  C  323  1  0.23552900  0.29965300  0.33283100  1
  C  324  1  0.28820700  0.31746100  0.36518400  1
  C  325  1  0.30271000  0.30370900  0.37749600  1
  C  327  1  0.31710800  0.27175200  0.39379600  1
  C  328  1  0.32888800  0.29626200  0.39942700  1
  C  329  1  0.32046800  0.31578600  0.38937800  1
  C  330  1  0.32149500  0.24679100  0.40092500  1
  C  331  1  0.31429100  0.22178700  0.39425700  1
  C  333  1  0.29898500  0.19101700  0.37765600  1
  C  334  1  0.31105100  0.17775100  0.39016700  1
  C  335  1  0.31959100  0.19671800  0.40052100  1
  C  336  1  0.28646800  0.17885700  0.36458800  1
  C  337  1  0.29174800  0.15084100  0.36338600  1
  C  338  1  0.26359300  0.13282900  0.36818200  1
  C  339  1  0.27059800  0.10520200  0.36810300  1
  C  340  1  0.30584800  0.09509500  0.36322100  1
  C  341  1  0.33375100  0.11320100  0.35835800  1
  C  342  1  0.32683400  0.14080200  0.35841300  1
  C  343  1  0.33266100  0.24693400  0.41582100  1
  C  344  1  0.30597000  0.25422200  0.42655200  1
  C  345  1  0.31596500  0.25403500  0.44132500  1
  C  346  1  0.35293800  0.24669200  0.44572900  1
  C  347  1  0.37944200  0.23900000  0.43504400  1
  C  348  1  0.36960300  0.23946100  0.42021300  1
  C  349  1  0.29403500  0.34549900  0.36455300  1
  C  350  1  0.32865800  0.35570100  0.35918200  1
  C  351  1  0.33570800  0.38329900  0.35931900  1
  C  352  1  0.30829700  0.40124900  0.36468300  1
  C  353  1  0.27359400  0.39097100  0.37004300  1
  C  354  1  0.26654100  0.36333900  0.37000300  1
  C  355  1  0.21211500  0.24960700  0.31939000  1
  C  356  1  0.22877100  0.25399900  0.30564500  1
  C  357  1  0.17254000  0.24535800  0.32020100  1
  C  358  1  0.15013100  0.24559300  0.30755200  1
  C  359  1  0.16657700  0.24994600  0.29378000  1
  C  360  1  0.20626700  0.25419600  0.29299900  1
  C  391  1  0.23966200  0.29747000  0.66696200  1
  C  392  1  0.25507300  0.31688500  0.65809900  1
  C  393  1  0.26977800  0.30447400  0.64574200  1
  C  395  1  0.24539000  0.27269300  0.66038100  1
  C  396  1  0.23481100  0.24770000  0.66649100  1
  C  397  1  0.24506700  0.22258200  0.66056500  1
  C  399  1  0.26990800  0.19149900  0.64591800  1
  C  400  1  0.25394700  0.17852200  0.65786600  1
  C  401  1  0.23795200  0.19764400  0.66674500  1
  C  402  1  0.28787000  0.17910700  0.63389500  1
  C  403  1  0.30078100  0.19253800  0.62121600  1
  C  405  1  0.31463700  0.22429700  0.60471600  1
  C  406  1  0.32221000  0.19947000  0.59849200  1
  C  407  1  0.31434800  0.18004900  0.60868000  1
  C  408  1  0.32016100  0.24926400  0.59771200  1
  C  409  1  0.31458300  0.27438400  0.60444700  1
  C  411  1  0.30006100  0.30550500  0.62092800  1
  C  412  1  0.31417200  0.31843600  0.60861600  1
  C  413  1  0.32247900  0.29926300  0.59835000  1
  C  414  1  0.28704400  0.31790500  0.63385000  1
  C  415  1  0.29252000  0.34592200  0.63496700  1
  C  416  1  0.26500600  0.36391000  0.62967800  1
  C  417  1  0.27219500  0.39152400  0.62975400  1
  C  418  1  0.30697200  0.40164500  0.63513800  1
  C  419  1  0.33426400  0.38355900  0.64045300  1
  C  420  1  0.32714900  0.35596900  0.64041500  1
  C  421  1  0.32955500  0.24920500  0.58266800  1
  C  422  1  0.30012300  0.25024600  0.57228300  1
  C  423  1  0.30855500  0.25057900  0.55737100  1
  C  424  1  0.34645200  0.24966500  0.55247300  1
  C  425  1  0.37596900  0.24864300  0.56287000  1
  C  426  1  0.36759700  0.24843600  0.57783700  1
  C  427  1  0.29351300  0.15106200  0.63456000  1
  C  428  1  0.32900400  0.14091600  0.63901600  1
  C  429  1  0.33585600  0.11330700  0.63886000  1
  C  430  1  0.30746000  0.09529000  0.63432800  1
  C  431  1  0.27187200  0.10551200  0.62989400  1
  C  432  1  0.26496600  0.13315100  0.62999100  1
  C  433  1  0.21246900  0.24782500  0.67941400  1
  C  434  1  0.22919100  0.24446500  0.69323100  1
  C  435  1  0.17277000  0.25130800  0.67851500  1
  C  436  1  0.15030400  0.25132500  0.69114900  1
  C  437  1  0.16680400  0.24796500  0.70499000  1
  C  438  1  0.20661900  0.24448600  0.70586000  1
  C  469  1  0.42994100  0.69991500  0.66715000  1
  C  470  1  0.41471200  0.68036500  0.65833200  1
  C  471  1  0.40069100  0.69255100  0.64579200  1
  C  473  1  0.42475800  0.72455100  0.66035200  1
  C  474  1  0.43564400  0.74961400  0.66628800  1
  C  475  1  0.42565700  0.77463400  0.66018400  1
  C  477  1  0.40040200  0.80545800  0.64548800  1
  C  478  1  0.41741800  0.81867300  0.65714400  1
  C  479  1  0.43358700  0.79969500  0.66606700  1
  C  480  1  0.38129700  0.81758500  0.63364700  1
  C  481  1  0.36709200  0.80388800  0.62125500  1
  C  483  1  0.35280400  0.77196900  0.60489200  1
  C  484  1  0.34171700  0.79655000  0.59917100  1
  C  485  1  0.35007500  0.81604900  0.60925000  1
  C  486  1  0.34819100  0.74701200  0.59776800  1
  C  487  1  0.35542000  0.72197100  0.60437600  1
  C  489  1  0.37129100  0.69110200  0.62083200  1
  C  490  1  0.35878200  0.67790700  0.60835500  1
  C  491  1  0.34974300  0.69693500  0.59810500  1
  C  492  1  0.38421100  0.67888800  0.63381900  1
  C  493  1  0.37895900  0.65085700  0.63500000  1
  C  494  1  0.40664300  0.63288700  0.62982500  1
  C  495  1  0.39960700  0.60525000  0.62997300  1
  C  496  1  0.36480500  0.59509900  0.63531300  1
  C  497  1  0.33737900  0.61316000  0.64055100  1
  C  498  1  0.34433600  0.64076600  0.64043400  1
  C  499  1  0.33700500  0.74718700  0.58287800  1
  C  500  1  0.36387500  0.75407200  0.57212600  1
  C  501  1  0.35382000  0.75395000  0.55736000  1
  C  502  1  0.31662100  0.74705200  0.55298400  1
  C  503  1  0.28995500  0.73970800  0.56369400  1
  C  504  1  0.29984800  0.74012800  0.57852000  1
  C  505  1  0.37556600  0.84562800  0.63427900  1
  C  506  1  0.34056000  0.85583800  0.63923200  1
  C  507  1  0.33364000  0.88344000  0.63902300  1
  C  508  1  0.36154200  0.90139000  0.63398900  1
  C  509  1  0.39663400  0.89110400  0.62905300  1
  C  510  1  0.40355900  0.86347200  0.62916300  1
  C  511  1  0.45781200  0.74967400  0.67925300  1
  C  512  1  0.44089800  0.75347100  0.69300200  1
  C  513  1  0.49748000  0.74594600  0.67847600  1
  C  514  1  0.51973100  0.74609600  0.69116800  1
  C  515  1  0.50302900  0.74986300  0.70494300  1
  C  516  1  0.46324500  0.75359700  0.70568800  1
  C  547  1  0.43139100  0.79768700  0.33202000  1
  C  548  1  0.41604500  0.81708500  0.34089200  1
  C  549  1  0.40094100  0.80462200  0.35317100  1
  C  551  1  0.42509300  0.77286700  0.33848800  1
  C  552  1  0.43521000  0.74787700  0.33228500  1
  C  553  1  0.42463600  0.72275200  0.33814100  1
  C  555  1  0.39956500  0.69163100  0.35273600  1
  C  556  1  0.41510300  0.67871500  0.34069500  1
  C  557  1  0.43122900  0.69785500  0.33184400  1
  C  558  1  0.38166600  0.67919200  0.36476800  1
  C  559  1  0.36902100  0.69258200  0.37749000  1
  C  561  1  0.35526100  0.72429600  0.39400900  1
  C  562  1  0.34814300  0.69943500  0.40028900  1
  C  563  1  0.35589100  0.68003800  0.39008500  1
  C  564  1  0.34967200  0.74924000  0.40101800  1
  C  565  1  0.35528100  0.77438200  0.39430300  1
  C  567  1  0.37021000  0.80557100  0.37790200  1
  C  568  1  0.35576900  0.81844700  0.39016600  1
  C  569  1  0.34719000  0.79922900  0.40038300  1
  C  570  1  0.38357200  0.81802200  0.36504100  1
  C  571  1  0.37814500  0.84603100  0.36391300  1
  C  572  1  0.40516800  0.86408200  0.36955100  1
  C  573  1  0.39798200  0.89168400  0.36937600  1
  C  574  1  0.36367600  0.90171800  0.36355800  1
  C  575  1  0.33686300  0.88357400  0.35790700  1
  C  576  1  0.34400100  0.85600200  0.35802700  1
  C  577  1  0.34027600  0.74915200  0.41606100  1
  C  578  1  0.36969300  0.75048100  0.42644400  1
  C  579  1  0.36125300  0.75079000  0.44135500  1
  C  580  1  0.32336400  0.74958300  0.44625100  1
  C  581  1  0.29386700  0.74824600  0.43585600  1
  C  582  1  0.30224500  0.74806200  0.42088900  1
  C  583  1  0.37606800  0.65112900  0.36412100  1
  C  584  1  0.34030100  0.64085600  0.36003800  1
  C  585  1  0.33355800  0.61322200  0.36026100  1
  C  586  1  0.36234000  0.59530800  0.36448200  1
  C  587  1  0.39819700  0.60565500  0.36853900  1
  C  588  1  0.40499500  0.63331500  0.36838300  1
  C  589  1  0.45741200  0.74800900  0.31932700  1
  C  590  1  0.44043800  0.74505900  0.30552600  1
  C  591  1  0.49719400  0.75111000  0.32017100  1
  C  592  1  0.51949900  0.75116100  0.30749400  1
  C  593  1  0.50274900  0.74818800  0.29366800  1
  C  594  1  0.46284800  0.74510500  0.29285400  1
  C  625  1  0.87457400  0.74959200  0.01444400  1
  C  626  1  0.90546300  0.75690800  0.00533300  1
  C  627  1  0.89934700  0.76065700  0.99025600  1
  C  628  1  0.86312700  0.75716200  0.98401800  1
  C  629  1  0.83231000  0.74949000  0.99295200  1
  C  631  1  0.83854100  0.74557700  0.00796200  1
  C  639  1  0.87901000  0.74658000  0.02942500  1
  C  641  1  0.85721300  0.76328000  0.96959400  1
  C  643  1  0.79507400  0.24940800  0.98424600  1
  C  644  1  0.76426200  0.25655000  0.99342400  1
  C  645  1  0.77056300  0.26033800  0.00848900  1
  C  646  1  0.80691500  0.25710600  0.01464900  1
  C  647  1  0.83765300  0.24959300  0.00564800  1
  C  649  1  0.83122700  0.24560700  0.99065700  1
  C  657  1  0.79046900  0.24637700  0.96926800  1
  C  659  1  0.81305100  0.26329200  0.02905400  1
  C  661  1  0.37481700  0.24905900  0.51446700  1
  C  662  1  0.40566400  0.25638700  0.50533800  1
  C  663  1  0.39950200  0.26007600  0.49025600  1
  C  664  1  0.36327300  0.25651100  0.48403500  1
  C  665  1  0.33250800  0.24881300  0.49298700  1
  C  667  1  0.33878600  0.24496200  0.50799900  1
  C  675  1  0.37927400  0.24611800  0.52945600  1
  C  677  1  0.35726400  0.26258100  0.46961000  1
  C  679  1  0.29510400  0.74893700  0.48426000  1
  C  680  1  0.26424000  0.75611800  0.49340100  1
  C  681  1  0.27045600  0.75994600  0.50847000  1
  C  682  1  0.30675900  0.75667800  0.51466400  1
  C  683  1  0.33754400  0.74911100  0.50570100  1
  C  685  1  0.33121100  0.74511400  0.49070500  1
  C  693  1  0.29060800  0.74589200  0.46928000  1
  C  695  1  0.31280500  0.76285300  0.52907600  1
  C  697  1  0.81669500  0.97363000  0.86658100  1
  C  698  1  0.80512400  0.99421400  0.87617900  1
  C  699  1  0.82397700  0.01913500  0.87576800  1
  C  700  1  0.85408500  0.02410300  0.86599600  1
  C  701  1  0.86577500  0.00358100  0.85642100  1
  C  703  1  0.84681600  0.97870800  0.85679500  1
  C  711  1  0.79871700  0.94895900  0.86659400  1
  C  713  1  0.87203700  0.04865900  0.86608300  1
  C  715  1  0.81576000  0.52374000  0.13224300  1
  C  716  1  0.80406600  0.50330000  0.12256300  1
  C  717  1  0.82293300  0.47841200  0.12281100  1
  C  718  1  0.85318900  0.47335500  0.13249100  1
  C  719  1  0.86503300  0.49374400  0.14213500  1
  C  721  1  0.84604900  0.51858000  0.14192900  1
  C  729  1  0.79772400  0.54834600  0.13240900  1
  C  731  1  0.87109100  0.44882700  0.13225500  1
  C  733  1  0.85451600  0.02363900  0.13350000  1
  C  734  1  0.86622400  0.00300700  0.12395500  1
  C  735  1  0.84683100  0.97828400  0.12414300  1
  C  736  1  0.81600600  0.97358400  0.13362000  1
  C  737  1  0.80412000  0.99415900  0.14311900  1
  C  739  1  0.82365600  0.01882000  0.14298600  1
  C  747  1  0.87292600  0.04815300  0.13365800  1
  C  749  1  0.79761500  0.94921100  0.13331500  1
  C  751  1  0.85326000  0.47398000  0.86528900  1
  C  752  1  0.86487900  0.49476300  0.87476800  1
  C  753  1  0.84549500  0.51944700  0.87445200  1
  C  754  1  0.81478200  0.52397700  0.86490400  1
  C  755  1  0.80300100  0.50325800  0.85546500  1
  C  757  1  0.82251500  0.47862900  0.85573100  1
  C  765  1  0.87167000  0.44949400  0.86525600  1
  C  767  1  0.79639100  0.54832500  0.86508400  1
  C  769  1  0.31694700  0.47316800  0.36646200  1
  C  770  1  0.30542500  0.49376900  0.37605800  1
  C  771  1  0.32437400  0.51865400  0.37566100  1
  C  772  1  0.35452600  0.52358200  0.36590100  1
  C  773  1  0.36616400  0.50304000  0.35632800  1
  C  775  1  0.34711600  0.47819900  0.35669100  1
  C  783  1  0.29887500  0.44853300  0.36646400  1
  C  785  1  0.37255300  0.54811800  0.36599600  1
  C  787  1  0.31598200  0.02338400  0.63239900  1
  C  788  1  0.30433900  0.00293000  0.62272100  1
  C  789  1  0.32330500  0.97807800  0.62295300  1
  C  790  1  0.35360400  0.97306100  0.63262000  1
  C  791  1  0.36539500  0.99346900  0.64226400  1
  C  793  1  0.34631900  0.01827400  0.64207100  1
  C  801  1  0.29785600  0.04795800  0.63257500  1
  C  803  1  0.37159400  0.94855500  0.63237100  1
  C  805  1  0.35514200  0.52323000  0.63330500  1
  C  806  1  0.36680500  0.50251800  0.62380200  1
  C  807  1  0.34734300  0.47782000  0.62402400  1
  C  808  1  0.31647900  0.47320800  0.63349300  1
  C  809  1  0.30464000  0.49385800  0.64295500  1
  C  811  1  0.32424700  0.51849000  0.64279000  1
  C  819  1  0.37363100  0.54773200  0.63342900  1
  C  821  1  0.29795800  0.44887300  0.63319900  1
  C  823  1  0.35380600  0.97356500  0.36544700  1
  C  824  1  0.36538400  0.99442500  0.37488500  1
  C  825  1  0.34593300  0.01908700  0.37453600  1
  C  826  1  0.31517900  0.02353300  0.36499700  1
  C  827  1  0.30344500  0.00274200  0.35559400  1
  C  829  1  0.32302900  0.97813900  0.35589100  1
  C  837  1  0.37228900  0.94909000  0.36544800  1
  C  839  1  0.29665600  0.04784200  0.36516900  1
  C  841  1  0.55189200  0.75065000  0.73985400  1
  C  842  1  0.55063300  0.76543000  0.75299800  1
  C  843  1  0.58185200  0.76453100  0.76267800  1
  C  844  1  0.61454300  0.74911000  0.75972900  1
  C  845  1  0.61575700  0.73425300  0.74661600  1
  C  847  1  0.58454400  0.73515200  0.73693900  1
  C  855  1  0.52143300  0.75066200  0.73018400  1
  C  857  1  0.64526300  0.74947800  0.76926000  1
  C  859  1  0.55187800  0.74776700  0.25881800  1
  C  860  1  0.55071800  0.73295700  0.24568200  1
  C  861  1  0.58203900  0.73385700  0.23605000  1
  C  862  1  0.61474400  0.74929800  0.23904300  1
  C  863  1  0.61585900  0.76417700  0.25215100  1
  C  865  1  0.58453800  0.76328300  0.26177900  1
  C  873  1  0.52132600  0.74774900  0.26844000  1
  C  875  1  0.64555500  0.74894300  0.22955400  1
  C  877  1  0.11734300  0.25108600  0.25893900  1
  C  878  1  0.11864500  0.26587900  0.24579800  1
  C  879  1  0.08738600  0.26503300  0.23613400  1
  C  880  1  0.05460100  0.24966800  0.23910200  1
  C  881  1  0.05330700  0.23483200  0.25222000  1
  C  883  1  0.08457500  0.23565900  0.26187500  1
  C  891  1  0.14788100  0.25100800  0.26857800  1
  C  893  1  0.02388700  0.25004500  0.22957200  1
  C  895  1  0.11732600  0.24750800  0.73977500  1
  C  896  1  0.11850900  0.23282300  0.75295000  1
  C  897  1  0.08714800  0.23367500  0.76256400  1
  C  898  1  0.05438500  0.24895000  0.75951200  1
  C  899  1  0.05321900  0.26368000  0.74635700  1
  C  901  1  0.08458300  0.26283700  0.73674800  1
  C  909  1  0.14794900  0.24756500  0.73018300  1
  C  911  1  0.02358600  0.24860500  0.76900400  1
  C  913  1  0.48567000  0.62062300  0.83129500  1
  C  914  1  0.50136300  0.60110700  0.83999800  1
  C  915  1  0.51518900  0.61324500  0.85259200  1
  C  917  1  0.49035800  0.64518800  0.83822600  1
  C  918  1  0.47870600  0.67020700  0.83248700  1
  C  919  1  0.48841200  0.69523100  0.83866400  1
  C  921  1  0.51365900  0.72605300  0.85337900  1
  C  922  1  0.49602300  0.73928800  0.84187500  1
  C  923  1  0.47980500  0.72029400  0.83295400  1
  C  924  1  0.53309200  0.73814200  0.86516000  1
  C  925  1  0.54778000  0.72439100  0.87744300  1
  C  927  1  0.56226900  0.69245300  0.89374000  1
  C  928  1  0.57423200  0.71695100  0.89932700  1
  C  929  1  0.56576700  0.73646500  0.88927500  1
  C  930  1  0.56660000  0.66750800  0.90088700  1
  C  931  1  0.55942900  0.64250000  0.89422100  1
  C  933  1  0.54425100  0.61173600  0.87760600  1
  C  934  1  0.55619300  0.59846400  0.89013100  1
  C  935  1  0.56463900  0.61743200  0.90049700  1
  C  936  1  0.53174700  0.59958400  0.86453600  1
  C  937  1  0.53692600  0.57156700  0.86334500  1
  C  938  1  0.50846500  0.55363700  0.86796500  1
  C  939  1  0.51526700  0.52599100  0.86787600  1
  C  940  1  0.55061800  0.51579000  0.86316100  1
  C  941  1  0.57882900  0.53381500  0.85847300  1
  C  942  1  0.57211400  0.56143800  0.85853900  1
  C  943  1  0.57767000  0.66767800  0.91579200  1
  C  944  1  0.55096800  0.67513000  0.92648600  1
  C  945  1  0.56086500  0.67499400  0.94126800  1
  C  946  1  0.59775800  0.66754600  0.94571800  1
  C  947  1  0.62425500  0.65966700  0.93507100  1
  C  948  1  0.61451700  0.66007500  0.92023100  1
  C  949  1  0.53882300  0.76618700  0.86453400  1
  C  950  1  0.57331900  0.77646400  0.85908700  1
  C  951  1  0.58029500  0.80407100  0.85925300  1
  C  952  1  0.55293700  0.82194900  0.86472600  1
  C  953  1  0.51836600  0.81159400  0.87016700  1
  C  954  1  0.51138900  0.78395600  0.87009600  1
  C  955  1  0.45587200  0.67019800  0.81970000  1
  C  956  1  0.47214100  0.67347300  0.80579900  1
  C  957  1  0.41618200  0.66681400  0.82081300  1
  C  958  1  0.39327500  0.66674700  0.80829400  1
  C  959  1  0.40933300  0.66989400  0.79436000  1
  C  960  1  0.44913700  0.67334800  0.79328700  1
  C  991  1  0.48417900  0.71804300  0.16688200  1
  C  992  1  0.49988600  0.73745500  0.15809300  1
  C  993  1  0.51479000  0.72505400  0.14576700  1
  C  995  1  0.48999400  0.69327800  0.16030000  1
  C  996  1  0.47914200  0.66828500  0.16633200  1
  C  997  1  0.48948900  0.64317000  0.16043400  1
  C  999  1  0.51459600  0.61209400  0.14585300  1
  C  1000  1  0.49845700  0.59911500  0.15776700  1
  C  1001  1  0.48230400  0.61823700  0.16660700  1
  C  1002  1  0.53274000  0.59972300  0.13386300  1
  C  1003  1  0.54579500  0.61316500  0.12121100  1
  C  1005  1  0.55970600  0.64494300  0.10472800  1
  C  1006  1  0.56742300  0.62012800  0.09851600  1
  C  1007  1  0.55954300  0.60069600  0.10869700  1
  C  1008  1  0.56518800  0.66991500  0.09772800  1
  C  1009  1  0.55966400  0.69502700  0.10447600  1
  C  1011  1  0.54524400  0.72611300  0.12098600  1
  C  1012  1  0.55927400  0.73907200  0.10866900  1
  C  1013  1  0.56750700  0.71991600  0.09838300  1
  C  1014  1  0.53221700  0.73848600  0.13391200  1
  C  1015  1  0.53758400  0.76650500  0.13502800  1
  C  1016  1  0.50977000  0.78441900  0.12990000  1
  C  1017  1  0.51676500  0.81205300  0.12998800  1
  C  1018  1  0.55164300  0.82226000  0.13522200  1
  C  1019  1  0.57924100  0.80424700  0.14037700  1
  C  1020  1  0.57232200  0.77663300  0.14032700  1
  C  1021  1  0.57443800  0.66987000  0.08267300  1
  C  1022  1  0.54488900  0.67072400  0.07233200  1
  C  1023  1  0.55316800  0.67109900  0.05740800  1
  C  1024  1  0.59102800  0.67040000  0.05245700  1
  C  1025  1  0.62066000  0.66957700  0.06281300  1
  C  1026  1  0.61244100  0.66933300  0.07779000  1
  C  1027  1  0.53830600  0.57167400  0.13451800  1
  C  1028  1  0.57369000  0.56146400  0.13905400  1
  C  1029  1  0.58048000  0.53384800  0.13887000  1
  C  1030  1  0.55212500  0.51589300  0.13422800  1
  C  1031  1  0.51665100  0.52618100  0.12971000  1
  C  1032  1  0.50980800  0.55382400  0.12983600  1
  C  1033  1  0.45633200  0.66841200  0.17912600  1
  C  1034  1  0.47269300  0.66600600  0.19306300  1
  C  1035  1  0.41654800  0.67107100  0.17797800  1
  C  1036  1  0.39363800  0.67125500  0.19049500  1
  C  1037  1  0.40977300  0.66890700  0.20446100  1
  C  1038  1  0.44967900  0.66621000  0.20557200  1
  C  1069  1  0.67419000  0.12041400  0.16713400  1
  C  1070  1  0.65859800  0.10091200  0.15837600  1
  C  1071  1  0.64440100  0.11313500  0.14587400  1
  C  1073  1  0.66895800  0.14506400  0.16035700  1
  C  1074  1  0.68017100  0.17009500  0.16623400  1
  C  1075  1  0.67006900  0.19513500  0.16018600  1
  C  1077  1  0.64449800  0.22599500  0.14559800  1
  C  1078  1  0.66171600  0.23917500  0.15722400  1
  C  1079  1  0.67808000  0.22017000  0.16608000  1
  C  1080  1  0.62518600  0.23814000  0.13381100  1
  C  1081  1  0.61083800  0.22447900  0.12143000  1
  C  1083  1  0.59651500  0.19262100  0.10503500  1
  C  1084  1  0.58525700  0.21720600  0.09937200  1
  C  1085  1  0.59361900  0.23666600  0.10947500  1
  C  1086  1  0.59196500  0.16769700  0.09787200  1
  C  1087  1  0.59914400  0.14264100  0.10447100  1
  C  1089  1  0.61485900  0.11175400  0.12093500  1
  C  1090  1  0.60246600  0.09857300  0.10843700  1
  C  1091  1  0.59354000  0.11761400  0.09818000  1
  C  1092  1  0.62774100  0.09952300  0.13392300  1
  C  1093  1  0.62248100  0.07149800  0.13509100  1
  C  1094  1  0.65040800  0.05355300  0.13008500  1
  C  1095  1  0.64345400  0.02591200  0.13024300  1
  C  1096  1  0.60849400  0.01573900  0.13541600  1
  C  1097  1  0.58081700  0.03377800  0.14047800  1
  C  1098  1  0.58769300  0.06139300  0.14035400  1
  C  1099  1  0.58093000  0.16793100  0.08296400  1
  C  1100  1  0.60785300  0.17503200  0.07227100  1
  C  1101  1  0.59798500  0.17494700  0.05748700  1
  C  1102  1  0.56091800  0.16787600  0.05302600  1
  C  1103  1  0.53420600  0.16032500  0.06367700  1
  C  1104  1  0.54390800  0.16070500  0.07852200  1
  C  1105  1  0.61955400  0.26618700  0.13445100  1
  C  1106  1  0.58468400  0.27646900  0.13949900  1
  C  1107  1  0.57781000  0.30407600  0.13924200  1
  C  1108  1  0.60562000  0.32195300  0.13405900  1
  C  1109  1  0.64057800  0.31159100  0.12903100  1
  C  1110  1  0.64745700  0.28395800  0.12919300  1
  C  1111  1  0.70289900  0.17010200  0.17905100  1
  C  1112  1  0.68644300  0.17288300  0.19295000  1
  C  1113  1  0.74267200  0.16728100  0.17797200  1
  C  1114  1  0.76547400  0.16729800  0.19051900  1
  C  1115  1  0.74924000  0.17001100  0.20445000  1
  C  1116  1  0.70934500  0.17286200  0.20549100  1
  C  1147  1  0.67581000  0.21849900  0.83207100  1
  C  1148  1  0.66014700  0.23785900  0.84088700  1
  C  1149  1  0.64481000  0.22535700  0.85311300  1
  C  1151  1  0.66939400  0.19366300  0.83850300  1
  C  1152  1  0.67976600  0.16869500  0.83234200  1
  C  1153  1  0.66905300  0.14355400  0.83813900  1
  C  1155  1  0.64367600  0.11239900  0.85263100  1
  C  1156  1  0.65935900  0.09952100  0.84060500  1
  C  1157  1  0.67567300  0.11868500  0.83181700  1
  C  1158  1  0.62560200  0.09994000  0.86461800  1
  C  1159  1  0.61285400  0.11328800  0.87734000  1
  C  1161  1  0.59907000  0.14495200  0.89388400  1
  C  1162  1  0.59184600  0.12007700  0.90012900  1
  C  1163  1  0.59959400  0.10071200  0.88990500  1
  C  1164  1  0.59350400  0.16987400  0.90091800  1
  C  1165  1  0.59904200  0.19503000  0.89421200  1
  C  1167  1  0.61386100  0.22623800  0.87780900  1
  C  1168  1  0.59945600  0.23909700  0.89008500  1
  C  1169  1  0.59096200  0.21986700  0.90030700  1
  C  1170  1  0.62724200  0.23870600  0.86495500  1
  C  1171  1  0.62181000  0.26670700  0.86383900  1
  C  1172  1  0.64904000  0.28473700  0.86934600  1
  C  1173  1  0.64192100  0.31234400  0.86916700  1
  C  1174  1  0.60747700  0.32239400  0.86347900  1
  C  1175  1  0.58044500  0.30426600  0.85796700  1
  C  1176  1  0.58751900  0.27668700  0.85808800  1
  C  1177  1  0.58426200  0.16975000  0.91597500  1
  C  1178  1  0.61380900  0.17080600  0.92631400  1
  C  1179  1  0.60554000  0.17111900  0.94123800  1
  C  1180  1  0.56769200  0.17019000  0.94619500  1
  C  1181  1  0.53806200  0.16911800  0.93584500  1
  C  1182  1  0.54627100  0.16893000  0.92086500  1
  C  1183  1  0.62007600  0.07187500  0.86395600  1
  C  1184  1  0.58440000  0.06155200  0.85979900  1
  C  1185  1  0.57769100  0.03391600  0.86006300  1
  C  1186  1  0.60641900  0.01605200  0.86440200  1
  C  1187  1  0.64219200  0.02645300  0.86852800  1
  C  1188  1  0.64895500  0.05411400  0.86832700  1
  C  1189  1  0.70246400  0.16885600  0.81951600  1
  C  1190  1  0.68592500  0.16683300  0.80559200  1
  C  1191  1  0.74232000  0.17106400  0.82062200  1
  C  1192  1  0.76512200  0.17116200  0.80807600  1
  C  1193  1  0.74881700  0.16913500  0.79412200  1
  C  1194  1  0.70883300  0.16693900  0.79305200  1
  C  1225  1  0.98572590  0.12019300  0.33121800  1
  C  1226  1  0.00108000  0.10065100  0.33999400  1
  C  1227  1  0.01473200  0.11277900  0.35261700  1
  C  1229  1  0.99037892  0.14476400  0.33814700  1
  C  1230  1  0.97907290  0.16980500  0.33232600  1
  C  1231  1  0.98869390  0.19481500  0.33854600  1
  C  1233  1  0.01365100  0.22561600  0.35335100  1
  C  1234  1  0.99623192  0.23887300  0.34180800  1
  C  1235  1  0.98019390  0.21989800  0.33283100  1
  C  1236  1  0.03287200  0.23770600  0.36518400  1
  C  1237  1  0.04737500  0.22395400  0.37749600  1
  C  1239  1  0.06177300  0.19199700  0.39379600  1
  C  1240  1  0.07355300  0.21650700  0.39942700  1
  C  1241  1  0.06513300  0.23603100  0.38937800  1
  C  1242  1  0.06616000  0.16703600  0.40092500  1
  C  1243  1  0.05895600  0.14203200  0.39425700  1
  C  1245  1  0.04365000  0.11126200  0.37765600  1
  C  1246  1  0.05571600  0.09799600  0.39016700  1
  C  1247  1  0.06425600  0.11696300  0.40052100  1
  C  1248  1  0.03113300  0.09910200  0.36458800  1
  C  1249  1  0.03641300  0.07108600  0.36338600  1
  C  1250  1  0.00825800  0.05307400  0.36818200  1
  C  1251  1  0.01526300  0.02544700  0.36810300  1
  C  1252  1  0.05051300  0.01534000  0.36322100  1
  C  1253  1  0.07841600  0.03344600  0.35835800  1
  C  1254  1  0.07149900  0.06104700  0.35841300  1
  C  1255  1  0.07732600  0.16717900  0.41582100  1
  C  1256  1  0.05063500  0.17446700  0.42655200  1
  C  1257  1  0.06063000  0.17428000  0.44132500  1
  C  1258  1  0.09760300  0.16693700  0.44572900  1
  C  1259  1  0.12410700  0.15924500  0.43504400  1
  C  1260  1  0.11426800  0.15970600  0.42021300  1
  C  1261  1  0.03870000  0.26574400  0.36455300  1
  C  1262  1  0.07332300  0.27594600  0.35918200  1
  C  1263  1  0.08037300  0.30354400  0.35931900  1
  C  1264  1  0.05296200  0.32149400  0.36468300  1
  C  1265  1  0.01825900  0.31121600  0.37004300  1
  C  1266  1  0.01120600  0.28358400  0.37000300  1
  C  1267  1  0.95677990  0.16985200  0.31939000  1
  C  1268  1  0.97343590  0.17424400  0.30564500  1
  C  1269  1  0.91720490  0.16560300  0.32020100  1
  C  1270  1  0.89479600  0.16583800  0.30755200  1
  C  1271  1  0.91124190  0.17019100  0.29378000  1
  C  1272  1  0.95093190  0.17444100  0.29299900  1
  C  1303  1  0.98432690  0.21771500  0.66696200  1
  C  1304  1  0.99973791  0.23713000  0.65809900  1
  C  1305  1  0.01444300  0.22471900  0.64574200  1
  C  1307  1  0.99005492  0.19293800  0.66038100  1
  C  1308  1  0.97947590  0.16794500  0.66649100  1
  C  1309  1  0.98973190  0.14282700  0.66056500  1
  C  1311  1  0.01457300  0.11174400  0.64591800  1
  C  1312  1  0.99861192  0.09876700  0.65786600  1
  C  1313  1  0.98261690  0.11788900  0.66674500  1
  C  1314  1  0.03253500  0.09935200  0.63389500  1
  C  1315  1  0.04544600  0.11278300  0.62121600  1
  C  1317  1  0.05930200  0.14454200  0.60471600  1
  C  1318  1  0.06687500  0.11971500  0.59849200  1
  C  1319  1  0.05901300  0.10029400  0.60868000  1
  C  1320  1  0.06482600  0.16950900  0.59771200  1
  C  1321  1  0.05924800  0.19462900  0.60444700  1
  C  1323  1  0.04472600  0.22575000  0.62092800  1
  C  1324  1  0.05883700  0.23868100  0.60861600  1
  C  1325  1  0.06714400  0.21950800  0.59835000  1
  C  1326  1  0.03170900  0.23815000  0.63385000  1
  C  1327  1  0.03718500  0.26616700  0.63496700  1
  C  1328  1  0.00967100  0.28415500  0.62967800  1
  C  1329  1  0.01686000  0.31176900  0.62975400  1
  C  1330  1  0.05163700  0.32189000  0.63513800  1
  C  1331  1  0.07892900  0.30380400  0.64045300  1
  C  1332  1  0.07181400  0.27621400  0.64041500  1
  C  1333  1  0.07422000  0.16945000  0.58266800  1
  C  1334  1  0.04478800  0.17049100  0.57228300  1
  C  1335  1  0.05322000  0.17082400  0.55737100  1
  C  1336  1  0.09111700  0.16991000  0.55247300  1
  C  1337  1  0.12063400  0.16888800  0.56287000  1
  C  1338  1  0.11226200  0.16868100  0.57783700  1
  C  1339  1  0.03817800  0.07130700  0.63456000  1
  C  1340  1  0.07366900  0.06116100  0.63901600  1
  C  1341  1  0.08052100  0.03355200  0.63886000  1
  C  1342  1  0.05212500  0.01553500  0.63432800  1
  C  1343  1  0.01653700  0.02575700  0.62989400  1
  C  1344  1  0.00963100  0.05339600  0.62999100  1
  C  1345  1  0.95713390  0.16807000  0.67941400  1
  C  1346  1  0.97385590  0.16471000  0.69323100  1
  C  1347  1  0.91743490  0.17155300  0.67851500  1
  C  1348  1  0.89496900  0.17157000  0.69114900  1
  C  1349  1  0.91146890  0.16821000  0.70499000  1
  C  1350  1  0.95128390  0.16473100  0.70586000  1
  C  1381  1  0.17460600  0.62016000  0.66715000  1
  C  1382  1  0.15937700  0.60061000  0.65833200  1
  C  1383  1  0.14535600  0.61279600  0.64579200  1
  C  1385  1  0.16942300  0.64479600  0.66035200  1
  C  1386  1  0.18030900  0.66985900  0.66628800  1
  C  1387  1  0.17032200  0.69487900  0.66018400  1
  C  1389  1  0.14506700  0.72570300  0.64548800  1
  C  1390  1  0.16208300  0.73891800  0.65714400  1
  C  1391  1  0.17825200  0.71994000  0.66606700  1
  C  1392  1  0.12596200  0.73783000  0.63364700  1
  C  1393  1  0.11175700  0.72413300  0.62125500  1
  C  1395  1  0.09746900  0.69221400  0.60489200  1
  C  1396  1  0.08638200  0.71679500  0.59917100  1
  C  1397  1  0.09474000  0.73629400  0.60925000  1
  C  1398  1  0.09285600  0.66725700  0.59776800  1
  C  1399  1  0.10008500  0.64221600  0.60437600  1
  C  1401  1  0.11595600  0.61134700  0.62083200  1
  C  1402  1  0.10344700  0.59815200  0.60835500  1
  C  1403  1  0.09440800  0.61718000  0.59810500  1
  C  1404  1  0.12887600  0.59913300  0.63381900  1
  C  1405  1  0.12362400  0.57110200  0.63500000  1
  C  1406  1  0.15130800  0.55313200  0.62982500  1
  C  1407  1  0.14427200  0.52549500  0.62997300  1
  C  1408  1  0.10947000  0.51534400  0.63531300  1
  C  1409  1  0.08204400  0.53340500  0.64055100  1
  C  1410  1  0.08900100  0.56101100  0.64043400  1
  C  1411  1  0.08167000  0.66743200  0.58287800  1
  C  1412  1  0.10854000  0.67431700  0.57212600  1
  C  1413  1  0.09848500  0.67419500  0.55736000  1
  C  1414  1  0.06128600  0.66729700  0.55298400  1
  C  1415  1  0.03462000  0.65995300  0.56369400  1
  C  1416  1  0.04451300  0.66037300  0.57852000  1
  C  1417  1  0.12023100  0.76587300  0.63427900  1
  C  1418  1  0.08522500  0.77608300  0.63923200  1
  C  1419  1  0.07830500  0.80368500  0.63902300  1
  C  1420  1  0.10620700  0.82163500  0.63398900  1
  C  1421  1  0.14129900  0.81134900  0.62905300  1
  C  1422  1  0.14822400  0.78371700  0.62916300  1
  C  1423  1  0.20247700  0.66991900  0.67925300  1
  C  1424  1  0.18556300  0.67371600  0.69300200  1
  C  1425  1  0.24214500  0.66619100  0.67847600  1
  C  1426  1  0.26439600  0.66634100  0.69116800  1
  C  1427  1  0.24769400  0.67010800  0.70494300  1
  C  1428  1  0.20791000  0.67384200  0.70568800  1
  C  1459  1  0.17605600  0.71793200  0.33202000  1
  C  1460  1  0.16071000  0.73733000  0.34089200  1
  C  1461  1  0.14560600  0.72486700  0.35317100  1
  C  1463  1  0.16975800  0.69311200  0.33848800  1
  C  1464  1  0.17987500  0.66812200  0.33228500  1
  C  1465  1  0.16930100  0.64299700  0.33814100  1
  C  1467  1  0.14423000  0.61187600  0.35273600  1
  C  1468  1  0.15976800  0.59896000  0.34069500  1
  C  1469  1  0.17589400  0.61810000  0.33184400  1
  C  1470  1  0.12633100  0.59943700  0.36476800  1
  C  1471  1  0.11368600  0.61282700  0.37749000  1
  C  1473  1  0.09992600  0.64454100  0.39400900  1
  C  1474  1  0.09280800  0.61968000  0.40028900  1
  C  1475  1  0.10055600  0.60028300  0.39008500  1
  C  1476  1  0.09433700  0.66948500  0.40101800  1
  C  1477  1  0.09994600  0.69462700  0.39430300  1
  C  1479  1  0.11487500  0.72581600  0.37790200  1
  C  1480  1  0.10043400  0.73869200  0.39016600  1
  C  1481  1  0.09185500  0.71947400  0.40038300  1
  C  1482  1  0.12823700  0.73826700  0.36504100  1
  C  1483  1  0.12281000  0.76627600  0.36391300  1
  C  1484  1  0.14983300  0.78432700  0.36955100  1
  C  1485  1  0.14264700  0.81192900  0.36937600  1
  C  1486  1  0.10834100  0.82196300  0.36355800  1
  C  1487  1  0.08152800  0.80381900  0.35790700  1
  C  1488  1  0.08866600  0.77624700  0.35802700  1
  C  1489  1  0.08494100  0.66939700  0.41606100  1
  C  1490  1  0.11435800  0.67072600  0.42644400  1
  C  1491  1  0.10591800  0.67103500  0.44135500  1
  C  1492  1  0.06802900  0.66982800  0.44625100  1
  C  1493  1  0.03853200  0.66849100  0.43585600  1
  C  1494  1  0.04691000  0.66830700  0.42088900  1
  C  1495  1  0.12073300  0.57137400  0.36412100  1
  C  1496  1  0.08496600  0.56110100  0.36003800  1
  C  1497  1  0.07822300  0.53346700  0.36026100  1
  C  1498  1  0.10700500  0.51555300  0.36448200  1
  C  1499  1  0.14286200  0.52590000  0.36853900  1
  C  1500  1  0.14966000  0.55356000  0.36838300  1
  C  1501  1  0.20207700  0.66825400  0.31932700  1
  C  1502  1  0.18510300  0.66530400  0.30552600  1
  C  1503  1  0.24185900  0.67135500  0.32017100  1
  C  1504  1  0.26416400  0.67140600  0.30749400  1
  C  1505  1  0.24741400  0.66843300  0.29366800  1
  C  1506  1  0.20751300  0.66535000  0.29285400  1
  C  1537  1  0.61923900  0.66983700  0.01444400  1
  C  1538  1  0.65012800  0.67715300  0.00533300  1
  C  1539  1  0.64401200  0.68090200  0.99025600  1
  C  1540  1  0.60779200  0.67740700  0.98401800  1
  C  1541  1  0.57697500  0.66973500  0.99295200  1
  C  1543  1  0.58320600  0.66582200  0.00796200  1
  C  1551  1  0.62367500  0.66682500  0.02942500  1
  C  1553  1  0.60187800  0.68352500  0.96959400  1
  C  1555  1  0.53973900  0.16965300  0.98424600  1
  C  1556  1  0.50892700  0.17679500  0.99342400  1
  C  1557  1  0.51522800  0.18058300  0.00848900  1
  C  1558  1  0.55158000  0.17735100  0.01464900  1
  C  1559  1  0.58231800  0.16983800  0.00564800  1
  C  1561  1  0.57589200  0.16585200  0.99065700  1
  C  1569  1  0.53513400  0.16662200  0.96926800  1
  C  1571  1  0.55771600  0.18353700  0.02905400  1
  C  1573  1  0.11948200  0.16930400  0.51446700  1
  C  1574  1  0.15032900  0.17663200  0.50533800  1
  C  1575  1  0.14416700  0.18032100  0.49025600  1
  C  1576  1  0.10793800  0.17675600  0.48403500  1
  C  1577  1  0.07717300  0.16905800  0.49298700  1
  C  1579  1  0.08345100  0.16520700  0.50799900  1
  C  1587  1  0.12393900  0.16636300  0.52945600  1
  C  1589  1  0.10192900  0.18282600  0.46961000  1
  C  1591  1  0.03976900  0.66918200  0.48426000  1
  C  1592  1  0.00890500  0.67636300  0.49340100  1
  C  1593  1  0.01512100  0.68019100  0.50847000  1
  C  1594  1  0.05142400  0.67692300  0.51466400  1
  C  1595  1  0.08220900  0.66935600  0.50570100  1
  C  1597  1  0.07587600  0.66535900  0.49070500  1
  C  1605  1  0.03527300  0.66613700  0.46928000  1
  C  1607  1  0.05747000  0.68309800  0.52907600  1
  C  1609  1  0.56136000  0.89387500  0.86658100  1
  C  1610  1  0.54978900  0.91445850  0.87617900  1
  C  1611  1  0.56864200  0.93937950  0.87576800  1
  C  1612  1  0.59875000  0.94434750  0.86599600  1
  C  1613  1  0.61044000  0.92382550  0.85642100  1
  C  1615  1  0.59148100  0.89895300  0.85679500  1
  C  1623  1  0.54338200  0.86920400  0.86659400  1
  C  1625  1  0.61670200  0.96890350  0.86608300  1
  C  1627  1  0.56042500  0.44398500  0.13224300  1
  C  1628  1  0.54873100  0.42354500  0.12256300  1
  C  1629  1  0.56759800  0.39865700  0.12281100  1
  C  1630  1  0.59785400  0.39360000  0.13249100  1
  C  1631  1  0.60969800  0.41398900  0.14213500  1
  C  1633  1  0.59071400  0.43882500  0.14192900  1
  C  1641  1  0.54238900  0.46859100  0.13240900  1
  C  1643  1  0.61575600  0.36907200  0.13225500  1
  C  1645  1  0.59918100  0.94388350  0.13350000  1
  C  1646  1  0.61088900  0.92325150  0.12395500  1
  C  1647  1  0.59149600  0.89852900  0.12414300  1
  C  1648  1  0.56067100  0.89382900  0.13362000  1
  C  1649  1  0.54878500  0.91440350  0.14311900  1
  C  1651  1  0.56832100  0.93906450  0.14298600  1
  C  1659  1  0.61759100  0.96839750  0.13365800  1
  C  1661  1  0.54228000  0.86945600  0.13331500  1
  C  1663  1  0.59792500  0.39422500  0.86528900  1
  C  1664  1  0.60954400  0.41500800  0.87476800  1
  C  1665  1  0.59016000  0.43969200  0.87445200  1
  C  1666  1  0.55944700  0.44422200  0.86490400  1
  C  1667  1  0.54766600  0.42350300  0.85546500  1
  C  1669  1  0.56718000  0.39887400  0.85573100  1
  C  1677  1  0.61633500  0.36973900  0.86525600  1
  C  1679  1  0.54105600  0.46857000  0.86508400  1
  C  1681  1  0.06161200  0.39341300  0.36646200  1
  C  1682  1  0.05009000  0.41401400  0.37605800  1
  C  1683  1  0.06903900  0.43889900  0.37566100  1
  C  1684  1  0.09919100  0.44382700  0.36590100  1
  C  1685  1  0.11082900  0.42328500  0.35632800  1
  C  1687  1  0.09178100  0.39844400  0.35669100  1
  C  1695  1  0.04354000  0.36877800  0.36646400  1
  C  1697  1  0.11721800  0.46836300  0.36599600  1
  C  1699  1  0.06064700  0.94362850  0.63239900  1
  C  1700  1  0.04900400  0.92317450  0.62272100  1
  C  1701  1  0.06797000  0.89832300  0.62295300  1
  C  1702  1  0.09826900  0.89330600  0.63262000  1
  C  1703  1  0.11006000  0.91371350  0.64226400  1
  C  1705  1  0.09098400  0.93851850  0.64207100  1
  C  1713  1  0.04252100  0.96820250  0.63257500  1
  C  1715  1  0.11625900  0.86880000  0.63237100  1
  C  1717  1  0.09980700  0.44347500  0.63330500  1
  C  1718  1  0.11147000  0.42276300  0.62380200  1
  C  1719  1  0.09200800  0.39806500  0.62402400  1
  C  1720  1  0.06114400  0.39345300  0.63349300  1
  C  1721  1  0.04930500  0.41410300  0.64295500  1
  C  1723  1  0.06891200  0.43873500  0.64279000  1
  C  1731  1  0.11829600  0.46797700  0.63342900  1
  C  1733  1  0.04262300  0.36911800  0.63319900  1
  C  1735  1  0.09847100  0.89381000  0.36544700  1
  C  1736  1  0.11004900  0.91466950  0.37488500  1
  C  1737  1  0.09059800  0.93933150  0.37453600  1
  C  1738  1  0.05984400  0.94377750  0.36499700  1
  C  1739  1  0.04811000  0.92298650  0.35559400  1
  C  1741  1  0.06769400  0.89838400  0.35589100  1
  C  1749  1  0.11695400  0.86933500  0.36544800  1
  C  1751  1  0.04132100  0.96808650  0.36516900  1
  C  1753  1  0.29655700  0.67089500  0.73985400  1
  C  1754  1  0.29529800  0.68567500  0.75299800  1
  C  1755  1  0.32651700  0.68477600  0.76267800  1
  C  1756  1  0.35920800  0.66935500  0.75972900  1
  C  1757  1  0.36042200  0.65449800  0.74661600  1
  C  1759  1  0.32920900  0.65539700  0.73693900  1
  C  1767  1  0.26609800  0.67090700  0.73018400  1
  C  1769  1  0.38992800  0.66972300  0.76926000  1
  C  1771  1  0.29654300  0.66801200  0.25881800  1
  C  1772  1  0.29538300  0.65320200  0.24568200  1
  C  1773  1  0.32670400  0.65410200  0.23605000  1
  C  1774  1  0.35940900  0.66954300  0.23904300  1
  C  1775  1  0.36052400  0.68442200  0.25215100  1
  C  1777  1  0.32920300  0.68352800  0.26177900  1
  C  1785  1  0.26599100  0.66799400  0.26844000  1
  C  1787  1  0.39022000  0.66918800  0.22955400  1
  C  1789  1  0.86200800  0.17133100  0.25893900  1
  C  1790  1  0.86331000  0.18612400  0.24579800  1
  C  1791  1  0.83205100  0.18527800  0.23613400  1
  C  1792  1  0.79926600  0.16991300  0.23910200  1
  C  1793  1  0.79797200  0.15507700  0.25222000  1
  C  1795  1  0.82924000  0.15590400  0.26187500  1
  C  1803  1  0.89254600  0.17125300  0.26857800  1
  C  1805  1  0.76855200  0.17029000  0.22957200  1
  C  1807  1  0.86199100  0.16775300  0.73977500  1
  C  1808  1  0.86317400  0.15306800  0.75295000  1
  C  1809  1  0.83181300  0.15392000  0.76256400  1
  C  1810  1  0.79905000  0.16919500  0.75951200  1
  C  1811  1  0.79788400  0.18392500  0.74635700  1
  C  1813  1  0.82924800  0.18308200  0.73674800  1
  C  1821  1  0.89261400  0.16781000  0.73018300  1
  C  1823  1  0.76825100  0.16885000  0.76900400  1
  C  1825  1  0.23033500  0.54086700  0.83129500  1
  C  1826  1  0.24602800  0.52135100  0.83999800  1
  C  1827  1  0.25985400  0.53348900  0.85259200  1
  C  1829  1  0.23502300  0.56543200  0.83822600  1
  C  1830  1  0.22337100  0.59045100  0.83248700  1
  C  1831  1  0.23307700  0.61547500  0.83866400  1
  C  1833  1  0.25832400  0.64629700  0.85337900  1
  C  1834  1  0.24068800  0.65953200  0.84187500  1
  C  1835  1  0.22447000  0.64053800  0.83295400  1
  C  1836  1  0.27775700  0.65838600  0.86516000  1
  C  1837  1  0.29244500  0.64463500  0.87744300  1
  C  1839  1  0.30693400  0.61269700  0.89374000  1
  C  1840  1  0.31889700  0.63719500  0.89932700  1
  C  1841  1  0.31043200  0.65670900  0.88927500  1
  C  1842  1  0.31126500  0.58775200  0.90088700  1
  C  1843  1  0.30409400  0.56274400  0.89422100  1
  C  1845  1  0.28891600  0.53198000  0.87760600  1
  C  1846  1  0.30085800  0.51870800  0.89013100  1
  C  1847  1  0.30930400  0.53767600  0.90049700  1
  C  1848  1  0.27641200  0.51982800  0.86453600  1
  C  1849  1  0.28159100  0.49181100  0.86334500  1
  C  1850  1  0.25313000  0.47388100  0.86796500  1
  C  1851  1  0.25993200  0.44623500  0.86787600  1
  C  1852  1  0.29528300  0.43603400  0.86316100  1
  C  1853  1  0.32349400  0.45405900  0.85847300  1
  C  1854  1  0.31677900  0.48168200  0.85853900  1
  C  1855  1  0.32233500  0.58792200  0.91579200  1
  C  1856  1  0.29563300  0.59537400  0.92648600  1
  C  1857  1  0.30553000  0.59523800  0.94126800  1
  C  1858  1  0.34242300  0.58779000  0.94571800  1
  C  1859  1  0.36892000  0.57991100  0.93507100  1
  C  1860  1  0.35918200  0.58031900  0.92023100  1
  C  1861  1  0.28348800  0.68643100  0.86453400  1
  C  1862  1  0.31798400  0.69670800  0.85908700  1
  C  1863  1  0.32496000  0.72431500  0.85925300  1
  C  1864  1  0.29760200  0.74219300  0.86472600  1
  C  1865  1  0.26303100  0.73183800  0.87016700  1
  C  1866  1  0.25605400  0.70420000  0.87009600  1
  C  1867  1  0.20053700  0.59044200  0.81970000  1
  C  1868  1  0.21680600  0.59371700  0.80579900  1
  C  1869  1  0.16084700  0.58705800  0.82081300  1
  C  1870  1  0.13794000  0.58699100  0.80829400  1
  C  1871  1  0.15399800  0.59013800  0.79436000  1
  C  1872  1  0.19380200  0.59359200  0.79328700  1
  C  1903  1  0.22884400  0.63828700  0.16688200  1
  C  1904  1  0.24455100  0.65769900  0.15809300  1
  C  1905  1  0.25945500  0.64529800  0.14576700  1
  C  1907  1  0.23465900  0.61352200  0.16030000  1
  C  1908  1  0.22380700  0.58852900  0.16633200  1
  C  1909  1  0.23415400  0.56341400  0.16043400  1
  C  1911  1  0.25926100  0.53233800  0.14585300  1
  C  1912  1  0.24312200  0.51935900  0.15776700  1
  C  1913  1  0.22696900  0.53848100  0.16660700  1
  C  1914  1  0.27740500  0.51996700  0.13386300  1
  C  1915  1  0.29046000  0.53340900  0.12121100  1
  C  1917  1  0.30437100  0.56518700  0.10472800  1
  C  1918  1  0.31208800  0.54037200  0.09851600  1
  C  1919  1  0.30420800  0.52094000  0.10869700  1
  C  1920  1  0.30985300  0.59015900  0.09772800  1
  C  1921  1  0.30432900  0.61527100  0.10447600  1
  C  1923  1  0.28990900  0.64635700  0.12098600  1
  C  1924  1  0.30393900  0.65931600  0.10866900  1
  C  1925  1  0.31217200  0.64016000  0.09838300  1
  C  1926  1  0.27688200  0.65873000  0.13391200  1
  C  1927  1  0.28224900  0.68674900  0.13502800  1
  C  1928  1  0.25443500  0.70466300  0.12990000  1
  C  1929  1  0.26143000  0.73229700  0.12998800  1
  C  1930  1  0.29630800  0.74250400  0.13522200  1
  C  1931  1  0.32390600  0.72449100  0.14037700  1
  C  1932  1  0.31698700  0.69687700  0.14032700  1
  C  1933  1  0.31910300  0.59011400  0.08267300  1
  C  1934  1  0.28955400  0.59096800  0.07233200  1
  C  1935  1  0.29783300  0.59134300  0.05740800  1
  C  1936  1  0.33569300  0.59064400  0.05245700  1
  C  1937  1  0.36532500  0.58982100  0.06281300  1
  C  1938  1  0.35710600  0.58957700  0.07779000  1
  C  1939  1  0.28297100  0.49191800  0.13451800  1
  C  1940  1  0.31835500  0.48170800  0.13905400  1
  C  1941  1  0.32514500  0.45409200  0.13887000  1
  C  1942  1  0.29679000  0.43613700  0.13422800  1
  C  1943  1  0.26131600  0.44642500  0.12971000  1
  C  1944  1  0.25447300  0.47406800  0.12983600  1
  C  1945  1  0.20099700  0.58865600  0.17912600  1
  C  1946  1  0.21735800  0.58625000  0.19306300  1
  C  1947  1  0.16121300  0.59131500  0.17797800  1
  C  1948  1  0.13830300  0.59149900  0.19049500  1
  C  1949  1  0.15443800  0.58915100  0.20446100  1
  C  1950  1  0.19434400  0.58645400  0.20557200  1
  C  1981  1  0.41885500  0.04065800  0.16713400  1
  C  1982  1  0.40326300  0.02115600  0.15837600  1
  C  1983  1  0.38906600  0.03337900  0.14587400  1
  C  1985  1  0.41362300  0.06530800  0.16035700  1
  C  1986  1  0.42483600  0.09033900  0.16623400  1
  C  1987  1  0.41473400  0.11537900  0.16018600  1
  C  1989  1  0.38916300  0.14623900  0.14559800  1
  C  1990  1  0.40638100  0.15941900  0.15722400  1
  C  1991  1  0.42274500  0.14041400  0.16608000  1
  C  1992  1  0.36985100  0.15838400  0.13381100  1
  C  1993  1  0.35550300  0.14472300  0.12143000  1
  C  1995  1  0.34118000  0.11286500  0.10503500  1
  C  1996  1  0.32992200  0.13745000  0.09937200  1
  C  1997  1  0.33828400  0.15691000  0.10947500  1
  C  1998  1  0.33663000  0.08794100  0.09787200  1
  C  1999  1  0.34380900  0.06288500  0.10447100  1
  C  2001  1  0.35952400  0.03199800  0.12093500  1
  C  2002  1  0.34713100  0.01881700  0.10843700  1
  C  2003  1  0.33820500  0.03785800  0.09818000  1
  C  2004  1  0.37240600  0.01976700  0.13392300  1
  C  2005  1  0.36714600  0.99174206  0.13509100  1
  C  2006  1  0.39507300  0.97379710  0.13008500  1
  C  2007  1  0.38811900  0.94615610  0.13024300  1
  C  2008  1  0.35315900  0.93598310  0.13541600  1
  C  2009  1  0.32548200  0.95402210  0.14047800  1
  C  2010  1  0.33235800  0.98163710  0.14035400  1
  C  2011  1  0.32559500  0.08817500  0.08296400  1
  C  2012  1  0.35251800  0.09527600  0.07227100  1
  C  2013  1  0.34265000  0.09519100  0.05748700  1
  C  2014  1  0.30558300  0.08812000  0.05302600  1
  C  2015  1  0.27887100  0.08056900  0.06367700  1
  C  2016  1  0.28857300  0.08094900  0.07852200  1
  C  2017  1  0.36421900  0.18643100  0.13445100  1
  C  2018  1  0.32934900  0.19671300  0.13949900  1
  C  2019  1  0.32247500  0.22432000  0.13924200  1
  C  2020  1  0.35028500  0.24219700  0.13405900  1
  C  2021  1  0.38524300  0.23183500  0.12903100  1
  C  2022  1  0.39212200  0.20420200  0.12919300  1
  C  2023  1  0.44756400  0.09034600  0.17905100  1
  C  2024  1  0.43110800  0.09312700  0.19295000  1
  C  2025  1  0.48733700  0.08752500  0.17797200  1
  C  2026  1  0.51013900  0.08754200  0.19051900  1
  C  2027  1  0.49390500  0.09025500  0.20445000  1
  C  2028  1  0.45401000  0.09310600  0.20549100  1
  C  2059  1  0.42047500  0.13874300  0.83207100  1
  C  2060  1  0.40481200  0.15810300  0.84088700  1
  C  2061  1  0.38947500  0.14560100  0.85311300  1
  C  2063  1  0.41405900  0.11390700  0.83850300  1
  C  2064  1  0.42443100  0.08893900  0.83234200  1
  C  2065  1  0.41371800  0.06379800  0.83813900  1
  C  2067  1  0.38834100  0.03264300  0.85263100  1
  C  2068  1  0.40402400  0.01976500  0.84060500  1
  C  2069  1  0.42033800  0.03892900  0.83181700  1
  C  2070  1  0.37026700  0.02018400  0.86461800  1
  C  2071  1  0.35751900  0.03353200  0.87734000  1
  C  2073  1  0.34373500  0.06519600  0.89388400  1
  C  2074  1  0.33651100  0.04032100  0.90012900  1
  C  2075  1  0.34425900  0.02095600  0.88990500  1
  C  2076  1  0.33816900  0.09011800  0.90091800  1
  C  2077  1  0.34370700  0.11527400  0.89421200  1
  C  2079  1  0.35852600  0.14648200  0.87780900  1
  C  2080  1  0.34412100  0.15934100  0.89008500  1
  C  2081  1  0.33562700  0.14011100  0.90030700  1
  C  2082  1  0.37190700  0.15895000  0.86495500  1
  C  2083  1  0.36647500  0.18695100  0.86383900  1
  C  2084  1  0.39370500  0.20498100  0.86934600  1
  C  2085  1  0.38658600  0.23258800  0.86916700  1
  C  2086  1  0.35214200  0.24263800  0.86347900  1
  C  2087  1  0.32511000  0.22451000  0.85796700  1
  C  2088  1  0.33218400  0.19693100  0.85808800  1
  C  2089  1  0.32892700  0.08999400  0.91597500  1
  C  2090  1  0.35847400  0.09105000  0.92631400  1
  C  2091  1  0.35020500  0.09136300  0.94123800  1
  C  2092  1  0.31235700  0.09043400  0.94619500  1
  C  2093  1  0.28272700  0.08936200  0.93584500  1
  C  2094  1  0.29093600  0.08917400  0.92086500  1
  C  2095  1  0.36474100  0.99211906  0.86395600  1
  C  2096  1  0.32906500  0.98179610  0.85979900  1
  C  2097  1  0.32235600  0.95416010  0.86006300  1
  C  2098  1  0.35108400  0.93629610  0.86440200  1
  C  2099  1  0.38685700  0.94669710  0.86852800  1
  C  2100  1  0.39362000  0.97435810  0.86832700  1
  C  2101  1  0.44712900  0.08910000  0.81951600  1
  C  2102  1  0.43059000  0.08707700  0.80559200  1
  C  2103  1  0.48698500  0.09130800  0.82062200  1
  C  2104  1  0.50978700  0.09140600  0.80807600  1
  C  2105  1  0.49348200  0.08937900  0.79412200  1
  C  2106  1  0.45349800  0.08718300  0.79305200  1
  C  2137  1  0.73039100  0.04043700  0.33121800  1
  C  2138  1  0.74574500  0.02089500  0.33999400  1
  C  2139  1  0.75939700  0.03302300  0.35261700  1
  C  2141  1  0.73504400  0.06500800  0.33814700  1
  C  2142  1  0.72373800  0.09004900  0.33232600  1
  C  2143  1  0.73335900  0.11505900  0.33854600  1
  C  2145  1  0.75831600  0.14586000  0.35335100  1
  C  2146  1  0.74089700  0.15911700  0.34180800  1
  C  2147  1  0.72485900  0.14014200  0.33283100  1
  C  2148  1  0.77753700  0.15795000  0.36518400  1
  C  2149  1  0.79204000  0.14419800  0.37749600  1
  C  2151  1  0.80643800  0.11224100  0.39379600  1
  C  2152  1  0.81821800  0.13675100  0.39942700  1
  C  2153  1  0.80979800  0.15627500  0.38937800  1
  C  2154  1  0.81082500  0.08728000  0.40092500  1
  C  2155  1  0.80362100  0.06227600  0.39425700  1
  C  2157  1  0.78831500  0.03150600  0.37765600  1
  C  2158  1  0.80038100  0.01824000  0.39016700  1
  C  2159  1  0.80892100  0.03720700  0.40052100  1
  C  2160  1  0.77579800  0.01934600  0.36458800  1
  C  2161  1  0.78107800  0.99133006  0.36338600  1
  C  2162  1  0.75292300  0.97331810  0.36818200  1
  C  2163  1  0.75992800  0.94569110  0.36810300  1
  C  2164  1  0.79517800  0.93558410  0.36322100  1
  C  2165  1  0.82308100  0.95369010  0.35835800  1
  C  2166  1  0.81616400  0.98129110  0.35841300  1
  C  2167  1  0.82199100  0.08742300  0.41582100  1
  C  2168  1  0.79530000  0.09471100  0.42655200  1
  C  2169  1  0.80529500  0.09452400  0.44132500  1
  C  2170  1  0.84226800  0.08718100  0.44572900  1
  C  2171  1  0.86877200  0.07948900  0.43504400  1
  C  2172  1  0.85893300  0.07995000  0.42021300  1
  C  2173  1  0.78336500  0.18598800  0.36455300  1
  C  2174  1  0.81798800  0.19619000  0.35918200  1
  C  2175  1  0.82503800  0.22378800  0.35931900  1
  C  2176  1  0.79762700  0.24173800  0.36468300  1
  C  2177  1  0.76292400  0.23146000  0.37004300  1
  C  2178  1  0.75587100  0.20382800  0.37000300  1
  C  2179  1  0.70144500  0.09009600  0.31939000  1
  C  2180  1  0.71810100  0.09448800  0.30564500  1
  C  2181  1  0.66187000  0.08584700  0.32020100  1
  C  2182  1  0.63946100  0.08608200  0.30755200  1
  C  2183  1  0.65590700  0.09043500  0.29378000  1
  C  2184  1  0.69559700  0.09468500  0.29299900  1
  C  2215  1  0.72899200  0.13795900  0.66696200  1
  C  2216  1  0.74440300  0.15737400  0.65809900  1
  C  2217  1  0.75910800  0.14496300  0.64574200  1
  C  2219  1  0.73472000  0.11318200  0.66038100  1
  C  2220  1  0.72414100  0.08818900  0.66649100  1
  C  2221  1  0.73439700  0.06307100  0.66056500  1
  C  2223  1  0.75923800  0.03198800  0.64591800  1
  C  2224  1  0.74327700  0.01901100  0.65786600  1
  C  2225  1  0.72728200  0.03813300  0.66674500  1
  C  2226  1  0.77720000  0.01959600  0.63389500  1
  C  2227  1  0.79011100  0.03302700  0.62121600  1
  C  2229  1  0.80396700  0.06478600  0.60471600  1
  C  2230  1  0.81154000  0.03995900  0.59849200  1
  C  2231  1  0.80367800  0.02053800  0.60868000  1
  C  2232  1  0.80949100  0.08975300  0.59771200  1
  C  2233  1  0.80391300  0.11487300  0.60444700  1
  C  2235  1  0.78939100  0.14599400  0.62092800  1
  C  2236  1  0.80350200  0.15892500  0.60861600  1
  C  2237  1  0.81180900  0.13975200  0.59835000  1
  C  2238  1  0.77637400  0.15839400  0.63385000  1
  C  2239  1  0.78185000  0.18641100  0.63496700  1
  C  2240  1  0.75433600  0.20439900  0.62967800  1
  C  2241  1  0.76152500  0.23201300  0.62975400  1
  C  2242  1  0.79630200  0.24213400  0.63513800  1
  C  2243  1  0.82359400  0.22404800  0.64045300  1
  C  2244  1  0.81647900  0.19645800  0.64041500  1
  C  2245  1  0.81888500  0.08969400  0.58266800  1
  C  2246  1  0.78945300  0.09073500  0.57228300  1
  C  2247  1  0.79788500  0.09106800  0.55737100  1
  C  2248  1  0.83578200  0.09015400  0.55247300  1
  C  2249  1  0.86529900  0.08913200  0.56287000  1
  C  2250  1  0.85692700  0.08892500  0.57783700  1
  C  2251  1  0.78284300  0.99155106  0.63456000  1
  C  2252  1  0.81833400  0.98140510  0.63901600  1
  C  2253  1  0.82518600  0.95379610  0.63886000  1
  C  2254  1  0.79679000  0.93577910  0.63432800  1
  C  2255  1  0.76120200  0.94600110  0.62989400  1
  C  2256  1  0.75429600  0.97364010  0.62999100  1
  C  2257  1  0.70179900  0.08831400  0.67941400  1
  C  2258  1  0.71852100  0.08495400  0.69323100  1
  C  2259  1  0.66210000  0.09179700  0.67851500  1
  C  2260  1  0.63963400  0.09181400  0.69114900  1
  C  2261  1  0.65613400  0.08845400  0.70499000  1
  C  2262  1  0.69594900  0.08497500  0.70586000  1
  C  2293  1  0.91927080  0.54040400  0.66715000  1
  C  2294  1  0.90404180  0.52085400  0.65833200  1
  C  2295  1  0.89002100  0.53304000  0.64579200  1
  C  2297  1  0.91408780  0.56504000  0.66035200  1
  C  2298  1  0.92497380  0.59010300  0.66628800  1
  C  2299  1  0.91498680  0.61512300  0.66018400  1
  C  2301  1  0.88973200  0.64594700  0.64548800  1
  C  2302  1  0.90674780  0.65916200  0.65714400  1
  C  2303  1  0.92291680  0.64018400  0.66606700  1
  C  2304  1  0.87062700  0.65807400  0.63364700  1
  C  2305  1  0.85642200  0.64437700  0.62125500  1
  C  2307  1  0.84213400  0.61245800  0.60489200  1
  C  2308  1  0.83104700  0.63703900  0.59917100  1
  C  2309  1  0.83940500  0.65653800  0.60925000  1
  C  2310  1  0.83752100  0.58750100  0.59776800  1
  C  2311  1  0.84475000  0.56246000  0.60437600  1
  C  2313  1  0.86062100  0.53159100  0.62083200  1
  C  2314  1  0.84811200  0.51839600  0.60835500  1
  C  2315  1  0.83907300  0.53742400  0.59810500  1
  C  2316  1  0.87354100  0.51937700  0.63381900  1
  C  2317  1  0.86828900  0.49134600  0.63500000  1
  C  2318  1  0.89597300  0.47337600  0.62982500  1
  C  2319  1  0.88893700  0.44573900  0.62997300  1
  C  2320  1  0.85413500  0.43558800  0.63531300  1
  C  2321  1  0.82670900  0.45364900  0.64055100  1
  C  2322  1  0.83366600  0.48125500  0.64043400  1
  C  2323  1  0.82633500  0.58767600  0.58287800  1
  C  2324  1  0.85320500  0.59456100  0.57212600  1
  C  2325  1  0.84315000  0.59443900  0.55736000  1
  C  2326  1  0.80595100  0.58754100  0.55298400  1
  C  2327  1  0.77928500  0.58019700  0.56369400  1
  C  2328  1  0.78917800  0.58061700  0.57852000  1
  C  2329  1  0.86489600  0.68611700  0.63427900  1
  C  2330  1  0.82989000  0.69632700  0.63923200  1
  C  2331  1  0.82297000  0.72392900  0.63902300  1
  C  2332  1  0.85087200  0.74187900  0.63398900  1
  C  2333  1  0.88596400  0.73159300  0.62905300  1
  C  2334  1  0.89288900  0.70396100  0.62916300  1
  C  2335  1  0.94714180  0.59016300  0.67925300  1
  C  2336  1  0.93022780  0.59396000  0.69300200  1
  C  2337  1  0.98680980  0.58643500  0.67847600  1
  C  2338  1  0.00906100  0.58658500  0.69116800  1
  C  2339  1  0.99235883  0.59035200  0.70494300  1
  C  2340  1  0.95257480  0.59408600  0.70568800  1
  C  2371  1  0.92072080  0.63817600  0.33202000  1
  C  2372  1  0.90537480  0.65757400  0.34089200  1
  C  2373  1  0.89027100  0.64511100  0.35317100  1
  C  2375  1  0.91442280  0.61335600  0.33848800  1
  C  2376  1  0.92453980  0.58836600  0.33228500  1
  C  2377  1  0.91396580  0.56324100  0.33814100  1
  C  2379  1  0.88889500  0.53212000  0.35273600  1
  C  2380  1  0.90443280  0.51920400  0.34069500  1
  C  2381  1  0.92055880  0.53834400  0.33184400  1
  C  2382  1  0.87099600  0.51968100  0.36476800  1
  C  2383  1  0.85835100  0.53307100  0.37749000  1
  C  2385  1  0.84459100  0.56478500  0.39400900  1
  C  2386  1  0.83747300  0.53992400  0.40028900  1
  C  2387  1  0.84522100  0.52052700  0.39008500  1
  C  2388  1  0.83900200  0.58972900  0.40101800  1
  C  2389  1  0.84461100  0.61487100  0.39430300  1
  C  2391  1  0.85954000  0.64606000  0.37790200  1
  C  2392  1  0.84509900  0.65893600  0.39016600  1
  C  2393  1  0.83652000  0.63971800  0.40038300  1
  C  2394  1  0.87290200  0.65851100  0.36504100  1
  C  2395  1  0.86747500  0.68652000  0.36391300  1
  C  2396  1  0.89449800  0.70457100  0.36955100  1
  C  2397  1  0.88731200  0.73217300  0.36937600  1
  C  2398  1  0.85300600  0.74220700  0.36355800  1
  C  2399  1  0.82619300  0.72406300  0.35790700  1
  C  2400  1  0.83333100  0.69649100  0.35802700  1
  C  2401  1  0.82960600  0.58964100  0.41606100  1
  C  2402  1  0.85902300  0.59097000  0.42644400  1
  C  2403  1  0.85058300  0.59127900  0.44135500  1
  C  2404  1  0.81269400  0.59007200  0.44625100  1
  C  2405  1  0.78319700  0.58873500  0.43585600  1
  C  2406  1  0.79157500  0.58855100  0.42088900  1
  C  2407  1  0.86539800  0.49161800  0.36412100  1
  C  2408  1  0.82963100  0.48134500  0.36003800  1
  C  2409  1  0.82288800  0.45371100  0.36026100  1
  C  2410  1  0.85167000  0.43579700  0.36448200  1
  C  2411  1  0.88752700  0.44614400  0.36853900  1
  C  2412  1  0.89432500  0.47380400  0.36838300  1
  C  2413  1  0.94674180  0.58849800  0.31932700  1
  C  2414  1  0.92976780  0.58554800  0.30552600  1
  C  2415  1  0.98652380  0.59159900  0.32017100  1
  C  2416  1  0.00882900  0.59165000  0.30749400  1
  C  2417  1  0.99207883  0.58867700  0.29366800  1
  C  2418  1  0.95217780  0.58559400  0.29285400  1
  C  2449  1  0.36390400  0.59008100  0.01444400  1
  C  2450  1  0.39479300  0.59739700  0.00533300  1
  C  2451  1  0.38867700  0.60114600  0.99025600  1
  C  2452  1  0.35245700  0.59765100  0.98401800  1
  C  2453  1  0.32164000  0.58997900  0.99295200  1
  C  2455  1  0.32787100  0.58606600  0.00796200  1
  C  2463  1  0.36834000  0.58706900  0.02942500  1
  C  2465  1  0.34654300  0.60376900  0.96959400  1
  C  2467  1  0.28440400  0.08989700  0.98424600  1
  C  2468  1  0.25359200  0.09703900  0.99342400  1
  C  2469  1  0.25989300  0.10082700  0.00848900  1
  C  2470  1  0.29624500  0.09759500  0.01464900  1
  C  2471  1  0.32698300  0.09008200  0.00564800  1
  C  2473  1  0.32055700  0.08609600  0.99065700  1
  C  2481  1  0.27979900  0.08686600  0.96926800  1
  C  2483  1  0.30238100  0.10378100  0.02905400  1
  C  2485  1  0.86414700  0.08954800  0.51446700  1
  C  2486  1  0.89499400  0.09687600  0.50533800  1
  C  2487  1  0.88883200  0.10056500  0.49025600  1
  C  2488  1  0.85260300  0.09700000  0.48403500  1
  C  2489  1  0.82183800  0.08930200  0.49298700  1
  C  2491  1  0.82811600  0.08545100  0.50799900  1
  C  2499  1  0.86860400  0.08660700  0.52945600  1
  C  2501  1  0.84659400  0.10307000  0.46961000  1
  C  2503  1  0.78443400  0.58942600  0.48426000  1
  C  2504  1  0.75357000  0.59660700  0.49340100  1
  C  2505  1  0.75978600  0.60043500  0.50847000  1
  C  2506  1  0.79608900  0.59716700  0.51466400  1
  C  2507  1  0.82687400  0.58960000  0.50570100  1
  C  2509  1  0.82054100  0.58560300  0.49070500  1
  C  2517  1  0.77993800  0.58638100  0.46928000  1
  C  2519  1  0.80213500  0.60334200  0.52907600  1
  C  2521  1  0.30602500  0.81411900  0.86658100  1
  C  2522  1  0.29445400  0.83470300  0.87617900  1
  C  2523  1  0.31330700  0.85962400  0.87576800  1
  C  2524  1  0.34341500  0.86459200  0.86599600  1
  C  2525  1  0.35510500  0.84407000  0.85642100  1
  C  2527  1  0.33614600  0.81919700  0.85679500  1
  C  2535  1  0.28804700  0.78944800  0.86659400  1
  C  2537  1  0.36136700  0.88914800  0.86608300  1
  C  2539  1  0.30509000  0.36422900  0.13224300  1
  C  2540  1  0.29339600  0.34378900  0.12256300  1
  C  2541  1  0.31226300  0.31890100  0.12281100  1
  C  2542  1  0.34251900  0.31384400  0.13249100  1
  C  2543  1  0.35436300  0.33423300  0.14213500  1
  C  2545  1  0.33537900  0.35906900  0.14192900  1
  C  2553  1  0.28705400  0.38883500  0.13240900  1
  C  2555  1  0.36042100  0.28931600  0.13225500  1
  C  2557  1  0.34384600  0.86412800  0.13350000  1
  C  2558  1  0.35555400  0.84349600  0.12395500  1
  C  2559  1  0.33616100  0.81877300  0.12414300  1
  C  2560  1  0.30533600  0.81407300  0.13362000  1
  C  2561  1  0.29345000  0.83464800  0.14311900  1
  C  2563  1  0.31298600  0.85930900  0.14298600  1
  C  2571  1  0.36225600  0.88864200  0.13365800  1
  C  2573  1  0.28694500  0.78970000  0.13331500  1
  C  2575  1  0.34259000  0.31446900  0.86528900  1
  C  2576  1  0.35420900  0.33525200  0.87476800  1
  C  2577  1  0.33482500  0.35993600  0.87445200  1
  C  2578  1  0.30411200  0.36446600  0.86490400  1
  C  2579  1  0.29233100  0.34374700  0.85546500  1
  C  2581  1  0.31184500  0.31911800  0.85573100  1
  C  2589  1  0.36100000  0.28998300  0.86525600  1
  C  2591  1  0.28572100  0.38881400  0.86508400  1
  C  2593  1  0.80627700  0.31365700  0.36646200  1
  C  2594  1  0.79475500  0.33425800  0.37605800  1
  C  2595  1  0.81370400  0.35914300  0.37566100  1
  C  2596  1  0.84385600  0.36407100  0.36590100  1
  C  2597  1  0.85549400  0.34352900  0.35632800  1
  C  2599  1  0.83644600  0.31868800  0.35669100  1
  C  2607  1  0.78820500  0.28902200  0.36646400  1
  C  2609  1  0.86188300  0.38860700  0.36599600  1
  C  2611  1  0.80531200  0.86387300  0.63239900  1
  C  2612  1  0.79366900  0.84341900  0.62272100  1
  C  2613  1  0.81263500  0.81856700  0.62295300  1
  C  2614  1  0.84293400  0.81355000  0.63262000  1
  C  2615  1  0.85472500  0.83395800  0.64226400  1
  C  2617  1  0.83564900  0.85876300  0.64207100  1
  C  2625  1  0.78718600  0.88844700  0.63257500  1
  C  2627  1  0.86092400  0.78904400  0.63237100  1
  C  2629  1  0.84447200  0.36371900  0.63330500  1
  C  2630  1  0.85613500  0.34300700  0.62380200  1
  C  2631  1  0.83667300  0.31830900  0.62402400  1
  C  2632  1  0.80580900  0.31369700  0.63349300  1
  C  2633  1  0.79397000  0.33434700  0.64295500  1
  C  2635  1  0.81357700  0.35897900  0.64279000  1
  C  2643  1  0.86296100  0.38822100  0.63342900  1
  C  2645  1  0.78728800  0.28936200  0.63319900  1
  C  2647  1  0.84313600  0.81405400  0.36544700  1
  C  2648  1  0.85471400  0.83491400  0.37488500  1
  C  2649  1  0.83526300  0.85957600  0.37453600  1
  C  2650  1  0.80450900  0.86402200  0.36499700  1
  C  2651  1  0.79277500  0.84323100  0.35559400  1
  C  2653  1  0.81235900  0.81862800  0.35589100  1
  C  2661  1  0.86161900  0.78957900  0.36544800  1
  C  2663  1  0.78598600  0.88833100  0.36516900  1
  C  2665  1  0.04122200  0.59113900  0.73985400  1
  C  2666  1  0.03996300  0.60591900  0.75299800  1
  C  2667  1  0.07118200  0.60502000  0.76267800  1
  C  2668  1  0.10387300  0.58959900  0.75972900  1
  C  2669  1  0.10508700  0.57474200  0.74661600  1
  C  2671  1  0.07387400  0.57564100  0.73693900  1
  C  2679  1  0.01076300  0.59115100  0.73018400  1
  C  2681  1  0.13459300  0.58996700  0.76926000  1
  C  2683  1  0.04120800  0.58825600  0.25881800  1
  C  2684  1  0.04004800  0.57344600  0.24568200  1
  C  2685  1  0.07136900  0.57434600  0.23605000  1
  C  2686  1  0.10407400  0.58978700  0.23904300  1
  C  2687  1  0.10518900  0.60466600  0.25215100  1
  C  2689  1  0.07386800  0.60377200  0.26177900  1
  C  2697  1  0.01065600  0.58823800  0.26844000  1
  C  2699  1  0.13488500  0.58943200  0.22955400  1
  C  2701  1  0.60667300  0.09157500  0.25893900  1
  C  2702  1  0.60797500  0.10636800  0.24579800  1
  C  2703  1  0.57671600  0.10552200  0.23613400  1
  C  2704  1  0.54393100  0.09015700  0.23910200  1
  C  2705  1  0.54263700  0.07532100  0.25222000  1
  C  2707  1  0.57390500  0.07614800  0.26187500  1
  C  2715  1  0.63721100  0.09149700  0.26857800  1
  C  2717  1  0.51321700  0.09053400  0.22957200  1
  C  2719  1  0.60665600  0.08799700  0.73977500  1
  C  2720  1  0.60783900  0.07331200  0.75295000  1
  C  2721  1  0.57647800  0.07416400  0.76256400  1
  C  2722  1  0.54371500  0.08943900  0.75951200  1
  C  2723  1  0.54254900  0.10416900  0.74635700  1
  C  2725  1  0.57391300  0.10332600  0.73674800  1
  C  2733  1  0.63727900  0.08805400  0.73018300  1
  C  2735  1  0.51291600  0.08909400  0.76900400  1
  N  4  1  0.76337500  0.71936300  0.85094000  1
  N  8  1  0.76389700  0.77950900  0.85090200  1
  N  14  1  0.80208800  0.77778100  0.88061700  1
  N  20  1  0.80235800  0.71778500  0.88055500  1
  N  75  1  0.86214600  0.74553300  0.95970400  1
  N  76  1  0.81772300  0.92733000  0.86492000  1
  N  77  1  0.64078300  0.74949700  0.78312400  1
  N  78  1  0.81547800  0.56996500  0.86352800  1
  N  82  1  0.76356100  0.77841200  0.14767100  1
  N  86  1  0.76403000  0.71815700  0.14800700  1
  N  92  1  0.80222600  0.71937400  0.11830300  1
  N  98  1  0.80163800  0.77955300  0.11796500  1
  N  153  1  0.85131100  0.75101000  0.03817800  1
  N  154  1  0.81679500  0.57001800  0.13393200  1
  N  155  1  0.64119400  0.74884400  0.21568600  1
  N  156  1  0.81663300  0.92759600  0.13494500  1
  N  160  1  0.90649800  0.21929100  0.14765300  1
  N  164  1  0.90536600  0.27945600  0.14793000  1
  N  170  1  0.86691700  0.27786900  0.11824900  1
  N  176  1  0.86743000  0.21782000  0.11804800  1
  N  231  1  0.80720000  0.24584300  0.03903600  1
  N  232  1  0.85159800  0.42733100  0.13367700  1
  N  233  1  0.02838400  0.24971600  0.21571000  1
  N  234  1  0.85417100  0.06991500  0.13521300  1
  N  238  1  0.90638500  0.27870900  0.85111600  1
  N  242  1  0.90534400  0.21845700  0.85059900  1
  N  248  1  0.86683800  0.21948800  0.88024600  1
  N  254  1  0.86812300  0.27966100  0.88078800  1
  N  309  1  0.81810400  0.25078100  0.96047400  1
  N  310  1  0.85252000  0.07014700  0.86485300  1
  N  311  1  0.02798700  0.24893800  0.78287000  1
  N  312  1  0.85299800  0.42767900  0.86362500  1
  N  316  1  0.26304000  0.21891200  0.35093200  1
  N  320  1  0.26392200  0.27907300  0.35084900  1
  N  326  1  0.30172900  0.27733500  0.38065100  1
  N  332  1  0.30175100  0.21731100  0.38060800  1
  N  387  1  0.36199900  0.24482800  0.45971000  1
  N  388  1  0.31782600  0.42686300  0.36485800  1
  N  389  1  0.14311700  0.25006400  0.28241900  1
  N  390  1  0.31558500  0.06954500  0.36359300  1
  N  394  1  0.26328700  0.27807100  0.64767900  1
  N  398  1  0.26405300  0.21781100  0.64808600  1
  N  404  1  0.30191900  0.21899200  0.61830800  1
  N  410  1  0.30112200  0.27918300  0.61792100  1
  N  465  1  0.35152800  0.25047100  0.53820000  1
  N  466  1  0.31686400  0.06966900  0.63404800  1
  N  467  1  0.14327600  0.24802100  0.71633100  1
  N  468  1  0.31682500  0.42719500  0.63485400  1
  N  472  1  0.40732100  0.71897000  0.64758300  1
  N  476  1  0.40588000  0.77916800  0.64786000  1
  N  482  1  0.36776400  0.77750400  0.61811700  1
  N  488  1  0.36850700  0.71741100  0.61793700  1
  N  543  1  0.30743400  0.74524600  0.53901300  1
  N  544  1  0.35214900  0.92700900  0.63366000  1
  N  545  1  0.52634200  0.74987700  0.71634600  1
  N  546  1  0.35503400  0.56953400  0.63510200  1
  N  550  1  0.40710600  0.77820800  0.35117200  1
  N  554  1  0.40581200  0.71793400  0.35065500  1
  N  560  1  0.36763900  0.71903900  0.38036800  1
  N  566  1  0.36909800  0.77924000  0.38088700  1
  N  621  1  0.31828000  0.75039800  0.46052000  1
  N  622  1  0.35308000  0.56965000  0.36488700  1
  N  623  1  0.52612900  0.74828200  0.28228600  1
  N  624  1  0.35376600  0.92723800  0.36370700  1
  N  633  1  0.79578800  0.74609200  0.98677400  1
  N  634  1  0.94191500  0.76102500  0.01143500  1
  N  651  1  0.87429800  0.24640700  0.01174400  1
  N  652  1  0.72769000  0.26045900  0.98739900  1
  N  669  1  0.29597500  0.24534600  0.48682900  1
  N  670  1  0.44212100  0.26056700  0.51142100  1
  N  687  1  0.37414200  0.74589500  0.51183400  1
  N  688  1  0.22771300  0.76002700  0.48733900  1
  N  705  1  0.89576300  0.00834000  0.84650400  1
  N  706  1  0.77535000  0.98953400  0.88620900  1
  N  723  1  0.89518500  0.48887800  0.15195600  1
  N  724  1  0.77415600  0.50810000  0.11261800  1
  N  741  1  0.77333600  0.98965900  0.15270900  1
  N  742  1  0.89666300  0.00744600  0.11418900  1
  N  759  1  0.77234200  0.50758000  0.84580000  1
  N  760  1  0.89522300  0.49051500  0.88459600  1
  N  777  1  0.39618900  0.50774700  0.34641900  1
  N  778  1  0.27560200  0.48913500  0.38607300  1
  N  795  1  0.39558400  0.98865400  0.65207500  1
  N  796  1  0.27437700  0.00768000  0.61279100  1
  N  813  1  0.27381500  0.48945700  0.65253900  1
  N  814  1  0.39727500  0.50685100  0.61403400  1
  N  831  1  0.27274800  0.00696700  0.34593400  1
  N  832  1  0.39575700  0.99027900  0.38471200  1
  N  849  1  0.64793200  0.71837500  0.74341700  1
  N  850  1  0.51844900  0.78128900  0.75621400  1
  N  867  1  0.64804600  0.78007400  0.25539100  1
  N  868  1  0.51852800  0.71706800  0.24243200  1
  N  885  1  0.02099900  0.21904300  0.25543800  1
  N  886  1  0.15091400  0.28170300  0.24257100  1
  N  903  1  0.02093700  0.27937800  0.74305500  1
  N  904  1  0.15076000  0.21709600  0.75626000  1
  N  916  1  0.50804000  0.63960800  0.85094000  1
  N  920  1  0.50856200  0.69975400  0.85090200  1
  N  926  1  0.54675300  0.69802600  0.88061700  1
  N  932  1  0.54702300  0.63803000  0.88055500  1
  N  987  1  0.60681100  0.66577800  0.95970400  1
  N  988  1  0.56238800  0.84757500  0.86492000  1
  N  989  1  0.38544800  0.66974200  0.78312400  1
  N  990  1  0.56014300  0.49021000  0.86352800  1
  N  994  1  0.50822600  0.69865700  0.14767100  1
  N  998  1  0.50869500  0.63840200  0.14800700  1
  N  1004  1  0.54689100  0.63961900  0.11830300  1
  N  1010  1  0.54630300  0.69979800  0.11796500  1
  N  1065  1  0.59597600  0.67125500  0.03817800  1
  N  1066  1  0.56146000  0.49026300  0.13393200  1
  N  1067  1  0.38585900  0.66908900  0.21568600  1
  N  1068  1  0.56129800  0.84784100  0.13494500  1
  N  1072  1  0.65116300  0.13953600  0.14765300  1
  N  1076  1  0.65003100  0.19970100  0.14793000  1
  N  1082  1  0.61158200  0.19811400  0.11824900  1
  N  1088  1  0.61209500  0.13806500  0.11804800  1
  N  1143  1  0.55186500  0.16608800  0.03903600  1
  N  1144  1  0.59626300  0.34757600  0.13367700  1
  N  1145  1  0.77304900  0.16996100  0.21571000  1
  N  1146  1  0.59883600  0.99015953  0.13521300  1
  N  1150  1  0.65105000  0.19895400  0.85111600  1
  N  1154  1  0.65000900  0.13870200  0.85059900  1
  N  1160  1  0.61150300  0.13973300  0.88024600  1
  N  1166  1  0.61278800  0.19990600  0.88078800  1
  N  1221  1  0.56276900  0.17102600  0.96047400  1
  N  1222  1  0.59718500  0.99039153  0.86485300  1
  N  1223  1  0.77265200  0.16918300  0.78287000  1
  N  1224  1  0.59766300  0.34792400  0.86362500  1
  N  1228  1  0.00770500  0.13915700  0.35093200  1
  N  1232  1  0.00858700  0.19931800  0.35084900  1
  N  1238  1  0.04639400  0.19758000  0.38065100  1
  N  1244  1  0.04641600  0.13755600  0.38060800  1
  N  1299  1  0.10666400  0.16507300  0.45971000  1
  N  1300  1  0.06249100  0.34710800  0.36485800  1
  N  1301  1  0.88778200  0.17030900  0.28241900  1
  N  1302  1  0.06025000  0.98978950  0.36359300  1
  N  1306  1  0.00795200  0.19831600  0.64767900  1
  N  1310  1  0.00871800  0.13805600  0.64808600  1
  N  1316  1  0.04658400  0.13923700  0.61830800  1
  N  1322  1  0.04578700  0.19942800  0.61792100  1
  N  1377  1  0.09619300  0.17071600  0.53820000  1
  N  1378  1  0.06152900  0.98991350  0.63404800  1
  N  1379  1  0.88794100  0.16826600  0.71633100  1
  N  1380  1  0.06149000  0.34744000  0.63485400  1
  N  1384  1  0.15198600  0.63921500  0.64758300  1
  N  1388  1  0.15054500  0.69941300  0.64786000  1
  N  1394  1  0.11242900  0.69774900  0.61811700  1
  N  1400  1  0.11317200  0.63765600  0.61793700  1
  N  1455  1  0.05209900  0.66549100  0.53901300  1
  N  1456  1  0.09681400  0.84725400  0.63366000  1
  N  1457  1  0.27100700  0.67012200  0.71634600  1
  N  1458  1  0.09969900  0.48977900  0.63510200  1
  N  1462  1  0.15177100  0.69845300  0.35117200  1
  N  1466  1  0.15047700  0.63817900  0.35065500  1
  N  1472  1  0.11230400  0.63928400  0.38036800  1
  N  1478  1  0.11376300  0.69948500  0.38088700  1
  N  1533  1  0.06294500  0.67064300  0.46052000  1
  N  1534  1  0.09774500  0.48989500  0.36488700  1
  N  1535  1  0.27079400  0.66852700  0.28228600  1
  N  1536  1  0.09843100  0.84748300  0.36370700  1
  N  1545  1  0.54045300  0.66633700  0.98677400  1
  N  1546  1  0.68658000  0.68127000  0.01143500  1
  N  1563  1  0.61896300  0.16665200  0.01174400  1
  N  1564  1  0.47235500  0.18070400  0.98739900  1
  N  1581  1  0.04064000  0.16559100  0.48682900  1
  N  1582  1  0.18678600  0.18081200  0.51142100  1
  N  1599  1  0.11880700  0.66614000  0.51183400  1
  N  1600  1  0.97237790  0.68027200  0.48733900  1
  N  1617  1  0.64042800  0.92858450  0.84650400  1
  N  1618  1  0.52001500  0.90977850  0.88620900  1
  N  1635  1  0.63985000  0.40912300  0.15195600  1
  N  1636  1  0.51882100  0.42834500  0.11261800  1
  N  1653  1  0.51800100  0.90990350  0.15270900  1
  N  1654  1  0.64132800  0.92769050  0.11418900  1
  N  1671  1  0.51700700  0.42782500  0.84580000  1
  N  1672  1  0.63988800  0.41076000  0.88459600  1
  N  1689  1  0.14085400  0.42799200  0.34641900  1
  N  1690  1  0.02026700  0.40938000  0.38607300  1
  N  1707  1  0.14024900  0.90889850  0.65207500  1
  N  1708  1  0.01904200  0.92792450  0.61279100  1
  N  1725  1  0.01848000  0.40970200  0.65253900  1
  N  1726  1  0.14194000  0.42709600  0.61403400  1
  N  1743  1  0.01741300  0.92721150  0.34593400  1
  N  1744  1  0.14042200  0.91052350  0.38471200  1
  N  1761  1  0.39259700  0.63862000  0.74341700  1
  N  1762  1  0.26311400  0.70153400  0.75621400  1
  N  1779  1  0.39271100  0.70031900  0.25539100  1
  N  1780  1  0.26319300  0.63731300  0.24243200  1
  N  1797  1  0.76566400  0.13928800  0.25543800  1
  N  1798  1  0.89557900  0.20194800  0.24257100  1
  N  1815  1  0.76560200  0.19962300  0.74305500  1
  N  1816  1  0.89542500  0.13734100  0.75626000  1
  N  1828  1  0.25270500  0.55985200  0.85094000  1
  N  1832  1  0.25322700  0.61999800  0.85090200  1
  N  1838  1  0.29141800  0.61827000  0.88061700  1
  N  1844  1  0.29168800  0.55827400  0.88055500  1
  N  1899  1  0.35147600  0.58602200  0.95970400  1
  N  1900  1  0.30705300  0.76781900  0.86492000  1
  N  1901  1  0.13011300  0.58998600  0.78312400  1
  N  1902  1  0.30480800  0.41045400  0.86352800  1
  N  1906  1  0.25289100  0.61890100  0.14767100  1
  N  1910  1  0.25336000  0.55864600  0.14800700  1
  N  1916  1  0.29155600  0.55986300  0.11830300  1
  N  1922  1  0.29096800  0.62004200  0.11796500  1
  N  1977  1  0.34064100  0.59149900  0.03817800  1
  N  1978  1  0.30612500  0.41050700  0.13393200  1
  N  1979  1  0.13052400  0.58933300  0.21568600  1
  N  1980  1  0.30596300  0.76808500  0.13494500  1
  N  1984  1  0.39582800  0.05978000  0.14765300  1
  N  1988  1  0.39469600  0.11994500  0.14793000  1
  N  1994  1  0.35624700  0.11835800  0.11824900  1
  N  2000  1  0.35676000  0.05830900  0.11804800  1
  N  2055  1  0.29653000  0.08633200  0.03903600  1
  N  2056  1  0.34092800  0.26782000  0.13367700  1
  N  2057  1  0.51771400  0.09020500  0.21571000  1
  N  2058  1  0.34350100  0.91040410  0.13521300  1
  N  2062  1  0.39571500  0.11919800  0.85111600  1
  N  2066  1  0.39467400  0.05894600  0.85059900  1
  N  2072  1  0.35616800  0.05997700  0.88024600  1
  N  2078  1  0.35745300  0.12015000  0.88078800  1
  N  2133  1  0.30743400  0.09127000  0.96047400  1
  N  2134  1  0.34185000  0.91063610  0.86485300  1
  N  2135  1  0.51731700  0.08942700  0.78287000  1
  N  2136  1  0.34232800  0.26816800  0.86362500  1
  N  2140  1  0.75237000  0.05940100  0.35093200  1
  N  2144  1  0.75325200  0.11956200  0.35084900  1
  N  2150  1  0.79105900  0.11782400  0.38065100  1
  N  2156  1  0.79108100  0.05780000  0.38060800  1
  N  2211  1  0.85132900  0.08531700  0.45971000  1
  N  2212  1  0.80715600  0.26735200  0.36485800  1
  N  2213  1  0.63244700  0.09055300  0.28241900  1
  N  2214  1  0.80491500  0.91003410  0.36359300  1
  N  2218  1  0.75261700  0.11856000  0.64767900  1
  N  2222  1  0.75338300  0.05830000  0.64808600  1
  N  2228  1  0.79124900  0.05948100  0.61830800  1
  N  2234  1  0.79045200  0.11967200  0.61792100  1
  N  2289  1  0.84085800  0.09096000  0.53820000  1
  N  2290  1  0.80619400  0.91015810  0.63404800  1
  N  2291  1  0.63260600  0.08851000  0.71633100  1
  N  2292  1  0.80615500  0.26768400  0.63485400  1
  N  2296  1  0.89665100  0.55945900  0.64758300  1
  N  2300  1  0.89521000  0.61965700  0.64786000  1
  N  2306  1  0.85709400  0.61799300  0.61811700  1
  N  2312  1  0.85783700  0.55790000  0.61793700  1
  N  2367  1  0.79676400  0.58573500  0.53901300  1
  N  2368  1  0.84147900  0.76749800  0.63366000  1
  N  2369  1  0.01567200  0.59036600  0.71634600  1
  N  2370  1  0.84436400  0.41002300  0.63510200  1
  N  2374  1  0.89643600  0.61869700  0.35117200  1
  N  2378  1  0.89514200  0.55842300  0.35065500  1
  N  2384  1  0.85696900  0.55952800  0.38036800  1
  N  2390  1  0.85842800  0.61972900  0.38088700  1
  N  2445  1  0.80761000  0.59088700  0.46052000  1
  N  2446  1  0.84241000  0.41013900  0.36488700  1
  N  2447  1  0.01545900  0.58877100  0.28228600  1
  N  2448  1  0.84309600  0.76772700  0.36370700  1
  N  2457  1  0.28511800  0.58658100  0.98677400  1
  N  2458  1  0.43124500  0.60151400  0.01143500  1
  N  2475  1  0.36362800  0.08689600  0.01174400  1
  N  2476  1  0.21702000  0.10094800  0.98739900  1
  N  2493  1  0.78530500  0.08583500  0.48682900  1
  N  2494  1  0.93145080  0.10105600  0.51142100  1
  N  2511  1  0.86347200  0.58638400  0.51183400  1
  N  2512  1  0.71704300  0.60051600  0.48733900  1
  N  2529  1  0.38509300  0.84882900  0.84650400  1
  N  2530  1  0.26468000  0.83002300  0.88620900  1
  N  2547  1  0.38451500  0.32936700  0.15195600  1
  N  2548  1  0.26348600  0.34858900  0.11261800  1
  N  2565  1  0.26266600  0.83014800  0.15270900  1
  N  2566  1  0.38599300  0.84793500  0.11418900  1
  N  2583  1  0.26167200  0.34806900  0.84580000  1
  N  2584  1  0.38455300  0.33100400  0.88459600  1
  N  2601  1  0.88551900  0.34823600  0.34641900  1
  N  2602  1  0.76493200  0.32962400  0.38607300  1
  N  2619  1  0.88491400  0.82914300  0.65207500  1
  N  2620  1  0.76370700  0.84816900  0.61279100  1
  N  2637  1  0.76314500  0.32994600  0.65253900  1
  N  2638  1  0.88660500  0.34734000  0.61403400  1
  N  2655  1  0.76207800  0.84745600  0.34593400  1
  N  2656  1  0.88508700  0.83076800  0.38471200  1
  N  2673  1  0.13726200  0.55886400  0.74341700  1
  N  2674  1  0.00777900  0.62177800  0.75621400  1
  N  2691  1  0.13737600  0.62056300  0.25539100  1
  N  2692  1  0.00785800  0.55755700  0.24243200  1
  N  2709  1  0.51032900  0.05953200  0.25543800  1
  N  2710  1  0.64024400  0.12219200  0.24257100  1
  N  2727  1  0.51026700  0.11986700  0.74305500  1
  N  2728  1  0.64009000  0.05758500  0.75626000  1
  O  635  1  0.78389600  0.72266100  0.98843400  1
  O  636  1  0.95326700  0.78454000  0.00955300  1
  O  637  1  0.96591900  0.74528500  0.00613100  1
  O  638  1  0.77217400  0.76194000  0.99223300  1
  O  653  1  0.88633000  0.22303500  0.01007400  1
  O  654  1  0.71618900  0.28391200  0.98929900  1
  O  655  1  0.70388200  0.24459100  0.99275900  1
  O  656  1  0.89771200  0.26236700  0.00622000  1
  O  671  1  0.28415300  0.22190500  0.48851700  1
  O  672  1  0.45341500  0.28408800  0.50951000  1
  O  673  1  0.46614800  0.24483600  0.50612500  1
  O  674  1  0.27233700  0.26118100  0.49228200  1
  O  689  1  0.38613400  0.72250800  0.51018700  1
  O  690  1  0.21621700  0.78348800  0.48921300  1
  O  691  1  0.20385900  0.74418200  0.49268900  1
  O  692  1  0.39762700  0.76182200  0.50632500  1
  O  707  1  0.92296000  0.99262800  0.84860400  1
  O  708  1  0.78656700  0.99189800  0.89909300  1
  O  709  1  0.74808400  0.00522200  0.88418300  1
  O  710  1  0.88481500  0.00600300  0.83358500  1
  O  725  1  0.92233800  0.50468300  0.14987200  1
  O  726  1  0.78521300  0.50599500  0.09970100  1
  O  727  1  0.74692900  0.49231500  0.11461000  1
  O  728  1  0.88444500  0.49097600  0.16491200  1
  O  743  1  0.78340600  0.99180700  0.16574100  1
  O  744  1  0.92346400  0.99144900  0.11639800  1
  O  745  1  0.88613200  0.00530900  0.10120700  1
  O  746  1  0.74664900  0.00567900  0.15035600  1
  O  761  1  0.78257500  0.50527100  0.83279600  1
  O  762  1  0.92205300  0.50652100  0.88235300  1
  O  763  1  0.88457600  0.49282300  0.89755300  1
  O  764  1  0.74561400  0.49155300  0.84816900  1
  O  779  1  0.42332200  0.49198500  0.34852600  1
  O  780  1  0.28678900  0.49146900  0.39896400  1
  O  781  1  0.24840300  0.50487600  0.38403800  1
  O  782  1  0.38526000  0.50543400  0.33349700  1
  O  797  1  0.42267300  0.00451200  0.64998500  1
  O  798  1  0.28540100  0.00560700  0.59986800  1
  O  799  1  0.24722000  0.99184000  0.61479200  1
  O  800  1  0.38486600  0.99072400  0.66503400  1
  O  815  1  0.28386100  0.49165900  0.66557200  1
  O  816  1  0.42402600  0.49083100  0.61628100  1
  O  817  1  0.38676400  0.50465400  0.60105400  1
  O  818  1  0.24718600  0.50550300  0.65015100  1
  O  833  1  0.28295900  0.00460800  0.33293000  1
  O  834  1  0.42253900  0.00630900  0.38243400  1
  O  835  1  0.38513000  0.99264500  0.39766900  1
  O  836  1  0.24607400  0.99091200  0.34833600  1
  O  851  1  0.66371800  0.72571300  0.73185400  1
  O  852  1  0.52704500  0.80552900  0.75734700  1
  O  853  1  0.50263800  0.77387500  0.76775700  1
  O  854  1  0.63931300  0.69413400  0.74232900  1
  O  869  1  0.66368600  0.77276500  0.26698300  1
  O  870  1  0.52707900  0.69283000  0.24133100  1
  O  871  1  0.50285600  0.72443700  0.23085800  1
  O  872  1  0.63948400  0.80431600  0.25645200  1
  O  887  1  0.00532700  0.22643200  0.26700900  1
  O  888  1  0.14247000  0.30595600  0.24146300  1
  O  889  1  0.16662800  0.27429600  0.23101100  1
  O  890  1  0.02939900  0.19477900  0.25652500  1
  O  905  1  0.00538400  0.27187100  0.73147900  1
  O  906  1  0.14232300  0.19283100  0.75740800  1
  O  907  1  0.16634700  0.22462200  0.76782600  1
  O  908  1  0.02934300  0.30365100  0.74192400  1
  O  1547  1  0.52856100  0.64290600  0.98843400  1
  O  1548  1  0.69793200  0.70478500  0.00955300  1
  O  1549  1  0.71058400  0.66553000  0.00613100  1
  O  1550  1  0.51683900  0.68218500  0.99223300  1
  O  1565  1  0.63099500  0.14328000  0.01007400  1
  O  1566  1  0.46085400  0.20415700  0.98929900  1
  O  1567  1  0.44854700  0.16483600  0.99275900  1
  O  1568  1  0.64237700  0.18261200  0.00622000  1
  O  1583  1  0.02881800  0.14215000  0.48851700  1
  O  1584  1  0.19808000  0.20433300  0.50951000  1
  O  1585  1  0.21081300  0.16508100  0.50612500  1
  O  1586  1  0.01700200  0.18142600  0.49228200  1
  O  1601  1  0.13079900  0.64275300  0.51018700  1
  O  1602  1  0.96088190  0.70373300  0.48921300  1
  O  1603  1  0.94852390  0.66442700  0.49268900  1
  O  1604  1  0.14229200  0.68206700  0.50632500  1
  O  1619  1  0.66762500  0.91287250  0.84860400  1
  O  1620  1  0.53123200  0.91214250  0.89909300  1
  O  1621  1  0.49274900  0.92546650  0.88418300  1
  O  1622  1  0.62948000  0.92624750  0.83358500  1
  O  1637  1  0.66700300  0.42492800  0.14987200  1
  O  1638  1  0.52987800  0.42624000  0.09970100  1
  O  1639  1  0.49159400  0.41256000  0.11461000  1
  O  1640  1  0.62911000  0.41122100  0.16491200  1
  O  1655  1  0.52807100  0.91205150  0.16574100  1
  O  1656  1  0.66812900  0.91169350  0.11639800  1
  O  1657  1  0.63079700  0.92555350  0.10120700  1
  O  1658  1  0.49131400  0.92592350  0.15035600  1
  O  1673  1  0.52724000  0.42551600  0.83279600  1
  O  1674  1  0.66671800  0.42676600  0.88235300  1
  O  1675  1  0.62924100  0.41306800  0.89755300  1
  O  1676  1  0.49027900  0.41179800  0.84816900  1
  O  1691  1  0.16798700  0.41223000  0.34852600  1
  O  1692  1  0.03145400  0.41171400  0.39896400  1
  O  1693  1  0.99306792  0.42512100  0.38403800  1
  O  1694  1  0.12992500  0.42567900  0.33349700  1
  O  1709  1  0.16733800  0.92475650  0.64998500  1
  O  1710  1  0.03006600  0.92585150  0.59986800  1
  O  1711  1  0.99188492  0.91208450  0.61479200  1
  O  1712  1  0.12953100  0.91096850  0.66503400  1
  O  1727  1  0.02852600  0.41190400  0.66557200  1
  O  1728  1  0.16869100  0.41107600  0.61628100  1
  O  1729  1  0.13142900  0.42489900  0.60105400  1
  O  1730  1  0.99185092  0.42574800  0.65015100  1
  O  1745  1  0.02762400  0.92485250  0.33293000  1
  O  1746  1  0.16720400  0.92655350  0.38243400  1
  O  1747  1  0.12979500  0.91288950  0.39766900  1
  O  1748  1  0.99073892  0.91115650  0.34833600  1
  O  1763  1  0.40838300  0.64595800  0.73185400  1
  O  1764  1  0.27171000  0.72577400  0.75734700  1
  O  1765  1  0.24730300  0.69412000  0.76775700  1
  O  1766  1  0.38397800  0.61437900  0.74232900  1
  O  1781  1  0.40835100  0.69301000  0.26698300  1
  O  1782  1  0.27174400  0.61307500  0.24133100  1
  O  1783  1  0.24752100  0.64468200  0.23085800  1
  O  1784  1  0.38414900  0.72456100  0.25645200  1
  O  1799  1  0.74999200  0.14667700  0.26700900  1
  O  1800  1  0.88713500  0.22620100  0.24146300  1
  O  1801  1  0.91129290  0.19454100  0.23101100  1
  O  1802  1  0.77406400  0.11502400  0.25652500  1
  O  1817  1  0.75004900  0.19211600  0.73147900  1
  O  1818  1  0.88698800  0.11307600  0.75740800  1
  O  1819  1  0.91101190  0.14486700  0.76782600  1
  O  1820  1  0.77400800  0.22389600  0.74192400  1
  O  2459  1  0.27322600  0.56315000  0.98843400  1
  O  2460  1  0.44259700  0.62502900  0.00955300  1
  O  2461  1  0.45524900  0.58577400  0.00613100  1
  O  2462  1  0.26150400  0.60242900  0.99223300  1
  O  2477  1  0.37566000  0.06352400  0.01007400  1
  O  2478  1  0.20551900  0.12440100  0.98929900  1
  O  2479  1  0.19321200  0.08508000  0.99275900  1
  O  2480  1  0.38704200  0.10285600  0.00622000  1
  O  2495  1  0.77348300  0.06239400  0.48851700  1
  O  2496  1  0.94274480  0.12457700  0.50951000  1
  O  2497  1  0.95547780  0.08532500  0.50612500  1
  O  2498  1  0.76166700  0.10167000  0.49228200  1
  O  2513  1  0.87546400  0.56299700  0.51018700  1
  O  2514  1  0.70554700  0.62397700  0.48921300  1
  O  2515  1  0.69318900  0.58467100  0.49268900  1
  O  2516  1  0.88695700  0.60231100  0.50632500  1
  O  2531  1  0.41229000  0.83311700  0.84860400  1
  O  2532  1  0.27589700  0.83238700  0.89909300  1
  O  2533  1  0.23741400  0.84571100  0.88418300  1
  O  2534  1  0.37414500  0.84649200  0.83358500  1
  O  2549  1  0.41166800  0.34517200  0.14987200  1
  O  2550  1  0.27454300  0.34648400  0.09970100  1
  O  2551  1  0.23625900  0.33280400  0.11461000  1
  O  2552  1  0.37377500  0.33146500  0.16491200  1
  O  2567  1  0.27273600  0.83229600  0.16574100  1
  O  2568  1  0.41279400  0.83193800  0.11639800  1
  O  2569  1  0.37546200  0.84579800  0.10120700  1
  O  2570  1  0.23597900  0.84616800  0.15035600  1
  O  2585  1  0.27190500  0.34576000  0.83279600  1
  O  2586  1  0.41138300  0.34701000  0.88235300  1
  O  2587  1  0.37390600  0.33333333  0.89755300  1
  O  2588  1  0.23494400  0.33204200  0.84816900  1
  O  2603  1  0.91265180  0.33247400  0.34852600  1
  O  2604  1  0.77611900  0.33195800  0.39896400  1
  O  2605  1  0.73773300  0.34536500  0.38403800  1
  O  2606  1  0.87459000  0.34592300  0.33349700  1
  O  2621  1  0.91200280  0.84500100  0.64998500  1
  O  2622  1  0.77473100  0.84609600  0.59986800  1
  O  2623  1  0.73655000  0.83232900  0.61479200  1
  O  2624  1  0.87419600  0.83121300  0.66503400  1
  O  2639  1  0.77319100  0.33214800  0.66557200  1
  O  2640  1  0.91335580  0.33132000  0.61628100  1
  O  2641  1  0.87609400  0.34514300  0.60105400  1
  O  2642  1  0.73651600  0.34599200  0.65015100  1
  O  2657  1  0.77228900  0.84509700  0.33293000  1
  O  2658  1  0.91186880  0.84679800  0.38243400  1
  O  2659  1  0.87446000  0.83313400  0.39766900  1
  O  2660  1  0.73540400  0.83140100  0.34833600  1
  O  2675  1  0.15304800  0.56620200  0.73185400  1
  O  2676  1  0.01637500  0.64601800  0.75734700  1
  O  2677  1  0.99196783  0.61436400  0.76775700  1
  O  2678  1  0.12864300  0.53462300  0.74232900  1
  O  2693  1  0.15301600  0.61325400  0.26698300  1
  O  2694  1  0.01640900  0.53331900  0.24133100  1
  O  2695  1  0.99218583  0.56492600  0.23085800  1
  O  2696  1  0.12881400  0.64480500  0.25645200  1
  O  2711  1  0.49465700  0.06692100  0.26700900  1
  O  2712  1  0.63180000  0.14644500  0.24146300  1
  O  2713  1  0.65595800  0.11478500  0.23101100  1
  O  2714  1  0.51872900  0.03526800  0.25652500  1
  O  2729  1  0.49471400  0.11236000  0.73147900  1
  O  2730  1  0.63165300  0.03332000  0.75740800  1
  O  2731  1  0.65567700  0.06511100  0.76782600  1
  O  2732  1  0.51867300  0.14414000  0.74192400  1
