# generated using pymatgen
data_H16C37N8
_symmetry_space_group_name_H-M   'P 1'
_cell_length_a   63.00585000
_cell_length_b   63.00580000
_cell_length_c   64.67870000
_cell_angle_alpha   90.00000000
_cell_angle_beta   90.00000000
_cell_angle_gamma   119.99992125
_symmetry_Int_Tables_number   1
_chemical_formula_structural   H16C37N8
_chemical_formula_sum   'H1152 C2664 N576'
_cell_volume   222358.46321113
_cell_formula_units_Z   72
loop_
 _symmetry_equiv_pos_site_id
 _symmetry_equiv_pos_as_xyz
  1  'x, y, z'
loop_
 _atom_site_type_symbol
 _atom_site_label
 _atom_site_symmetry_multiplicity
 _atom_site_fract_x
 _atom_site_fract_y
 _atom_site_fract_z
 _atom_site_occupancy
  H  26  1  0.98362300  0.27763000  0.87281800  1
  H  27  1  0.96990200  0.24094800  0.89135000  1
  H  28  1  0.05292400  0.30697000  0.90156300  1
  H  29  1  0.04029400  0.26922100  0.91759200  1
  H  30  1  0.03355600  0.23827800  0.94699700  1
  H  31  1  0.03489900  0.24936000  0.98183400  1
  H  32  1  0.96736200  0.24752300  0.97476200  1
  H  33  1  0.96657800  0.23734500  0.93929700  1
  H  34  1  0.95794300  0.19162200  0.94128900  1
  H  35  1  0.92003000  0.15810400  0.93143000  1
  H  36  1  0.94071400  0.17194400  0.86867000  1
  H  37  1  0.97882900  0.20664300  0.87860200  1
  H  38  1  0.03154800  0.23682700  0.88502800  1
  H  39  1  0.00062600  0.18938000  0.93612600  1
  H  40  1  0.03010300  0.17665700  0.93243800  1
  H  41  1  0.06154100  0.22494700  0.88195700  1
  H  67  1  0.28085800  0.01789400  0.87291000  1
  H  68  1  0.25786100  0.03160600  0.89139700  1
  H  69  1  0.24073500  0.94853200  0.90151900  1
  H  70  1  0.21558800  0.96116100  0.91750100  1
  H  71  1  0.19132600  0.96784900  0.94683700  1
  H  72  1  0.20093800  0.96637700  0.98168400  1
  H  73  1  0.26667800  0.03392600  0.97483300  1
  H  74  1  0.25740600  0.03483600  0.93935600  1
  H  75  1  0.22035900  0.04352800  0.94122100  1
  H  76  1  0.22475400  0.08144300  0.93136400  1
  H  77  1  0.21809200  0.06083000  0.86859600  1
  H  78  1  0.21466300  0.02271400  0.87853200  1
  H  79  1  0.19203900  0.96996800  0.88493400  1
  H  80  1  0.17545700  0.00087400  0.93601100  1
  H  81  1  0.13327100  0.97137600  0.93231400  1
  H  82  1  0.15017800  0.93995900  0.88185100  1
  H  108  1  0.72385500  0.72069500  0.87292600  1
  H  109  1  0.76058600  0.74369500  0.89137600  1
  H  110  1  0.69463300  0.76078400  0.90162800  1
  H  111  1  0.73243200  0.78594300  0.91756100  1
  H  112  1  0.76340600  0.81019600  0.94685900  1
  H  113  1  0.75223800  0.80050300  0.98168200  1
  H  114  1  0.75410900  0.73479900  0.97477100  1
  H  115  1  0.76436400  0.74414900  0.93931900  1
  H  116  1  0.81010400  0.78120400  0.94112200  1
  H  117  1  0.84360900  0.77682000  0.93117700  1
  H  118  1  0.82951000  0.78350300  0.86845200  1
  H  119  1  0.79484100  0.78692000  0.87847600  1
  H  120  1  0.76475100  0.80948500  0.88493400  1
  H  121  1  0.81229100  0.82611700  0.93597700  1
  H  122  1  0.82495900  0.86829900  0.93226700  1
  H  123  1  0.77659900  0.85135100  0.88182600  1
  H  149  1  0.71094800  0.73206400  0.17859000  1
  H  150  1  0.73375700  0.76869400  0.15996900  1
  H  151  1  0.74939300  0.70197000  0.14840600  1
  H  152  1  0.77440500  0.73966900  0.13215500  1
  H  153  1  0.79853800  0.77167400  0.10196500  1
  H  154  1  0.78835100  0.76295900  0.06666300  1
  H  155  1  0.72200600  0.76261700  0.07682100  1
  H  156  1  0.73223300  0.77142300  0.11253300  1
  H  157  1  0.77033600  0.81766500  0.10921200  1
  H  158  1  0.76637700  0.85138200  0.11917200  1
  H  159  1  0.77403500  0.83779100  0.18182300  1
  H  160  1  0.77708400  0.80290500  0.17178300  1
  H  161  1  0.79900600  0.77211600  0.16483300  1
  H  162  1  0.81500500  0.81950200  0.11376800  1
  H  163  1  0.85727900  0.83247300  0.11730000  1
  H  164  1  0.84096000  0.78429800  0.16778000  1
  H  190  1  0.26853300  0.99364200  0.17871900  1
  H  191  1  0.23196100  0.97985400  0.16001200  1
  H  192  1  0.29876100  0.06220400  0.14856200  1
  H  193  1  0.26111900  0.04954700  0.13220400  1
  H  194  1  0.22917800  0.04167500  0.10189900  1
  H  195  1  0.23802700  0.04021300  0.06662800  1
  H  196  1  0.23842900  0.97425900  0.07690500  1
  H  197  1  0.22947000  0.97566000  0.11257800  1
  H  198  1  0.18322800  0.96749100  0.10909500  1
  H  199  1  0.14946400  0.92981700  0.11898200  1
  H  200  1  0.16277700  0.95103100  0.18165300  1
  H  201  1  0.19771300  0.98896700  0.17169200  1
  H  202  1  0.22855500  0.04168200  0.16479100  1
  H  203  1  0.18132500  0.01032700  0.11362600  1
  H  204  1  0.16828900  0.03957700  0.11713700  1
  H  205  1  0.21631800  0.07141000  0.16771200  1
  H  231  1  0.00700300  0.28959300  0.17872500  1
  H  232  1  0.02083100  0.26682600  0.16004200  1
  H  233  1  0.93850500  0.25129200  0.14846100  1
  H  234  1  0.95119900  0.22632400  0.13212200  1
  H  235  1  0.95914600  0.20232600  0.10182600  1
  H  236  1  0.96075100  0.21268700  0.06655500  1
  H  237  1  0.02674500  0.27895600  0.07698000  1
  H  238  1  0.02519200  0.26854900  0.11265500  1
  H  239  1  0.03321900  0.23034300  0.10916100  1
  H  240  1  0.07086600  0.23422400  0.11910100  1
  H  241  1  0.04961300  0.22647500  0.18175500  1
  H  242  1  0.01169900  0.22349200  0.17173700  1
  H  243  1  0.95901800  0.20162000  0.16477400  1
  H  244  1  0.99035100  0.18571200  0.11361400  1
  H  245  1  0.96106900  0.14343000  0.11712300  1
  H  246  1  0.92926400  0.15966400  0.16769300  1
  H  272  1  0.00869900  0.73281100  0.17675800  1
  H  273  1  0.02236000  0.76952900  0.15834100  1
  H  274  1  0.93906900  0.70385900  0.14868100  1
  H  275  1  0.95166400  0.74170700  0.13286900  1
  H  276  1  0.95830200  0.77270300  0.10352200  1
  H  277  1  0.95701000  0.76206400  0.06850600  1
  H  278  1  0.02462800  0.76399700  0.07524700  1
  H  279  1  0.02545100  0.77387500  0.11077500  1
  H  280  1  0.03309900  0.81989300  0.10880400  1
  H  281  1  0.07150300  0.85300600  0.11829700  1
  H  282  1  0.05287400  0.83790100  0.18133300  1
  H  283  1  0.01417500  0.80372500  0.17173300  1
  H  284  1  0.96161600  0.77408400  0.16619800  1
  H  285  1  0.99012500  0.82085400  0.11442400  1
  H  286  1  0.96073300  0.83350200  0.11929300  1
  H  287  1  0.93189300  0.78601200  0.17056600  1
  H  313  1  0.71005800  0.99200400  0.17676000  1
  H  314  1  0.73311600  0.97834100  0.15836000  1
  H  315  1  0.75071300  0.06161000  0.14863800  1
  H  316  1  0.77597700  0.04901700  0.13285700  1
  H  317  1  0.80045000  0.04239400  0.10358000  1
  H  318  1  0.79122700  0.04373900  0.06854800  1
  H  319  1  0.72547000  0.97616700  0.07514700  1
  H  320  1  0.73439800  0.97528500  0.11070700  1
  H  321  1  0.77258600  0.96749600  0.10883800  1
  H  322  1  0.76726200  0.92908500  0.11836200  1
  H  323  1  0.77099000  0.94785000  0.18138300  1
  H  324  1  0.77553700  0.98655100  0.17175500  1
  H  325  1  0.79846000  0.03916500  0.16615400  1
  H  326  1  0.81664100  0.01040400  0.11450900  1
  H  327  1  0.85869700  0.03973500  0.11936100  1
  H  328  1  0.84012800  0.06883300  0.17050300  1
  H  354  1  0.26785600  0.29061500  0.17686200  1
  H  355  1  0.23117100  0.26756900  0.15839100  1
  H  356  1  0.29686200  0.24995900  0.14883300  1
  H  357  1  0.25904800  0.22472300  0.13297000  1
  H  358  1  0.22809100  0.20038400  0.10356900  1
  H  359  1  0.23883100  0.20975800  0.06857900  1
  H  360  1  0.23693200  0.27546200  0.07528100  1
  H  361  1  0.22695100  0.26637700  0.11080500  1
  H  362  1  0.18096700  0.22809700  0.10878100  1
  H  363  1  0.14780100  0.23331800  0.11823800  1
  H  364  1  0.16269100  0.22955400  0.18128800  1
  H  365  1  0.19693000  0.22511600  0.17173000  1
  H  366  1  0.22659600  0.20221500  0.16620300  1
  H  367  1  0.17990900  0.18409500  0.11438500  1
  H  368  1  0.16717300  0.14203900  0.11922800  1
  H  369  1  0.21459000  0.16054700  0.17054000  1
  H  395  1  0.28160600  0.27867100  0.87224300  1
  H  396  1  0.25870000  0.24205900  0.89083100  1
  H  397  1  0.24210900  0.30829700  0.90136500  1
  H  398  1  0.21697000  0.27054400  0.91745800  1
  H  399  1  0.19269000  0.23864800  0.94763000  1
  H  400  1  0.20227900  0.24707000  0.98308200  1
  H  401  1  0.26875300  0.24742200  0.97373500  1
  H  402  1  0.25907000  0.23878900  0.93793700  1
  H  403  1  0.21977000  0.19226100  0.94126800  1
  H  404  1  0.22470900  0.15893100  0.93189200  1
  H  405  1  0.22049600  0.17341400  0.86881800  1
  H  406  1  0.21625200  0.20779700  0.87830200  1
  H  407  1  0.19369700  0.23791600  0.88412200  1
  H  408  1  0.17608300  0.19149000  0.93607100  1
  H  409  1  0.13394200  0.17844600  0.93131500  1
  H  410  1  0.15193400  0.22552900  0.87982700  1
  H  436  1  0.72283100  0.01763400  0.87217400  1
  H  437  1  0.75944600  0.03136400  0.89076000  1
  H  438  1  0.69324700  0.94851300  0.90129900  1
  H  439  1  0.73100900  0.96115300  0.91738400  1
  H  440  1  0.76293300  0.96878800  0.94754600  1
  H  441  1  0.75443700  0.96990300  0.98299100  1
  H  442  1  0.75395800  0.03596700  0.97364400  1
  H  443  1  0.76268200  0.03497900  0.93786300  1
  H  444  1  0.80925200  0.04228900  0.94117800  1
  H  445  1  0.84253600  0.08058200  0.93178700  1
  H  446  1  0.82805900  0.06184400  0.86872000  1
  H  447  1  0.79372300  0.02319000  0.87821800  1
  H  448  1  0.76363700  0.97053500  0.88403700  1
  H  449  1  0.81008700  0.99938000  0.93596800  1
  H  450  1  0.82317000  0.97031100  0.93119900  1
  H  451  1  0.77605900  0.94118200  0.87972400  1
  H  477  1  0.98378600  0.71987100  0.87216700  1
  H  478  1  0.97008200  0.74278600  0.89074300  1
  H  479  1  0.05283300  0.75921000  0.90144000  1
  H  480  1  0.04023300  0.78436700  0.91751800  1
  H  481  1  0.03257700  0.80864000  0.94769400  1
  H  482  1  0.03124700  0.79895700  0.98314900  1
  H  483  1  0.96510200  0.73256400  0.97359900  1
  H  484  1  0.96630100  0.74234200  0.93781700  1
  H  485  1  0.95918700  0.78175800  0.94116200  1
  H  486  1  0.92096300  0.77688400  0.93170600  1
  H  487  1  0.93979800  0.78106800  0.86866800  1
  H  488  1  0.97838100  0.78525300  0.87823200  1
  H  489  1  0.03098400  0.80770100  0.88412000  1
  H  490  1  0.00219900  0.82538400  0.93604600  1
  H  491  1  0.03133900  0.86751800  0.93128700  1
  H  492  1  0.06040300  0.84946900  0.87981400  1
  H  518  1  0.31752800  0.94452400  0.53956100  1
  H  519  1  0.30378800  0.90785500  0.55813100  1
  H  520  1  0.38675700  0.97395200  0.56843400  1
  H  521  1  0.37410600  0.93622800  0.58454200  1
  H  522  1  0.36725900  0.90536600  0.61406300  1
  H  523  1  0.36843400  0.91661500  0.64883800  1
  H  524  1  0.30078100  0.91443900  0.64137000  1
  H  525  1  0.30019100  0.90414100  0.60598600  1
  H  526  1  0.29179600  0.85843600  0.60809000  1
  H  527  1  0.25395200  0.82486600  0.59814900  1
  H  528  1  0.27476800  0.83891200  0.53543000  1
  H  529  1  0.31281800  0.87364300  0.54544800  1
  H  530  1  0.36537800  0.90378900  0.55191900  1
  H  531  1  0.33468100  0.85651700  0.60314900  1
  H  532  1  0.36419100  0.84385000  0.59944500  1
  H  533  1  0.39541200  0.89196100  0.54883000  1
  H  559  1  0.61457100  0.68476200  0.53957300  1
  H  560  1  0.59166600  0.69853300  0.55812500  1
  H  561  1  0.57477800  0.61557400  0.56851800  1
  H  562  1  0.54971000  0.62824900  0.58459300  1
  H  563  1  0.52554900  0.63506200  0.61399800  1
  H  564  1  0.53549000  0.63382000  0.64879600  1
  H  565  1  0.60106600  0.70141800  0.64148000  1
  H  566  1  0.59148500  0.70207900  0.60606700  1
  H  567  1  0.55430200  0.71061700  0.60805000  1
  H  568  1  0.55863100  0.74847600  0.59807600  1
  H  569  1  0.55179800  0.72757700  0.53537400  1
  H  570  1  0.54843400  0.68952000  0.54542500  1
  H  571  1  0.52601600  0.63690800  0.55193400  1
  H  572  1  0.50940200  0.66776700  0.60302700  1
  H  573  1  0.46722600  0.63822300  0.59933800  1
  H  574  1  0.48415700  0.60685600  0.54886400  1
  H  600  1  0.05782900  0.38778400  0.53943300  1
  H  601  1  0.09448600  0.41068900  0.55801100  1
  H  602  1  0.02841600  0.42760300  0.56830100  1
  H  603  1  0.06613600  0.45265700  0.58442100  1
  H  604  1  0.09703500  0.47671900  0.61392200  1
  H  605  1  0.08574000  0.46667900  0.64869300  1
  H  606  1  0.08772500  0.40109600  0.64128800  1
  H  607  1  0.09808900  0.41078100  0.60590900  1
  H  608  1  0.14382200  0.44797300  0.60800800  1
  H  609  1  0.17737400  0.44365600  0.59808900  1
  H  610  1  0.16347900  0.45061000  0.53536800  1
  H  611  1  0.12875800  0.45395600  0.54536200  1
  H  612  1  0.09855900  0.47637900  0.55184300  1
  H  613  1  0.14590900  0.49287600  0.60300400  1
  H  614  1  0.15860400  0.53508000  0.59933600  1
  H  615  1  0.11040500  0.51824100  0.54879600  1
  H  641  1  0.04667300  0.39916500  0.84618300  1
  H  642  1  0.06795100  0.43517400  0.82590900  1
  H  643  1  0.08740800  0.37047600  0.81798500  1
  H  644  1  0.11049000  0.40734700  0.79966800  1
  H  645  1  0.13222600  0.43743300  0.76837800  1
  H  646  1  0.12149700  0.42806700  0.73322000  1
  H  647  1  0.05542300  0.42811700  0.74373000  1
  H  648  1  0.06611700  0.43744200  0.77930400  1
  H  649  1  0.10423800  0.48367600  0.77480200  1
  H  650  1  0.09999000  0.51742900  0.78409900  1
  H  651  1  0.10784300  0.50520500  0.84706200  1
  H  652  1  0.11128700  0.47037300  0.83769500  1
  H  653  1  0.13483600  0.44171400  0.83156600  1
  H  654  1  0.14856200  0.48564800  0.77843700  1
  H  655  1  0.19109600  0.49951400  0.78144700  1
  H  656  1  0.17698800  0.45469900  0.83402000  1
  H  682  1  0.60233500  0.66224100  0.84631600  1
  H  683  1  0.56634500  0.64750600  0.82601100  1
  H  684  1  0.63103900  0.73167200  0.81812600  1
  H  685  1  0.59418500  0.71788000  0.79978300  1
  H  686  1  0.56417100  0.70950000  0.76842100  1
  H  687  1  0.57369200  0.70816600  0.73330000  1
  H  688  1  0.57367800  0.64207200  0.74392200  1
  H  689  1  0.56419100  0.64342700  0.77946700  1
  H  690  1  0.51792800  0.63527600  0.77485300  1
  H  691  1  0.48415700  0.59727800  0.78413400  1
  H  692  1  0.49627200  0.61738600  0.84709400  1
  H  693  1  0.53111800  0.65565300  0.83774600  1
  H  694  1  0.55975300  0.70782600  0.83162600  1
  H  695  1  0.51595600  0.67765200  0.77842200  1
  H  696  1  0.50203900  0.70627900  0.78141200  1
  H  697  1  0.54672000  0.73695700  0.83405800  1
  H  723  1  0.33928300  0.95482300  0.84628500  1
  H  724  1  0.35405200  0.93356800  0.82602300  1
  H  725  1  0.26994800  0.91420800  0.81791700  1
  H  726  1  0.28376500  0.89114200  0.79961300  1
  H  727  1  0.29223400  0.86949600  0.76827600  1
  H  728  1  0.29373100  0.88040400  0.73315300  1
  H  729  1  0.35979900  0.94645700  0.74396800  1
  H  730  1  0.35828000  0.93555100  0.77950700  1
  H  731  1  0.36635200  0.89733700  0.77488400  1
  H  732  1  0.40432000  0.90153400  0.78422900  1
  H  733  1  0.38410500  0.89358000  0.84716000  1
  H  734  1  0.34587000  0.89019900  0.83774400  1
  H  735  1  0.29373500  0.86673800  0.83155700  1
  H  736  1  0.32388800  0.85303800  0.77837500  1
  H  737  1  0.29518700  0.81051300  0.78135600  1
  H  738  1  0.26455100  0.82459900  0.83398600  1
  H  764  1  0.34067700  0.39967900  0.84466800  1
  H  765  1  0.35534100  0.43577100  0.82451300  1
  H  766  1  0.27044300  0.37229300  0.81836700  1
  H  767  1  0.28419600  0.40932400  0.80039000  1
  H  768  1  0.29137100  0.43890600  0.77002800  1
  H  769  1  0.28992000  0.42788600  0.73508000  1
  H  770  1  0.35708900  0.42894500  0.74208500  1
  H  771  1  0.35805400  0.43920300  0.77753700  1
  H  772  1  0.36630200  0.48551300  0.77441400  1
  H  773  1  0.40502900  0.51860900  0.78319900  1
  H  774  1  0.38739000  0.50534600  0.84653400  1
  H  775  1  0.34837000  0.47121400  0.83766500  1
  H  776  1  0.29622100  0.44351600  0.83295300  1
  H  777  1  0.32390400  0.48717600  0.77935900  1
  H  778  1  0.29525900  0.50086700  0.78372000  1
  H  779  1  0.26721100  0.45642000  0.83683000  1
  H  805  1  0.04570600  0.66072300  0.84461800  1
  H  806  1  0.06717800  0.64611700  0.82444800  1
  H  807  1  0.08858700  0.73102700  0.81844700  1
  H  808  1  0.11190000  0.71732900  0.80045700  1
  H  809  1  0.13437400  0.71026200  0.77011900  1
  H  810  1  0.12491400  0.71179600  0.73515700  1
  H  811  1  0.05882300  0.64457200  0.74196800  1
  H  812  1  0.06800500  0.64351700  0.77744000  1
  H  813  1  0.10600900  0.63524000  0.77438600  1
  H  814  1  0.10037100  0.59650400  0.78316000  1
  H  815  1  0.10472000  0.61411200  0.84650200  1
  H  816  1  0.10961200  0.65313600  0.83764500  1
  H  817  1  0.13404900  0.70529800  0.83297600  1
  H  818  1  0.15008700  0.67764900  0.77939100  1
  H  819  1  0.19240700  0.70637000  0.78372800  1
  H  820  1  0.17596300  0.73438500  0.83683500  1
  H  846  1  0.60181400  0.95567500  0.84465100  1
  H  847  1  0.56571100  0.93424100  0.82450800  1
  H  848  1  0.62918000  0.91280700  0.81835700  1
  H  849  1  0.59214300  0.88952200  0.80039300  1
  H  850  1  0.56256000  0.86710700  0.77005900  1
  H  851  1  0.57366900  0.87669100  0.73513100  1
  H  852  1  0.57258100  0.94279200  0.74207400  1
  H  853  1  0.56224000  0.93348800  0.77751600  1
  H  854  1  0.51595300  0.89552900  0.77446700  1
  H  855  1  0.48287600  0.90117300  0.78332100  1
  H  856  1  0.49621300  0.89671100  0.84663000  1
  H  857  1  0.53031500  0.89180400  0.83769300  1
  H  858  1  0.55798600  0.86736000  0.83294500  1
  H  859  1  0.51424100  0.85138400  0.77939600  1
  H  860  1  0.50052700  0.80905300  0.78376000  1
  H  861  1  0.54505000  0.82542800  0.83681800  1
  H  887  1  0.61541200  0.94561300  0.53879700  1
  H  888  1  0.59255600  0.90900600  0.55739500  1
  H  889  1  0.57607500  0.97529500  0.56810700  1
  H  890  1  0.55097900  0.93754300  0.58423700  1
  H  891  1  0.52657800  0.90543700  0.61440900  1
  H  892  1  0.53620500  0.91379000  0.64986900  1
  H  893  1  0.60283100  0.91451100  0.64034200  1
  H  894  1  0.59308800  0.90588600  0.60456200  1
  H  895  1  0.55387500  0.85926700  0.60791600  1
  H  896  1  0.55880300  0.82594700  0.59848600  1
  H  897  1  0.55433500  0.84037400  0.53544200  1
  H  898  1  0.55009600  0.87474600  0.54497700  1
  H  899  1  0.52762700  0.90498100  0.55087100  1
  H  900  1  0.51001900  0.85835100  0.60268100  1
  H  901  1  0.46788000  0.84532400  0.59795900  1
  H  902  1  0.48585100  0.89260500  0.54661400  1
  H  928  1  0.05676600  0.68455500  0.53873800  1
  H  929  1  0.09335500  0.69828000  0.55735700  1
  H  930  1  0.02702000  0.61553100  0.56804900  1
  H  931  1  0.06475300  0.62816400  0.58420800  1
  H  932  1  0.09681800  0.63587600  0.61444500  1
  H  933  1  0.08834100  0.63714300  0.64987700  1
  H  934  1  0.08758900  0.70301100  0.64024000  1
  H  935  1  0.09636000  0.70191500  0.60449600  1
  H  936  1  0.14299800  0.70930100  0.60795600  1
  H  937  1  0.17635000  0.74754200  0.59856300  1
  H  938  1  0.16205300  0.72868000  0.53550700  1
  H  939  1  0.12764500  0.69007300  0.54500200  1
  H  940  1  0.09735200  0.63737000  0.55087500  1
  H  941  1  0.14391000  0.66636000  0.60272700  1
  H  942  1  0.15694300  0.63723800  0.59802200  1
  H  943  1  0.10972600  0.60797200  0.54663400  1
  H  969  1  0.31779400  0.38691800  0.53874100  1
  H  970  1  0.30403900  0.40976000  0.55736900  1
  H  971  1  0.38678000  0.42616600  0.56811600  1
  H  972  1  0.37411800  0.45123700  0.58429400  1
  H  973  1  0.36631700  0.47549400  0.61456900  1
  H  974  1  0.36486400  0.46569700  0.65000700  1
  H  975  1  0.29892900  0.39919900  0.64020600  1
  H  976  1  0.30021200  0.40910400  0.60444800  1
  H  977  1  0.29300400  0.44846400  0.60792200  1
  H  978  1  0.25477800  0.44358200  0.59847800  1
  H  979  1  0.27369500  0.44804700  0.53544100  1
  H  980  1  0.31229200  0.45224900  0.54498900  1
  H  981  1  0.36493300  0.47465500  0.55092300  1
  H  982  1  0.33599100  0.49222100  0.60280700  1
  H  983  1  0.36514000  0.53437200  0.59812100  1
  H  984  1  0.39435800  0.51641400  0.54669500  1
  H  1010  1  0.65153700  0.61050800  0.20513100  1
  H  1011  1  0.63690700  0.57449400  0.22539300  1
  H  1012  1  0.72155100  0.63847500  0.23202200  1
  H  1013  1  0.70783800  0.60158700  0.25022100  1
  H  1014  1  0.70056400  0.57235800  0.28077100  1
  H  1015  1  0.70195100  0.58403200  0.31546700  1
  H  1016  1  0.63453500  0.58231700  0.30788800  1
  H  1017  1  0.63373800  0.57158400  0.27257200  1
  H  1018  1  0.62490900  0.52570700  0.27576900  1
  H  1019  1  0.58669900  0.49215700  0.26652500  1
  H  1020  1  0.60644300  0.50451600  0.20350000  1
  H  1021  1  0.64486600  0.53915400  0.21280400  1
  H  1022  1  0.69704800  0.56731100  0.21846400  1
  H  1023  1  0.66719900  0.52323700  0.27157600  1
  H  1024  1  0.69607600  0.50965600  0.26845300  1
  H  1025  1  0.72646700  0.55464400  0.21592700  1
  H  1051  1  0.94490000  0.34906700  0.20512900  1
  H  1052  1  0.92352600  0.36375600  0.22533200  1
  H  1053  1  0.90288200  0.27913900  0.23217800  1
  H  1054  1  0.87971600  0.29290700  0.25032000  1
  H  1055  1  0.85793900  0.30034300  0.28092200  1
  H  1056  1  0.86848400  0.29909600  0.31557100  1
  H  1057  1  0.93408500  0.36653200  0.30764200  1
  H  1058  1  0.92389700  0.36716900  0.27239100  1
  H  1059  1  0.88665200  0.37583300  0.27568100  1
  H  1060  1  0.89124700  0.41400000  0.26637500  1
  H  1061  1  0.88398300  0.39417600  0.20337400  1
  H  1062  1  0.88025200  0.35579300  0.21275000  1
  H  1063  1  0.85624100  0.30371200  0.21847400  1
  H  1064  1  0.84202000  0.33344100  0.27166900  1
  H  1065  1  0.79956600  0.30455800  0.26853500  1
  H  1066  1  0.81416500  0.27430000  0.21591800  1
  H  1092  1  0.39006600  0.05568200  0.20528400  1
  H  1093  1  0.42613500  0.07707700  0.22547600  1
  H  1094  1  0.36216300  0.09772700  0.23229300  1
  H  1095  1  0.39910500  0.12091900  0.25041300  1
  H  1096  1  0.42844100  0.14293300  0.28087900  1
  H  1097  1  0.41694700  0.13270200  0.31562000  1
  H  1098  1  0.41869600  0.06701900  0.30797600  1
  H  1099  1  0.42923400  0.07689500  0.27264000  1
  H  1100  1  0.47516500  0.11411900  0.27576900  1
  H  1101  1  0.50869300  0.10944800  0.26649000  1
  H  1102  1  0.49603600  0.11646200  0.20346300  1
  H  1103  1  0.46142700  0.12027700  0.21281500  1
  H  1104  1  0.43329000  0.14431300  0.21848800  1
  H  1105  1  0.47746800  0.15874800  0.27155800  1
  H  1106  1  0.49094900  0.20117500  0.26837100  1
  H  1107  1  0.44587600  0.18637600  0.21587500  1
  H  1133  1  0.38059800  0.06609300  0.51302800  1
  H  1134  1  0.40182300  0.10209200  0.49272900  1
  H  1135  1  0.42114200  0.03731600  0.48462900  1
  H  1136  1  0.44415100  0.07416200  0.46624900  1
  H  1137  1  0.46578200  0.10435900  0.43478000  1
  H  1138  1  0.45473000  0.09489200  0.39967100  1
  H  1139  1  0.38854500  0.09454600  0.41076000  1
  H  1140  1  0.39962600  0.10407300  0.44624300  1
  H  1141  1  0.43780600  0.15045800  0.44146700  1
  H  1142  1  0.43367800  0.18427600  0.45079400  1
  H  1143  1  0.44192700  0.17222200  0.51371000  1
  H  1144  1  0.44524300  0.13732500  0.50431900  1
  H  1145  1  0.46863700  0.10858100  0.49813100  1
  H  1146  1  0.48222100  0.15239100  0.44494600  1
  H  1147  1  0.52475500  0.16621800  0.44785700  1
  H  1148  1  0.51079500  0.12154600  0.50049700  1
  H  1174  1  0.93625100  0.32927500  0.51288300  1
  H  1175  1  0.90026500  0.31451000  0.49256900  1
  H  1176  1  0.96503500  0.39861400  0.48451600  1
  H  1177  1  0.92820200  0.38478500  0.46611900  1
  H  1178  1  0.89801100  0.37629500  0.43470100  1
  H  1179  1  0.90730000  0.37470000  0.39954400  1
  H  1180  1  0.90756600  0.30879100  0.41047000  1
  H  1181  1  0.89824900  0.31037300  0.44600600  1
  H  1182  1  0.85189500  0.30220700  0.44127700  1
  H  1183  1  0.81808600  0.26424300  0.45054700  1
  H  1184  1  0.83012500  0.28438100  0.51350000  1
  H  1185  1  0.86502400  0.32262100  0.50416100  1
  H  1186  1  0.89380100  0.37484500  0.49801600  1
  H  1187  1  0.84992500  0.34461900  0.44485600  1
  H  1188  1  0.83610000  0.37331400  0.44780000  1
  H  1189  1  0.88084000  0.40404200  0.50040300  1
  H  1215  1  0.67305000  0.62172500  0.51291500  1
  H  1216  1  0.68778100  0.60050800  0.49256400  1
  H  1217  1  0.60357400  0.58094500  0.48482000  1
  H  1218  1  0.61738400  0.55794600  0.46639000  1
  H  1219  1  0.62576000  0.53622700  0.43497200  1
  H  1220  1  0.62703400  0.54702000  0.39983500  1
  H  1221  1  0.69293800  0.61331100  0.41043200  1
  H  1222  1  0.69167400  0.60250200  0.44596100  1
  H  1223  1  0.70004000  0.56451000  0.44129500  1
  H  1224  1  0.73804500  0.56870900  0.45049400  1
  H  1225  1  0.71802200  0.56055100  0.51347800  1
  H  1226  1  0.67974100  0.55715000  0.50421200  1
  H  1227  1  0.62747400  0.53355700  0.49815900  1
  H  1228  1  0.65773100  0.52002200  0.44495900  1
  H  1229  1  0.62910100  0.47748200  0.44789400  1
  H  1230  1  0.59833600  0.49137800  0.50053100  1
  H  1256  1  0.67461400  0.06672500  0.51133400  1
  H  1257  1  0.68926200  0.10275700  0.49109200  1
  H  1258  1  0.60435900  0.03924300  0.48505100  1
  H  1259  1  0.61811100  0.07619900  0.46694500  1
  H  1260  1  0.62531900  0.10555500  0.43642800  1
  H  1261  1  0.62396200  0.09435100  0.40153900  1
  H  1262  1  0.69128200  0.09579100  0.40879900  1
  H  1263  1  0.69214500  0.10621200  0.44418800  1
  H  1264  1  0.70017800  0.15246700  0.44092600  1
  H  1265  1  0.73888500  0.18559900  0.44972900  1
  H  1266  1  0.72121300  0.17229500  0.51305900  1
  H  1267  1  0.68221000  0.13814600  0.50416900  1
  H  1268  1  0.63016800  0.11050500  0.49945000  1
  H  1269  1  0.65764100  0.15388900  0.44568900  1
  H  1270  1  0.62890000  0.16748900  0.44997800  1
  H  1271  1  0.60106600  0.12330700  0.50325200  1
  H  1297  1  0.37975100  0.32774800  0.51138800  1
  H  1298  1  0.40112100  0.31306300  0.49116800  1
  H  1299  1  0.42239700  0.39791700  0.48491800  1
  H  1300  1  0.44558800  0.38413600  0.46682800  1
  H  1301  1  0.46758100  0.37675800  0.43621800  1
  H  1302  1  0.45747600  0.37791500  0.40136500  1
  H  1303  1  0.39171100  0.31058500  0.40901100  1
  H  1304  1  0.40150900  0.30992300  0.44436100  1
  H  1305  1  0.43983000  0.30203700  0.44098400  1
  H  1306  1  0.43430600  0.26336700  0.44986800  1
  H  1307  1  0.43880500  0.28123900  0.51316100  1
  H  1308  1  0.44361100  0.32020400  0.50419400  1
  H  1309  1  0.46794400  0.37216300  0.49935600  1
  H  1310  1  0.48374700  0.34465300  0.44556500  1
  H  1311  1  0.52610500  0.37333100  0.44984400  1
  H  1312  1  0.50985400  0.40120100  0.50315300  1
  H  1338  1  0.93564000  0.62268000  0.51126300  1
  H  1339  1  0.89961200  0.60130100  0.49100400  1
  H  1340  1  0.96316500  0.57996900  0.48493100  1
  H  1341  1  0.92622200  0.55677500  0.46680700  1
  H  1342  1  0.89684600  0.53465500  0.43622900  1
  H  1343  1  0.90790000  0.54451200  0.40131300  1
  H  1344  1  0.90644500  0.61036400  0.40872200  1
  H  1345  1  0.89617400  0.60079700  0.44414000  1
  H  1346  1  0.84993500  0.56245500  0.44076000  1
  H  1347  1  0.81676300  0.56798200  0.44950800  1
  H  1348  1  0.83000700  0.56368400  0.51286100  1
  H  1349  1  0.86420500  0.55888000  0.50403000  1
  H  1350  1  0.89188900  0.53448800  0.49932700  1
  H  1351  1  0.84857500  0.51857900  0.44552400  1
  H  1352  1  0.83495000  0.47624500  0.44983400  1
  H  1353  1  0.87907400  0.49259400  0.50314700  1
  H  1379  1  0.94596200  0.61172700  0.20429400  1
  H  1380  1  0.92470700  0.57574600  0.22461200  1
  H  1381  1  0.90433800  0.63989100  0.23168400  1
  H  1382  1  0.88126500  0.60300200  0.24998600  1
  H  1383  1  0.85931600  0.57272300  0.28140000  1
  H  1384  1  0.86966500  0.58185500  0.31668400  1
  H  1385  1  0.93624100  0.58268900  0.30648400  1
  H  1386  1  0.92580200  0.57336200  0.27088500  1
  H  1387  1  0.88659700  0.52659800  0.27565000  1
  H  1388  1  0.89175000  0.49321100  0.26693900  1
  H  1389  1  0.88669100  0.50594000  0.20359200  1
  H  1390  1  0.88218500  0.54033100  0.21239100  1
  H  1391  1  0.85816500  0.56845700  0.21743900  1
  H  1392  1  0.84291600  0.52543500  0.27135700  1
  H  1393  1  0.80048000  0.51144400  0.26719800  1
  H  1394  1  0.81616900  0.55520600  0.21373000  1
  H  1420  1  0.38891200  0.34899000  0.20448600  1
  H  1421  1  0.42491800  0.36371500  0.22476500  1
  H  1422  1  0.36080500  0.27918900  0.23184100  1
  H  1423  1  0.39772600  0.29300600  0.25009200  1
  H  1424  1  0.42808700  0.30125000  0.28136800  1
  H  1425  1  0.41919600  0.30244800  0.31671800  1
  H  1426  1  0.41841800  0.36826600  0.30678600  1
  H  1427  1  0.42747100  0.36715700  0.27111900  1
  H  1428  1  0.47423300  0.37470600  0.27568300  1
  H  1429  1  0.50754400  0.41328300  0.26695600  1
  H  1430  1  0.49461700  0.39558300  0.20360900  1
  H  1431  1  0.46029700  0.35664300  0.21242500  1
  H  1432  1  0.43215900  0.30443600  0.21746300  1
  H  1433  1  0.47541200  0.33224900  0.27125600  1
  H  1434  1  0.48936500  0.30378400  0.26702900  1
  H  1435  1  0.44536600  0.27565300  0.21368400  1
  H  1461  1  0.65164600  0.05465400  0.20443800  1
  H  1462  1  0.63698100  0.07593200  0.22479600  1
  H  1463  1  0.72159500  0.09651900  0.23149800  1
  H  1464  1  0.70782200  0.11960500  0.24983300  1
  H  1465  1  0.69972100  0.14172900  0.28116100  1
  H  1466  1  0.69881700  0.13169100  0.31649400  1
  H  1467  1  0.63300800  0.06500600  0.30684100  1
  H  1468  1  0.63381500  0.07511600  0.27119100  1
  H  1469  1  0.62605900  0.11411700  0.27575500  1
  H  1470  1  0.58745500  0.10884800  0.26711700  1
  H  1471  1  0.60506500  0.11381600  0.20373900  1
  H  1472  1  0.64402500  0.11843500  0.21245900  1
  H  1473  1  0.69625200  0.14256500  0.21737300  1
  H  1474  1  0.66845800  0.15788900  0.27123800  1
  H  1475  1  0.69687100  0.20031800  0.26703400  1
  H  1476  1  0.72499500  0.18458200  0.21362400  1
  H  2222  1  0.98362300  0.29350200  0.47083100  1
  H  2223  1  0.96990200  0.25682000  0.48936300  1
  H  2224  1  0.05292400  0.32284200  0.49957600  1
  H  2225  1  0.04029400  0.28509300  0.51560500  1
  H  2226  1  0.03355600  0.25415000  0.54501000  1
  H  2227  1  0.03489900  0.26523200  0.57984700  1
  H  2228  1  0.96736200  0.26339500  0.57277500  1
  H  2229  1  0.96657800  0.25321700  0.53731000  1
  H  2230  1  0.95794300  0.20749400  0.53930200  1
  H  2231  1  0.92003000  0.17397600  0.52944300  1
  H  2232  1  0.94071400  0.18781600  0.46668300  1
  H  2233  1  0.97882900  0.22251500  0.47661500  1
  H  2234  1  0.03154800  0.25269900  0.48304100  1
  H  2235  1  0.00062600  0.20525200  0.53413900  1
  H  2236  1  0.03010300  0.19252900  0.53045100  1
  H  2237  1  0.06154100  0.24081900  0.47997000  1
  H  2263  1  0.28085800  0.03376600  0.47092300  1
  H  2264  1  0.25786100  0.04747800  0.48941000  1
  H  2265  1  0.24073500  0.96440400  0.49953200  1
  H  2266  1  0.21558800  0.97703300  0.51551400  1
  H  2267  1  0.19132600  0.98372100  0.54485000  1
  H  2268  1  0.20093800  0.98224900  0.57969700  1
  H  2269  1  0.26667800  0.04979800  0.57284600  1
  H  2270  1  0.25740600  0.05070800  0.53736900  1
  H  2271  1  0.22035900  0.05940000  0.53923400  1
  H  2272  1  0.22475400  0.09731500  0.52937700  1
  H  2273  1  0.21809200  0.07670200  0.46660900  1
  H  2274  1  0.21466300  0.03858600  0.47654500  1
  H  2275  1  0.19203900  0.98584000  0.48294700  1
  H  2276  1  0.17545700  0.01674600  0.53402400  1
  H  2277  1  0.13327100  0.98724800  0.53032700  1
  H  2278  1  0.15017800  0.95583100  0.47986400  1
  H  2304  1  0.72385500  0.73656660  0.47093900  1
  H  2305  1  0.76058600  0.75956700  0.48938900  1
  H  2306  1  0.69463300  0.77665560  0.49964100  1
  H  2307  1  0.73243200  0.80181460  0.51557400  1
  H  2308  1  0.76340600  0.82606760  0.54487200  1
  H  2309  1  0.75223800  0.81637460  0.57969500  1
  H  2310  1  0.75410900  0.75067100  0.57278400  1
  H  2311  1  0.76436400  0.76002100  0.53733200  1
  H  2312  1  0.81010400  0.79707600  0.53913500  1
  H  2313  1  0.84360900  0.79269200  0.52919000  1
  H  2314  1  0.82951000  0.79937500  0.46646500  1
  H  2315  1  0.79484100  0.80279155  0.47648900  1
  H  2316  1  0.76475100  0.82535660  0.48294700  1
  H  2317  1  0.81229100  0.84198860  0.53399000  1
  H  2318  1  0.82495900  0.88417060  0.53028000  1
  H  2319  1  0.77659900  0.86722260  0.47983900  1
  H  2345  1  0.71094800  0.74793560  0.77660300  1
  H  2346  1  0.73375700  0.78456560  0.75798200  1
  H  2347  1  0.74939300  0.71784200  0.74641900  1
  H  2348  1  0.77440500  0.75554100  0.73016800  1
  H  2349  1  0.79853800  0.78754600  0.69997800  1
  H  2350  1  0.78835100  0.77883100  0.66467600  1
  H  2351  1  0.72200600  0.77848860  0.67483400  1
  H  2352  1  0.73223300  0.78729460  0.71054600  1
  H  2353  1  0.77033600  0.83353660  0.70722500  1
  H  2354  1  0.76637700  0.86725400  0.71718500  1
  H  2355  1  0.77403500  0.85366260  0.77983600  1
  H  2356  1  0.77708400  0.81877660  0.76979600  1
  H  2357  1  0.79900600  0.78798800  0.76284600  1
  H  2358  1  0.81500500  0.83537360  0.71178100  1
  H  2359  1  0.85727900  0.84834500  0.71531300  1
  H  2360  1  0.84096000  0.80017000  0.76579300  1
  H  2386  1  0.26853300  0.00951400  0.77673200  1
  H  2387  1  0.23196100  0.99572600  0.75802500  1
  H  2388  1  0.29876100  0.07807600  0.74657500  1
  H  2389  1  0.26111900  0.06541900  0.73021700  1
  H  2390  1  0.22917800  0.05754700  0.69991200  1
  H  2391  1  0.23802700  0.05608500  0.66464100  1
  H  2392  1  0.23842900  0.99013100  0.67491800  1
  H  2393  1  0.22947000  0.99153200  0.71059100  1
  H  2394  1  0.18322800  0.98336300  0.70710800  1
  H  2395  1  0.14946400  0.94568900  0.71699500  1
  H  2396  1  0.16277700  0.96690300  0.77966600  1
  H  2397  1  0.19771300  0.00483900  0.76970500  1
  H  2398  1  0.22855500  0.05755400  0.76280400  1
  H  2399  1  0.18132500  0.02619900  0.71163900  1
  H  2400  1  0.16828900  0.05544900  0.71515000  1
  H  2401  1  0.21631800  0.08728200  0.76572500  1
  H  2427  1  0.00700300  0.30546500  0.77673800  1
  H  2428  1  0.02083100  0.28269800  0.75805500  1
  H  2429  1  0.93850500  0.26716400  0.74647400  1
  H  2430  1  0.95119900  0.24219600  0.73013500  1
  H  2431  1  0.95914600  0.21819800  0.69983900  1
  H  2432  1  0.96075100  0.22855900  0.66456800  1
  H  2433  1  0.02674500  0.29482800  0.67499300  1
  H  2434  1  0.02519200  0.28442100  0.71066800  1
  H  2435  1  0.03321900  0.24621500  0.70717400  1
  H  2436  1  0.07086600  0.25009600  0.71711400  1
  H  2437  1  0.04961300  0.24234700  0.77976800  1
  H  2438  1  0.01169900  0.23936400  0.76975000  1
  H  2439  1  0.95901800  0.21749200  0.76278700  1
  H  2440  1  0.99035100  0.20158400  0.71162700  1
  H  2441  1  0.96106900  0.15930200  0.71513600  1
  H  2442  1  0.92926400  0.17553600  0.76570600  1
  H  2468  1  0.00869900  0.74868300  0.77477100  1
  H  2469  1  0.02236000  0.78540100  0.75635400  1
  H  2470  1  0.93906900  0.71973100  0.74669400  1
  H  2471  1  0.95166400  0.75757900  0.73088200  1
  H  2472  1  0.95830200  0.78857500  0.70153500  1
  H  2473  1  0.95701000  0.77793600  0.66651900  1
  H  2474  1  0.02462800  0.77986900  0.67326000  1
  H  2475  1  0.02545100  0.78974700  0.70878800  1
  H  2476  1  0.03309900  0.83576500  0.70681700  1
  H  2477  1  0.07150300  0.86887800  0.71631000  1
  H  2478  1  0.05287400  0.85377300  0.77934600  1
  H  2479  1  0.01417500  0.81959700  0.76974600  1
  H  2480  1  0.96161600  0.78995600  0.76421100  1
  H  2481  1  0.99012500  0.83672600  0.71243700  1
  H  2482  1  0.96073300  0.84937400  0.71730600  1
  H  2483  1  0.93189300  0.80188400  0.76857900  1
  H  2509  1  0.71005800  0.00787600  0.77477300  1
  H  2510  1  0.73311600  0.99421300  0.75637300  1
  H  2511  1  0.75071300  0.07748200  0.74665100  1
  H  2512  1  0.77597700  0.06488900  0.73087000  1
  H  2513  1  0.80045000  0.05826600  0.70159300  1
  H  2514  1  0.79122700  0.05961100  0.66656100  1
  H  2515  1  0.72547000  0.99203900  0.67316000  1
  H  2516  1  0.73439800  0.99115700  0.70872000  1
  H  2517  1  0.77258600  0.98336800  0.70685100  1
  H  2518  1  0.76726200  0.94495700  0.71637500  1
  H  2519  1  0.77099000  0.96372200  0.77939600  1
  H  2520  1  0.77553700  0.00242300  0.76976800  1
  H  2521  1  0.79846000  0.05503700  0.76416700  1
  H  2522  1  0.81664100  0.02627600  0.71252200  1
  H  2523  1  0.85869700  0.05560700  0.71737400  1
  H  2524  1  0.84012800  0.08470500  0.76851600  1
  H  2550  1  0.26785600  0.30648660  0.77487500  1
  H  2551  1  0.23117100  0.28344060  0.75640400  1
  H  2552  1  0.29686200  0.26583100  0.74684600  1
  H  2553  1  0.25904800  0.24059500  0.73098300  1
  H  2554  1  0.22809100  0.21625600  0.70158200  1
  H  2555  1  0.23883100  0.22563000  0.66659200  1
  H  2556  1  0.23693200  0.29133360  0.67329400  1
  H  2557  1  0.22695100  0.28224860  0.70881800  1
  H  2558  1  0.18096700  0.24396860  0.70679400  1
  H  2559  1  0.14780100  0.24919000  0.71625100  1
  H  2560  1  0.16269100  0.24542560  0.77930100  1
  H  2561  1  0.19693000  0.24098760  0.76974300  1
  H  2562  1  0.22659600  0.21808700  0.76421600  1
  H  2563  1  0.17990900  0.19996660  0.71239800  1
  H  2564  1  0.16717300  0.15791100  0.71724100  1
  H  2565  1  0.21459000  0.17641900  0.76855300  1
  H  2591  1  0.28160600  0.29454260  0.47025600  1
  H  2592  1  0.25870000  0.25793100  0.48884400  1
  H  2593  1  0.24210900  0.32416860  0.49937800  1
  H  2594  1  0.21697000  0.28641560  0.51547100  1
  H  2595  1  0.19269000  0.25451960  0.54564300  1
  H  2596  1  0.20227900  0.26294160  0.58109500  1
  H  2597  1  0.26875300  0.26329400  0.57174800  1
  H  2598  1  0.25907000  0.25466100  0.53595000  1
  H  2599  1  0.21977000  0.20813300  0.53928100  1
  H  2600  1  0.22470900  0.17480300  0.52990500  1
  H  2601  1  0.22049600  0.18928600  0.46683100  1
  H  2602  1  0.21625200  0.22366855  0.47631500  1
  H  2603  1  0.19369700  0.25378760  0.48213500  1
  H  2604  1  0.17608300  0.20736160  0.53408400  1
  H  2605  1  0.13394200  0.19431760  0.52932800  1
  H  2606  1  0.15193400  0.24140060  0.47784000  1
  H  2632  1  0.72283100  0.03350600  0.47018700  1
  H  2633  1  0.75944600  0.04723600  0.48877300  1
  H  2634  1  0.69324700  0.96438500  0.49931200  1
  H  2635  1  0.73100900  0.97702500  0.51539700  1
  H  2636  1  0.76293300  0.98466000  0.54555900  1
  H  2637  1  0.75443700  0.98577500  0.58100400  1
  H  2638  1  0.75395800  0.05183900  0.57165700  1
  H  2639  1  0.76268200  0.05085100  0.53587600  1
  H  2640  1  0.80925200  0.05816100  0.53919100  1
  H  2641  1  0.84253600  0.09645400  0.52980000  1
  H  2642  1  0.82805900  0.07771600  0.46673300  1
  H  2643  1  0.79372300  0.03906200  0.47623100  1
  H  2644  1  0.76363700  0.98640700  0.48205000  1
  H  2645  1  0.81008700  0.01525200  0.53398100  1
  H  2646  1  0.82317000  0.98618300  0.52921200  1
  H  2647  1  0.77605900  0.95705400  0.47773700  1
  H  2673  1  0.98378600  0.73574300  0.47018000  1
  H  2674  1  0.97008200  0.75865800  0.48875600  1
  H  2675  1  0.05283300  0.77508200  0.49945300  1
  H  2676  1  0.04023300  0.80023900  0.51553100  1
  H  2677  1  0.03257700  0.82451200  0.54570700  1
  H  2678  1  0.03124700  0.81482900  0.58116200  1
  H  2679  1  0.96510200  0.74843600  0.57161200  1
  H  2680  1  0.96630100  0.75821400  0.53583000  1
  H  2681  1  0.95918700  0.79763000  0.53917500  1
  H  2682  1  0.92096300  0.79275600  0.52971900  1
  H  2683  1  0.93979800  0.79694000  0.46668100  1
  H  2684  1  0.97838100  0.80112500  0.47624500  1
  H  2685  1  0.03098400  0.82357300  0.48213300  1
  H  2686  1  0.00219900  0.84125600  0.53405900  1
  H  2687  1  0.03133900  0.88339000  0.52930000  1
  H  2688  1  0.06040300  0.86534100  0.47782700  1
  H  2714  1  0.31752800  0.96039600  0.13757400  1
  H  2715  1  0.30378800  0.92372700  0.15614400  1
  H  2716  1  0.38675700  0.98982400  0.16644700  1
  H  2717  1  0.37410600  0.95210000  0.18255500  1
  H  2718  1  0.36725900  0.92123800  0.21207600  1
  H  2719  1  0.36843400  0.93248700  0.24685100  1
  H  2720  1  0.30078100  0.93031100  0.23938300  1
  H  2721  1  0.30019100  0.92001300  0.20399900  1
  H  2722  1  0.29179600  0.87430800  0.20610300  1
  H  2723  1  0.25395200  0.84073800  0.19616200  1
  H  2724  1  0.27476800  0.85478400  0.13344300  1
  H  2725  1  0.31281800  0.88951500  0.14346100  1
  H  2726  1  0.36537800  0.91966100  0.14993200  1
  H  2727  1  0.33468100  0.87238900  0.20116200  1
  H  2728  1  0.36419100  0.85972200  0.19745800  1
  H  2729  1  0.39541200  0.90783300  0.14684300  1
  H  2755  1  0.61457100  0.70063360  0.13758600  1
  H  2756  1  0.59166600  0.71440500  0.15613800  1
  H  2757  1  0.57477800  0.63144560  0.16653100  1
  H  2758  1  0.54971000  0.64412060  0.18260600  1
  H  2759  1  0.52554900  0.65093400  0.21201100  1
  H  2760  1  0.53549000  0.64969200  0.24680900  1
  H  2761  1  0.60106600  0.71729000  0.23949300  1
  H  2762  1  0.59148500  0.71795100  0.20408000  1
  H  2763  1  0.55430200  0.72648900  0.20606300  1
  H  2764  1  0.55863100  0.76434800  0.19608900  1
  H  2765  1  0.55179800  0.74344900  0.13338700  1
  H  2766  1  0.54843400  0.70539200  0.14343800  1
  H  2767  1  0.52601600  0.65278000  0.14994700  1
  H  2768  1  0.50940200  0.68363900  0.20104000  1
  H  2769  1  0.46722600  0.65409500  0.19735100  1
  H  2770  1  0.48415700  0.62272800  0.14687700  1
  H  2796  1  0.05782900  0.40365600  0.13744600  1
  H  2797  1  0.09448600  0.42656100  0.15602400  1
  H  2798  1  0.02841600  0.44347500  0.16631400  1
  H  2799  1  0.06613600  0.46852900  0.18243400  1
  H  2800  1  0.09703500  0.49259100  0.21193500  1
  H  2801  1  0.08574000  0.48255100  0.24670600  1
  H  2802  1  0.08772500  0.41696800  0.23930100  1
  H  2803  1  0.09808900  0.42665300  0.20392200  1
  H  2804  1  0.14382200  0.46384500  0.20602100  1
  H  2805  1  0.17737400  0.45952800  0.19610200  1
  H  2806  1  0.16347900  0.46648200  0.13338100  1
  H  2807  1  0.12875800  0.46982800  0.14337500  1
  H  2808  1  0.09855900  0.49225100  0.14985600  1
  H  2809  1  0.14590900  0.50874800  0.20101700  1
  H  2810  1  0.15860400  0.55095200  0.19734900  1
  H  2811  1  0.11040500  0.53411300  0.14680900  1
  H  2837  1  0.04667300  0.41503700  0.44419600  1
  H  2838  1  0.06795100  0.45104600  0.42392200  1
  H  2839  1  0.08740800  0.38634800  0.41599800  1
  H  2840  1  0.11049000  0.42321900  0.39768100  1
  H  2841  1  0.13222600  0.45330500  0.36639100  1
  H  2842  1  0.12149700  0.44393900  0.33123300  1
  H  2843  1  0.05542300  0.44398900  0.34174300  1
  H  2844  1  0.06611700  0.45331400  0.37731700  1
  H  2845  1  0.10423800  0.49954800  0.37281500  1
  H  2846  1  0.09999000  0.53330100  0.38211200  1
  H  2847  1  0.10784300  0.52107700  0.44507500  1
  H  2848  1  0.11128700  0.48624500  0.43570800  1
  H  2849  1  0.13483600  0.45758600  0.42957900  1
  H  2850  1  0.14856200  0.50152000  0.37645000  1
  H  2851  1  0.19109600  0.51538600  0.37946000  1
  H  2852  1  0.17698800  0.47057100  0.43203300  1
  H  2878  1  0.60233500  0.67811260  0.44432900  1
  H  2879  1  0.56634500  0.66337760  0.42402400  1
  H  2880  1  0.63103900  0.74754400  0.41613900  1
  H  2881  1  0.59418500  0.73375200  0.39779600  1
  H  2882  1  0.56417100  0.72537200  0.36643400  1
  H  2883  1  0.57369200  0.72403800  0.33131300  1
  H  2884  1  0.57367800  0.65794360  0.34193500  1
  H  2885  1  0.56419100  0.65929860  0.37748000  1
  H  2886  1  0.51792800  0.65114800  0.37286600  1
  H  2887  1  0.48415700  0.61315000  0.38214700  1
  H  2888  1  0.49627200  0.63325800  0.44510700  1
  H  2889  1  0.53111800  0.67152500  0.43575900  1
  H  2890  1  0.55975300  0.72369800  0.42963900  1
  H  2891  1  0.51595600  0.69352400  0.37643500  1
  H  2892  1  0.50203900  0.72215100  0.37942500  1
  H  2893  1  0.54672000  0.75282900  0.43207100  1
  H  2919  1  0.33928300  0.97069500  0.44429800  1
  H  2920  1  0.35405200  0.94944000  0.42403600  1
  H  2921  1  0.26994800  0.93008000  0.41593000  1
  H  2922  1  0.28376500  0.90701400  0.39762600  1
  H  2923  1  0.29223400  0.88536800  0.36628900  1
  H  2924  1  0.29373100  0.89627600  0.33116600  1
  H  2925  1  0.35979900  0.96232900  0.34198100  1
  H  2926  1  0.35828000  0.95142300  0.37752000  1
  H  2927  1  0.36635200  0.91320900  0.37289700  1
  H  2928  1  0.40432000  0.91740600  0.38224200  1
  H  2929  1  0.38410500  0.90945200  0.44517300  1
  H  2930  1  0.34587000  0.90607100  0.43575700  1
  H  2931  1  0.29373500  0.88261000  0.42957000  1
  H  2932  1  0.32388800  0.86891000  0.37638800  1
  H  2933  1  0.29518700  0.82638500  0.37936900  1
  H  2934  1  0.26455100  0.84047100  0.43199900  1
  H  2960  1  0.34067700  0.41555060  0.44268100  1
  H  2961  1  0.35534100  0.45164260  0.42252600  1
  H  2962  1  0.27044300  0.38816500  0.41638000  1
  H  2963  1  0.28419600  0.42519600  0.39840300  1
  H  2964  1  0.29137100  0.45477800  0.36804100  1
  H  2965  1  0.28992000  0.44375800  0.33309300  1
  H  2966  1  0.35708900  0.44481660  0.34009800  1
  H  2967  1  0.35805400  0.45507460  0.37555000  1
  H  2968  1  0.36630200  0.50138500  0.37242700  1
  H  2969  1  0.40502900  0.53448100  0.38121200  1
  H  2970  1  0.38739000  0.52121800  0.44454700  1
  H  2971  1  0.34837000  0.48708600  0.43567800  1
  H  2972  1  0.29622100  0.45938800  0.43096600  1
  H  2973  1  0.32390400  0.50304800  0.37737200  1
  H  2974  1  0.29525900  0.51673900  0.38173300  1
  H  2975  1  0.26721100  0.47229200  0.43484300  1
  H  3001  1  0.04570600  0.67659500  0.44263100  1
  H  3002  1  0.06717800  0.66198900  0.42246100  1
  H  3003  1  0.08858700  0.74689900  0.41646000  1
  H  3004  1  0.11190000  0.73320100  0.39847000  1
  H  3005  1  0.13437400  0.72613400  0.36813200  1
  H  3006  1  0.12491400  0.72766800  0.33317000  1
  H  3007  1  0.05882300  0.66044400  0.33998100  1
  H  3008  1  0.06800500  0.65938900  0.37545300  1
  H  3009  1  0.10600900  0.65111200  0.37239900  1
  H  3010  1  0.10037100  0.61237600  0.38117300  1
  H  3011  1  0.10472000  0.62998400  0.44451500  1
  H  3012  1  0.10961200  0.66900800  0.43565800  1
  H  3013  1  0.13404900  0.72117000  0.43098900  1
  H  3014  1  0.15008700  0.69352100  0.37740400  1
  H  3015  1  0.19240700  0.72224200  0.38174100  1
  H  3016  1  0.17596300  0.75025700  0.43484800  1
  H  3042  1  0.60181400  0.97154700  0.44266400  1
  H  3043  1  0.56571100  0.95011300  0.42252100  1
  H  3044  1  0.62918000  0.92867900  0.41637000  1
  H  3045  1  0.59214300  0.90539400  0.39840600  1
  H  3046  1  0.56256000  0.88297900  0.36807200  1
  H  3047  1  0.57366900  0.89256300  0.33314400  1
  H  3048  1  0.57258100  0.95866400  0.34008700  1
  H  3049  1  0.56224000  0.94936000  0.37552900  1
  H  3050  1  0.51595300  0.91140100  0.37248000  1
  H  3051  1  0.48287600  0.91704500  0.38133400  1
  H  3052  1  0.49621300  0.91258300  0.44464300  1
  H  3053  1  0.53031500  0.90767600  0.43570600  1
  H  3054  1  0.55798600  0.88323200  0.43095800  1
  H  3055  1  0.51424100  0.86725600  0.37740900  1
  H  3056  1  0.50052700  0.82492500  0.38177300  1
  H  3057  1  0.54505000  0.84130000  0.43483100  1
  H  3083  1  0.61541200  0.96148500  0.13681000  1
  H  3084  1  0.59255600  0.92487800  0.15540800  1
  H  3085  1  0.57607500  0.99116700  0.16612000  1
  H  3086  1  0.55097900  0.95341500  0.18225000  1
  H  3087  1  0.52657800  0.92130900  0.21242200  1
  H  3088  1  0.53620500  0.92966200  0.24788200  1
  H  3089  1  0.60283100  0.93038300  0.23835500  1
  H  3090  1  0.59308800  0.92175800  0.20257500  1
  H  3091  1  0.55387500  0.87513900  0.20592900  1
  H  3092  1  0.55880300  0.84181900  0.19649900  1
  H  3093  1  0.55433500  0.85624600  0.13345500  1
  H  3094  1  0.55009600  0.89061800  0.14299000  1
  H  3095  1  0.52762700  0.92085300  0.14888400  1
  H  3096  1  0.51001900  0.87422300  0.20069400  1
  H  3097  1  0.46788000  0.86119600  0.19597200  1
  H  3098  1  0.48585100  0.90847700  0.14462700  1
  H  3124  1  0.05676600  0.70042700  0.13675100  1
  H  3125  1  0.09335500  0.71415200  0.15537000  1
  H  3126  1  0.02702000  0.63140300  0.16606200  1
  H  3127  1  0.06475300  0.64403600  0.18222100  1
  H  3128  1  0.09681800  0.65174800  0.21245800  1
  H  3129  1  0.08834100  0.65301500  0.24789000  1
  H  3130  1  0.08758900  0.71888300  0.23825300  1
  H  3131  1  0.09636000  0.71778700  0.20250900  1
  H  3132  1  0.14299800  0.72517300  0.20596900  1
  H  3133  1  0.17635000  0.76341400  0.19657600  1
  H  3134  1  0.16205300  0.74455200  0.13352000  1
  H  3135  1  0.12764500  0.70594500  0.14301500  1
  H  3136  1  0.09735200  0.65324200  0.14888800  1
  H  3137  1  0.14391000  0.68223200  0.20074000  1
  H  3138  1  0.15694300  0.65311000  0.19603500  1
  H  3139  1  0.10972600  0.62384400  0.14464700  1
  H  3165  1  0.31779400  0.40278960  0.13675400  1
  H  3166  1  0.30403900  0.42563200  0.15538200  1
  H  3167  1  0.38678000  0.44203760  0.16612900  1
  H  3168  1  0.37411800  0.46710860  0.18230700  1
  H  3169  1  0.36631700  0.49136600  0.21258200  1
  H  3170  1  0.36486400  0.48156900  0.24802000  1
  H  3171  1  0.29892900  0.41507100  0.23821900  1
  H  3172  1  0.30021200  0.42497600  0.20246100  1
  H  3173  1  0.29300400  0.46433600  0.20593500  1
  H  3174  1  0.25477800  0.45945400  0.19649100  1
  H  3175  1  0.27369500  0.46391900  0.13345400  1
  H  3176  1  0.31229200  0.46812100  0.14300200  1
  H  3177  1  0.36493300  0.49052700  0.14893600  1
  H  3178  1  0.33599100  0.50809300  0.20082000  1
  H  3179  1  0.36514000  0.55024400  0.19613400  1
  H  3180  1  0.39435800  0.53228600  0.14470800  1
  H  3206  1  0.65153700  0.62638000  0.80314400  1
  H  3207  1  0.63690700  0.59036600  0.82340600  1
  H  3208  1  0.72155100  0.65434700  0.83003500  1
  H  3209  1  0.70783800  0.61745900  0.84823400  1
  H  3210  1  0.70056400  0.58823000  0.87878400  1
  H  3211  1  0.70195100  0.59990400  0.91347990  1
  H  3212  1  0.63453500  0.59818900  0.90590090  1
  H  3213  1  0.63373800  0.58745600  0.87058500  1
  H  3214  1  0.62490900  0.54157900  0.87378200  1
  H  3215  1  0.58669900  0.50802900  0.86453800  1
  H  3216  1  0.60644300  0.52038800  0.80151300  1
  H  3217  1  0.64486600  0.55502600  0.81081700  1
  H  3218  1  0.69704800  0.58318300  0.81647700  1
  H  3219  1  0.66719900  0.53910900  0.86958900  1
  H  3220  1  0.69607600  0.52552800  0.86646600  1
  H  3221  1  0.72646700  0.57051600  0.81394000  1
  H  3247  1  0.94490000  0.36493900  0.80314200  1
  H  3248  1  0.92352600  0.37962800  0.82334500  1
  H  3249  1  0.90288200  0.29501100  0.83019100  1
  H  3250  1  0.87971600  0.30877900  0.84833300  1
  H  3251  1  0.85793900  0.31621500  0.87893500  1
  H  3252  1  0.86848400  0.31496800  0.91358390  1
  H  3253  1  0.93408500  0.38240400  0.90565490  1
  H  3254  1  0.92389700  0.38304100  0.87040400  1
  H  3255  1  0.88665200  0.39170500  0.87369400  1
  H  3256  1  0.89124700  0.42987200  0.86438800  1
  H  3257  1  0.88398300  0.41004800  0.80138700  1
  H  3258  1  0.88025200  0.37166500  0.81076300  1
  H  3259  1  0.85624100  0.31958400  0.81648700  1
  H  3260  1  0.84202000  0.34931300  0.86968200  1
  H  3261  1  0.79956600  0.32043000  0.86654800  1
  H  3262  1  0.81416500  0.29017200  0.81393100  1
  H  3288  1  0.39006600  0.07155400  0.80329700  1
  H  3289  1  0.42613500  0.09294900  0.82348900  1
  H  3290  1  0.36216300  0.11359900  0.83030600  1
  H  3291  1  0.39910500  0.13679100  0.84842600  1
  H  3292  1  0.42844100  0.15880500  0.87889200  1
  H  3293  1  0.41694700  0.14857400  0.91363290  1
  H  3294  1  0.41869600  0.08289100  0.90598890  1
  H  3295  1  0.42923400  0.09276700  0.87065300  1
  H  3296  1  0.47516500  0.12999100  0.87378200  1
  H  3297  1  0.50869300  0.12532000  0.86450300  1
  H  3298  1  0.49603600  0.13233400  0.80147600  1
  H  3299  1  0.46142700  0.13614900  0.81082800  1
  H  3300  1  0.43329000  0.16018500  0.81650100  1
  H  3301  1  0.47746800  0.17462000  0.86957100  1
  H  3302  1  0.49094900  0.21704700  0.86638400  1
  H  3303  1  0.44587600  0.20224800  0.81388800  1
  H  3329  1  0.38059800  0.08196500  0.11104100  1
  H  3330  1  0.40182300  0.11796400  0.09074200  1
  H  3331  1  0.42114200  0.05318800  0.08264200  1
  H  3332  1  0.44415100  0.09003400  0.06426200  1
  H  3333  1  0.46578200  0.12023100  0.03279300  1
  H  3334  1  0.45473000  0.11076400  0.99768395  1
  H  3335  1  0.38854500  0.11041800  0.00877300  1
  H  3336  1  0.39962600  0.11994500  0.04425600  1
  H  3337  1  0.43780600  0.16633000  0.03948000  1
  H  3338  1  0.43367800  0.20014800  0.04880700  1
  H  3339  1  0.44192700  0.18809400  0.11172300  1
  H  3340  1  0.44524300  0.15319700  0.10233200  1
  H  3341  1  0.46863700  0.12445300  0.09614400  1
  H  3342  1  0.48222100  0.16826300  0.04295900  1
  H  3343  1  0.52475500  0.18209000  0.04587000  1
  H  3344  1  0.51079500  0.13741800  0.09851000  1
  H  3370  1  0.93625100  0.34514700  0.11089600  1
  H  3371  1  0.90026500  0.33038200  0.09058200  1
  H  3372  1  0.96503500  0.41448600  0.08252900  1
  H  3373  1  0.92820200  0.40065700  0.06413200  1
  H  3374  1  0.89801100  0.39216700  0.03271400  1
  H  3375  1  0.90730000  0.39057200  0.99755695  1
  H  3376  1  0.90756600  0.32466300  0.00848300  1
  H  3377  1  0.89824900  0.32624500  0.04401900  1
  H  3378  1  0.85189500  0.31807900  0.03929000  1
  H  3379  1  0.81808600  0.28011500  0.04856000  1
  H  3380  1  0.83012500  0.30025300  0.11151300  1
  H  3381  1  0.86502400  0.33849300  0.10217400  1
  H  3382  1  0.89380100  0.39071700  0.09602900  1
  H  3383  1  0.84992500  0.36049100  0.04286900  1
  H  3384  1  0.83610000  0.38918600  0.04581300  1
  H  3385  1  0.88084000  0.41991400  0.09841600  1
  H  3411  1  0.67305000  0.63759700  0.11092800  1
  H  3412  1  0.68778100  0.61638000  0.09057700  1
  H  3413  1  0.60357400  0.59681700  0.08283300  1
  H  3414  1  0.61738400  0.57381800  0.06440300  1
  H  3415  1  0.62576000  0.55209900  0.03298500  1
  H  3416  1  0.62703400  0.56289200  0.99784795  1
  H  3417  1  0.69293800  0.62918300  0.00844500  1
  H  3418  1  0.69167400  0.61837400  0.04397400  1
  H  3419  1  0.70004000  0.58038200  0.03930800  1
  H  3420  1  0.73804500  0.58458100  0.04850700  1
  H  3421  1  0.71802200  0.57642300  0.11149100  1
  H  3422  1  0.67974100  0.57302200  0.10222500  1
  H  3423  1  0.62747400  0.54942900  0.09617200  1
  H  3424  1  0.65773100  0.53589400  0.04297200  1
  H  3425  1  0.62910100  0.49335400  0.04590700  1
  H  3426  1  0.59833600  0.50725000  0.09854400  1
  H  3452  1  0.67461400  0.08259700  0.10934700  1
  H  3453  1  0.68926200  0.11862900  0.08910500  1
  H  3454  1  0.60435900  0.05511500  0.08306400  1
  H  3455  1  0.61811100  0.09207100  0.06495800  1
  H  3456  1  0.62531900  0.12142700  0.03444100  1
  H  3457  1  0.62396200  0.11022300  0.99955195  1
  H  3458  1  0.69128200  0.11166300  0.00681200  1
  H  3459  1  0.69214500  0.12208400  0.04220100  1
  H  3460  1  0.70017800  0.16833900  0.03893900  1
  H  3461  1  0.73888500  0.20147100  0.04774200  1
  H  3462  1  0.72121300  0.18816700  0.11107200  1
  H  3463  1  0.68221000  0.15401800  0.10218200  1
  H  3464  1  0.63016800  0.12637700  0.09746300  1
  H  3465  1  0.65764100  0.16976100  0.04370200  1
  H  3466  1  0.62890000  0.18336100  0.04799100  1
  H  3467  1  0.60106600  0.13917900  0.10126500  1
  H  3493  1  0.37975100  0.34362000  0.10940100  1
  H  3494  1  0.40112100  0.32893500  0.08918100  1
  H  3495  1  0.42239700  0.41378900  0.08293100  1
  H  3496  1  0.44558800  0.40000800  0.06484100  1
  H  3497  1  0.46758100  0.39263000  0.03423100  1
  H  3498  1  0.45747600  0.39378700  0.99937795  1
  H  3499  1  0.39171100  0.32645700  0.00702400  1
  H  3500  1  0.40150900  0.32579500  0.04237400  1
  H  3501  1  0.43983000  0.31790900  0.03899700  1
  H  3502  1  0.43430600  0.27923900  0.04788100  1
  H  3503  1  0.43880500  0.29711100  0.11117400  1
  H  3504  1  0.44361100  0.33607600  0.10220700  1
  H  3505  1  0.46794400  0.38803500  0.09736900  1
  H  3506  1  0.48374700  0.36052500  0.04357800  1
  H  3507  1  0.52610500  0.38920300  0.04785700  1
  H  3508  1  0.50985400  0.41707300  0.10116600  1
  H  3534  1  0.93564000  0.63855200  0.10927600  1
  H  3535  1  0.89961200  0.61717300  0.08901700  1
  H  3536  1  0.96316500  0.59584100  0.08294400  1
  H  3537  1  0.92622200  0.57264700  0.06482000  1
  H  3538  1  0.89684600  0.55052700  0.03424200  1
  H  3539  1  0.90790000  0.56038400  0.99932595  1
  H  3540  1  0.90644500  0.62623600  0.00673500  1
  H  3541  1  0.89617400  0.61666900  0.04215300  1
  H  3542  1  0.84993500  0.57832700  0.03877300  1
  H  3543  1  0.81676300  0.58385400  0.04752100  1
  H  3544  1  0.83000700  0.57955600  0.11087400  1
  H  3545  1  0.86420500  0.57475200  0.10204300  1
  H  3546  1  0.89188900  0.55036000  0.09734000  1
  H  3547  1  0.84857500  0.53445100  0.04353700  1
  H  3548  1  0.83495000  0.49211700  0.04784700  1
  H  3549  1  0.87907400  0.50846600  0.10116000  1
  H  3575  1  0.94596200  0.62759900  0.80230700  1
  H  3576  1  0.92470700  0.59161800  0.82262500  1
  H  3577  1  0.90433800  0.65576300  0.82969700  1
  H  3578  1  0.88126500  0.61887400  0.84799900  1
  H  3579  1  0.85931600  0.58859500  0.87941300  1
  H  3580  1  0.86966500  0.59772700  0.91469690  1
  H  3581  1  0.93624100  0.59856100  0.90449690  1
  H  3582  1  0.92580200  0.58923400  0.86889800  1
  H  3583  1  0.88659700  0.54247000  0.87366300  1
  H  3584  1  0.89175000  0.50908300  0.86495200  1
  H  3585  1  0.88669100  0.52181200  0.80160500  1
  H  3586  1  0.88218500  0.55620300  0.81040400  1
  H  3587  1  0.85816500  0.58432900  0.81545200  1
  H  3588  1  0.84291600  0.54130700  0.86937000  1
  H  3589  1  0.80048000  0.52731600  0.86521100  1
  H  3590  1  0.81616900  0.57107800  0.81174300  1
  H  3616  1  0.38891200  0.36486200  0.80249900  1
  H  3617  1  0.42491800  0.37958700  0.82277800  1
  H  3618  1  0.36080500  0.29506100  0.82985400  1
  H  3619  1  0.39772600  0.30887800  0.84810500  1
  H  3620  1  0.42808700  0.31712200  0.87938100  1
  H  3621  1  0.41919600  0.31832000  0.91473090  1
  H  3622  1  0.41841800  0.38413800  0.90479890  1
  H  3623  1  0.42747100  0.38302900  0.86913200  1
  H  3624  1  0.47423300  0.39057800  0.87369600  1
  H  3625  1  0.50754400  0.42915500  0.86496900  1
  H  3626  1  0.49461700  0.41145500  0.80162200  1
  H  3627  1  0.46029700  0.37251500  0.81043800  1
  H  3628  1  0.43215900  0.32030800  0.81547600  1
  H  3629  1  0.47541200  0.34812100  0.86926900  1
  H  3630  1  0.48936500  0.31965600  0.86504200  1
  H  3631  1  0.44536600  0.29152500  0.81169700  1
  H  3657  1  0.65164600  0.07052600  0.80245100  1
  H  3658  1  0.63698100  0.09180400  0.82280900  1
  H  3659  1  0.72159500  0.11239100  0.82951100  1
  H  3660  1  0.70782200  0.13547700  0.84784600  1
  H  3661  1  0.69972100  0.15760100  0.87917400  1
  H  3662  1  0.69881700  0.14756300  0.91450690  1
  H  3663  1  0.63300800  0.08087800  0.90485390  1
  H  3664  1  0.63381500  0.09098800  0.86920400  1
  H  3665  1  0.62605900  0.12998900  0.87376800  1
  H  3666  1  0.58745500  0.12472000  0.86513000  1
  H  3667  1  0.60506500  0.12968800  0.80175200  1
  H  3668  1  0.64402500  0.13430700  0.81047200  1
  H  3669  1  0.69625200  0.15843700  0.81538600  1
  H  3670  1  0.66845800  0.17376100  0.86925100  1
  H  3671  1  0.69687100  0.21619000  0.86504700  1
  H  3672  1  0.72499500  0.20045400  0.81163700  1
  C  1  1  0.04923200  0.20011900  0.90726200  1
  C  2  1  0.03045900  0.18922800  0.92220700  1
  C  3  1  0.01299500  0.19676100  0.92429500  1
  C  4  1  0.01394200  0.21598300  0.91205300  1
  C  5  1  0.03087000  0.22425000  0.89535500  1
  C  6  1  0.04838200  0.21677800  0.89314500  1
  C  7  1  0.99692800  0.22617000  0.91695600  1
  C  8  1  0.97194300  0.20450900  0.91097100  1
  C  9  1  0.96640400  0.19696000  0.88995500  1
  C  10  1  0.94404700  0.17641500  0.88400400  1
  C  11  1  0.92636400  0.16233000  0.89904200  1
  C  12  1  0.93196400  0.16868000  0.92004400  1
  C  13  1  0.95444200  0.18893100  0.92582200  1
  C  14  1  0.99868000  0.23426700  0.93957900  1
  C  15  1  0.00390400  0.25016100  0.90571000  1
  C  16  1  0.98770900  0.25433000  0.89334800  1
  C  17  1  0.99559700  0.27665800  0.88287000  1
  C  18  1  0.01971400  0.29662200  0.88525100  1
  C  19  1  0.03531700  0.29323100  0.89893900  1
  C  20  1  0.02773700  0.27067100  0.90859100  1
  C  21  1  0.01905100  0.23960000  0.95243900  1
  C  22  1  0.02023600  0.24681900  0.97310700  1
  C  23  1  0.00121300  0.24948400  0.98199000  1
  C  24  1  0.98186300  0.24639100  0.96895800  1
  C  25  1  0.98112000  0.23972200  0.94807500  1
  C  42  1  0.13763200  0.95226800  0.90713600  1
  C  43  1  0.14549300  0.97104800  0.92207100  1
  C  44  1  0.17047700  0.98855800  0.92414000  1
  C  45  1  0.18876400  0.98758400  0.91193600  1
  C  46  1  0.18012200  0.97066700  0.89522800  1
  C  47  1  0.15514300  0.95315100  0.89300400  1
  C  48  1  0.21595700  0.00455800  0.91688900  1
  C  49  1  0.21934100  0.02956500  0.91090700  1
  C  50  1  0.21738100  0.03512900  0.88988700  1
  C  51  1  0.21920500  0.05749000  0.88393300  1
  C  52  1  0.22275300  0.07515300  0.89897300  1
  C  53  1  0.22344400  0.06952900  0.91997800  1
  C  54  1  0.22121300  0.04704800  0.92575600  1
  C  55  1  0.22221300  0.00275300  0.93952800  1
  C  56  1  0.23298500  0.99757700  0.90567500  1
  C  57  1  0.25340900  0.01378800  0.89337500  1
  C  58  1  0.26787800  0.00590900  0.88293100  1
  C  59  1  0.26368400  0.98177600  0.88528300  1
  C  60  1  0.24461600  0.96614600  0.89889900  1
  C  61  1  0.22963000  0.97372900  0.90853700  1
  C  62  1  0.20713300  0.98233500  0.95233000  1
  C  63  1  0.21308900  0.98107900  0.97300700  1
  C  64  1  0.23474700  0.00006300  0.98195900  1
  C  65  1  0.25104900  0.01945900  0.96898800  1
  C  66  1  0.24520200  0.02027200  0.94809300  1
  C  83  1  0.80146400  0.86391300  0.90710100  1
  C  84  1  0.81239800  0.85606700  0.92203800  1
  C  85  1  0.80493400  0.83108700  0.92411600  1
  C  86  1  0.78566200  0.81278800  0.91192700  1
  C  87  1  0.77735100  0.82141400  0.89523400  1
  C  88  1  0.78485000  0.84639800  0.89296700  1
  C  89  1  0.77547300  0.78560000  0.91687400  1
  C  90  1  0.79709200  0.78223400  0.91084000  1
  C  91  1  0.80456700  0.78420200  0.88980500  1
  C  92  1  0.82509200  0.78238600  0.88379900  1
  C  93  1  0.83924000  0.77883000  0.89880000  1
  C  94  1  0.83297900  0.77813700  0.91982000  1
  C  95  1  0.81273900  0.78036000  0.92565000  1
  C  96  1  0.76745900  0.77933800  0.93952100  1
  C  97  1  0.75144400  0.76855900  0.90569000  1
  C  98  1  0.74721700  0.74813500  0.89338400  1
  C  99  1  0.72484800  0.73365000  0.88297500  1
  C  100  1  0.70491300  0.73784700  0.88535000  1
  C  101  1  0.70835900  0.75689800  0.89899200  1
  C  102  1  0.73094900  0.77190100  0.90859300  1
  C  103  1  0.76210100  0.79439100  0.95234000  1
  C  104  1  0.75484200  0.78838800  0.97300200  1
  C  105  1  0.75215500  0.76671500  0.98192900  1
  C  106  1  0.75529400  0.75044800  0.96894800  1
  C  107  1  0.76201300  0.75634900  0.94806900  1
  C  124  1  0.85323000  0.80908200  0.14245300  1
  C  125  1  0.84514200  0.81977100  0.12749200  1
  C  126  1  0.82010400  0.81212400  0.12552200  1
  C  127  1  0.80194100  0.79288300  0.13783000  1
  C  128  1  0.81079000  0.78464800  0.15441900  1
  C  129  1  0.83582200  0.79231500  0.15657200  1
  C  130  1  0.77467700  0.78295200  0.13338900  1
  C  131  1  0.77174700  0.80482900  0.13949400  1
  C  132  1  0.77424200  0.81257700  0.16048400  1
  C  133  1  0.77265000  0.83323400  0.16649400  1
  C  134  1  0.76887900  0.84728400  0.15153200  1
  C  135  1  0.76785600  0.84084500  0.13052800  1
  C  136  1  0.76980800  0.82045800  0.12469600  1
  C  137  1  0.76754400  0.77481600  0.11087300  1
  C  138  1  0.75781700  0.75906900  0.14481700  1
  C  139  1  0.73791300  0.75516500  0.15767900  1
  C  140  1  0.72354000  0.73287200  0.16821800  1
  C  141  1  0.72729000  0.71270500  0.16543200  1
  C  142  1  0.74584300  0.71587100  0.15132200  1
  C  143  1  0.76075900  0.73838300  0.14156000  1
  C  144  1  0.78239100  0.77012800  0.09717600  1
  C  145  1  0.77609400  0.76413900  0.07633300  1
  C  146  1  0.75413400  0.76174600  0.06852900  1
  C  147  1  0.73781700  0.76373000  0.08220800  1
  C  148  1  0.74418100  0.76938800  0.10316100  1
  C  165  1  0.19160800  0.05891300  0.14233100  1
  C  166  1  0.18098500  0.04015700  0.12734500  1
  C  167  1  0.18868300  0.02280400  0.12538300  1
  C  168  1  0.20788400  0.02387400  0.13774100  1
  C  169  1  0.21606200  0.04094200  0.15433800  1
  C  170  1  0.20837000  0.05829100  0.15646700  1
  C  171  1  0.21782600  0.00654000  0.13334500  1
  C  172  1  0.19592200  0.98173100  0.13940400  1
  C  173  1  0.18808300  0.97646400  0.16037300  1
  C  174  1  0.16739000  0.95422000  0.16633600  1
  C  175  1  0.15339700  0.93641000  0.15134700  1
  C  176  1  0.15994600  0.94182800  0.13036000  1
  C  177  1  0.18035300  0.96417200  0.12457400  1
  C  178  1  0.22604400  0.00755600  0.11085200  1
  C  179  1  0.24166600  0.01354500  0.14483700  1
  C  180  1  0.24550600  0.99753500  0.15774300  1
  C  181  1  0.26776600  0.00543100  0.16832600  1
  C  182  1  0.28795600  0.02934100  0.16556800  1
  C  183  1  0.28483300  0.04476100  0.15146200  1
  C  184  1  0.26236600  0.03717700  0.14162900  1
  C  185  1  0.23075800  0.02708300  0.09713900  1
  C  186  1  0.23682500  0.02678200  0.07631700  1
  C  187  1  0.23927700  0.00723200  0.06855600  1
  C  188  1  0.23727000  0.98894400  0.08226000  1
  C  189  1  0.23152500  0.98963900  0.10319000  1
  C  206  1  0.94174000  0.14743400  0.14231100  1
  C  207  1  0.96048200  0.15555900  0.12731200  1
  C  208  1  0.97786600  0.18060200  0.12536100  1
  C  209  1  0.97682100  0.19874100  0.13772500  1
  C  210  1  0.95974400  0.18986200  0.15431800  1
  C  211  1  0.94239200  0.16482400  0.15645600  1
  C  212  1  0.99418800  0.22601600  0.13335000  1
  C  213  1  0.01897300  0.22888700  0.13945200  1
  C  214  1  0.02421000  0.22633500  0.16043300  1
  C  215  1  0.04644200  0.22788100  0.16643000  1
  C  216  1  0.06425900  0.23165700  0.15146100  1
  C  217  1  0.05885600  0.23273900  0.13046300  1
  C  218  1  0.03652700  0.23081400  0.12464500  1
  C  219  1  0.99325300  0.23326400  0.11085900  1
  C  220  1  0.98716800  0.24285400  0.14481900  1
  C  221  1  0.00315900  0.26270300  0.15773500  1
  C  222  1  0.99524400  0.27706000  0.16830100  1
  C  223  1  0.97132600  0.27331300  0.16552700  1
  C  224  1  0.95594100  0.25480300  0.15138700  1
  C  225  1  0.96354400  0.23992400  0.14157200  1
  C  226  1  0.97376500  0.21849500  0.09709800  1
  C  227  1  0.97412000  0.22492000  0.07628500  1
  C  228  1  0.99374900  0.24689500  0.06856500  1
  C  229  1  0.01201400  0.26313300  0.08230700  1
  C  230  1  0.01123100  0.25666100  0.10323600  1
  C  247  1  0.94347100  0.81121300  0.14553200  1
  C  248  1  0.96107700  0.82131400  0.12957600  1
  C  249  1  0.97840500  0.81372300  0.12670800  1
  C  250  1  0.97809900  0.79473200  0.13883200  1
  C  251  1  0.96194200  0.78667200  0.15607000  1
  C  252  1  0.94470400  0.79434200  0.15916200  1
  C  253  1  0.99507700  0.78465800  0.13341800  1
  C  254  1  0.02013700  0.80632400  0.13921000  1
  C  255  1  0.02628800  0.81354900  0.16023200  1
  C  256  1  0.04898900  0.83376800  0.16599400  1
  C  257  1  0.06637200  0.84780100  0.15075300  1
  C  258  1  0.05987000  0.84226000  0.12977200  1
  C  259  1  0.03711800  0.82226400  0.12420800  1
  C  260  1  0.99321600  0.77674200  0.11074000  1
  C  261  1  0.98821000  0.76055300  0.14441400  1
  C  262  1  0.00450300  0.75621700  0.15646900  1
  C  263  1  0.99663500  0.73383800  0.16685900  1
  C  264  1  0.97242400  0.71396700  0.16467500  1
  C  265  1  0.95673300  0.71751900  0.15121400  1
  C  266  1  0.96429600  0.74013200  0.14166200  1
  C  267  1  0.97281900  0.77149000  0.09795500  1
  C  268  1  0.97168900  0.76457400  0.07719400  1
  C  269  1  0.99072800  0.76202800  0.06819700  1
  C  270  1  0.01011600  0.76505000  0.08113800  1
  C  271  1  0.01086300  0.77151900  0.10207100  1
  C  288  1  0.85372200  0.05713200  0.14552900  1
  C  289  1  0.84617700  0.03947300  0.12961300  1
  C  290  1  0.82124900  0.02217200  0.12676000  1
  C  291  1  0.80258400  0.02256000  0.13885100  1
  C  292  1  0.81070600  0.03880100  0.15603000  1
  C  293  1  0.83563000  0.05600000  0.15911400  1
  C  294  1  0.77552600  0.00560500  0.13343000  1
  C  295  1  0.77210600  0.98053800  0.13924100  1
  C  296  1  0.77319900  0.97441000  0.16026400  1
  C  297  1  0.77069500  0.95170400  0.16604200  1
  C  298  1  0.76729600  0.93428900  0.15081500  1
  C  299  1  0.76819600  0.94075000  0.12982900  1
  C  300  1  0.77096900  0.96350400  0.12424600  1
  C  301  1  0.76951300  0.00749900  0.11074400  1
  C  302  1  0.75829000  0.01248200  0.14442100  1
  C  303  1  0.73766800  0.99620000  0.15648900  1
  C  304  1  0.72314400  0.00406600  0.16685900  1
  C  305  1  0.72746300  0.02826600  0.16465400  1
  C  306  1  0.74671200  0.04395000  0.15119000  1
  C  307  1  0.76177400  0.03639000  0.14165600  1
  C  308  1  0.78472200  0.02789800  0.09798600  1
  C  309  1  0.77900800  0.02906400  0.07721200  1
  C  310  1  0.75744800  0.01004600  0.06816500  1
  C  311  1  0.74103900  0.99064200  0.08107100  1
  C  312  1  0.74664900  0.98989400  0.10203700  1
  C  329  1  0.18940200  0.14697300  0.14548800  1
  C  330  1  0.17934800  0.15453800  0.12953700  1
  C  331  1  0.18700900  0.17947400  0.12667200  1
  C  332  1  0.20599600  0.19812400  0.13882200  1
  C  333  1  0.21402400  0.18998200  0.15604800  1
  C  334  1  0.20632400  0.16506000  0.15910000  1
  C  335  1  0.21610100  0.22519100  0.13343800  1
  C  336  1  0.19442600  0.22857900  0.13921000  1
  C  337  1  0.18714500  0.22745100  0.16022000  1
  C  338  1  0.16689400  0.22989100  0.16595700  1
  C  339  1  0.15289800  0.23327500  0.15070200  1
  C  340  1  0.15853100  0.23242500  0.12972700  1
  C  341  1  0.17855000  0.22969700  0.12418500  1
  C  342  1  0.22408400  0.23128000  0.11077500  1
  C  343  1  0.24017400  0.24240300  0.14448800  1
  C  344  1  0.24448100  0.26301500  0.15655400  1
  C  345  1  0.26683500  0.27751000  0.16698200  1
  C  346  1  0.28672200  0.27319600  0.16480800  1
  C  347  1  0.28320500  0.25397700  0.15133300  1
  C  348  1  0.26060300  0.23891800  0.14176500  1
  C  349  1  0.22934000  0.21612900  0.09800300  1
  C  350  1  0.23633500  0.22194200  0.07725900  1
  C  351  1  0.23892200  0.24354300  0.06825900  1
  C  352  1  0.23587000  0.25989900  0.08118700  1
  C  353  1  0.22934200  0.25416300  0.10210900  1
  C  370  1  0.13861700  0.20046600  0.90496700  1
  C  371  1  0.14636800  0.19068900  0.92100400  1
  C  372  1  0.17135100  0.19851000  0.92379900  1
  C  373  1  0.18989100  0.21749400  0.91156300  1
  C  374  1  0.18157100  0.22538500  0.89435900  1
  C  375  1  0.15659400  0.21744700  0.89132000  1
  C  376  1  0.21702500  0.22744400  0.91658500  1
  C  377  1  0.22012100  0.20559100  0.91079700  1
  C  378  1  0.21866000  0.19807600  0.88982400  1
  C  379  1  0.22097200  0.17773300  0.88413400  1
  C  380  1  0.22448300  0.16383900  0.89941200  1
  C  381  1  0.22376800  0.16959900  0.92037000  1
  C  382  1  0.22120000  0.18971700  0.92585800  1
  C  383  1  0.22380100  0.23554000  0.93914700  1
  C  384  1  0.23408500  0.25139700  0.90533300  1
  C  385  1  0.25433500  0.25547500  0.89286700  1
  C  386  1  0.26876600  0.27778300  0.88236700  1
  C  387  1  0.26476200  0.29783300  0.88484400  1
  C  388  1  0.24585800  0.29449700  0.89863100  1
  C  389  1  0.23087000  0.27195600  0.90831800  1
  C  390  1  0.20873300  0.24013000  0.95264600  1
  C  391  1  0.21469200  0.24595700  0.97356600  1
  C  392  1  0.23651300  0.24826100  0.98164400  1
  C  393  1  0.25303600  0.24636100  0.96816200  1
  C  394  1  0.24701100  0.24083800  0.94714800  1
  C  411  1  0.80111600  0.95294200  0.90486900  1
  C  412  1  0.81090300  0.97047400  0.92090100  1
  C  413  1  0.80306000  0.98761900  0.92370300  1
  C  414  1  0.78405800  0.98715300  0.91147700  1
  C  415  1  0.77615500  0.97092600  0.89428300  1
  C  416  1  0.78412700  0.95391900  0.89122200  1
  C  417  1  0.77409300  0.00432300  0.91650400  1
  C  418  1  0.79593000  0.02928100  0.91071100  1
  C  419  1  0.80343700  0.03533100  0.88973600  1
  C  420  1  0.82375100  0.05800300  0.88403800  1
  C  421  1  0.83762800  0.07543000  0.89930800  1
  C  422  1  0.83188200  0.06895700  0.92026900  1
  C  423  1  0.81178900  0.04625400  0.92576600  1
  C  424  1  0.76600200  0.00299300  0.93906900  1
  C  425  1  0.75013200  0.99741500  0.90526000  1
  C  426  1  0.74603600  0.01358100  0.89280100  1
  C  427  1  0.72371500  0.00570000  0.88232300  1
  C  428  1  0.70369000  0.98163000  0.88478200  1
  C  429  1  0.70703100  0.96607200  0.89857700  1
  C  430  1  0.72958400  0.97363600  0.90824900  1
  C  431  1  0.76142800  0.98333500  0.95256300  1
  C  432  1  0.75555500  0.98343200  0.97347600  1
  C  433  1  0.75319800  0.00291700  0.98154400  1
  C  434  1  0.75507900  0.02134300  0.96807400  1
  C  435  1  0.76067000  0.02088100  0.94707200  1
  C  452  1  0.04868300  0.86279800  0.90495600  1
  C  453  1  0.03115700  0.85507500  0.92099300  1
  C  454  1  0.01396900  0.83009800  0.92378900  1
  C  455  1  0.01438600  0.81154200  0.91155800  1
  C  456  1  0.03062400  0.81984000  0.89437200  1
  C  457  1  0.04767900  0.84480700  0.89132200  1
  C  458  1  0.99713200  0.78441100  0.91655000  1
  C  459  1  0.97222300  0.78139000  0.91071900  1
  C  460  1  0.96623900  0.78288300  0.88973100  1
  C  461  1  0.94360600  0.78059500  0.88399400  1
  C  462  1  0.92617200  0.77710600  0.89923700  1
  C  463  1  0.93260200  0.77782900  0.92020900  1
  C  464  1  0.95525600  0.78034700  0.92574400  1
  C  465  1  0.99835800  0.77759000  0.93911600  1
  C  466  1  0.00401000  0.76732900  0.90532000  1
  C  467  1  0.98784700  0.74711200  0.89281800  1
  C  468  1  0.99571800  0.73267200  0.88232600  1
  C  469  1  0.01975300  0.73663700  0.88484400  1
  C  470  1  0.03529200  0.75547600  0.89869100  1
  C  471  1  0.02775100  0.77048300  0.90836200  1
  C  472  1  0.01797900  0.79260000  0.95266700  1
  C  473  1  0.01773000  0.78660500  0.97359100  1
  C  474  1  0.99817100  0.76477700  0.98160800  1
  C  475  1  0.97978800  0.74829100  0.96807300  1
  C  476  1  0.98037700  0.75438000  0.94706700  1
  C  493  1  0.38323500  0.86724400  0.57420800  1
  C  494  1  0.36451300  0.85639600  0.58920300  1
  C  495  1  0.34700300  0.86387300  0.59128300  1
  C  496  1  0.34788600  0.88304400  0.57901400  1
  C  497  1  0.36478100  0.89128900  0.56229200  1
  C  498  1  0.38230800  0.88384200  0.56006700  1
  C  499  1  0.33077700  0.89313800  0.58384400  1
  C  500  1  0.30584500  0.87142600  0.57780500  1
  C  501  1  0.30038300  0.86390000  0.55677700  1
  C  502  1  0.27806700  0.84333400  0.55077500  1
  C  503  1  0.26035600  0.82918100  0.56577400  1
  C  504  1  0.26591400  0.83547000  0.58679100  1
  C  505  1  0.28834900  0.85575100  0.59261700  1
  C  506  1  0.33237600  0.90120800  0.60645900  1
  C  507  1  0.33775200  0.91712500  0.57259200  1
  C  508  1  0.32158000  0.92125600  0.56016000  1
  C  509  1  0.32947400  0.94357700  0.54966300  1
  C  510  1  0.35357700  0.96355800  0.55206700  1
  C  511  1  0.36916400  0.96018800  0.56578700  1
  C  512  1  0.36156400  0.93765900  0.57550600  1
  C  513  1  0.35269700  0.90664400  0.61941900  1
  C  514  1  0.35376700  0.91394700  0.64005100  1
  C  515  1  0.33468100  0.91660200  0.64881500  1
  C  516  1  0.31533800  0.91332600  0.63568400  1
  C  517  1  0.31470700  0.90657900  0.61483600  1
  C  534  1  0.47160300  0.61911500  0.57417000  1
  C  535  1  0.47946600  0.63787500  0.58913100  1
  C  536  1  0.50444400  0.65541600  0.59118500  1
  C  537  1  0.52274100  0.65449200  0.57895900  1
  C  538  1  0.51410300  0.63754400  0.56227300  1
  C  539  1  0.48912800  0.62001600  0.56004500  1
  C  540  1  0.54993900  0.67157600  0.58382900  1
  C  541  1  0.55320500  0.69652200  0.57777700  1
  C  542  1  0.55115200  0.70197500  0.55674400  1
  C  543  1  0.55293400  0.72429800  0.55072400  1
  C  544  1  0.55652000  0.74203200  0.56570700  1
  C  545  1  0.55726100  0.73649800  0.58672800  1
  C  546  1  0.55506800  0.71405100  0.59257400  1
  C  547  1  0.55633100  0.66993900  0.60646200  1
  C  548  1  0.56696700  0.66459200  0.57261200  1
  C  549  1  0.58728100  0.68074600  0.56018600  1
  C  550  1  0.60170100  0.67283600  0.54970000  1
  C  551  1  0.59755100  0.64872300  0.55210400  1
  C  552  1  0.57861400  0.63316600  0.56585200  1
  C  553  1  0.56368000  0.64077800  0.57554600  1
  C  554  1  0.54137900  0.64960700  0.61938900  1
  C  555  1  0.54753200  0.64849300  0.64003800  1
  C  556  1  0.56925200  0.66755400  0.64884900  1
  C  557  1  0.58539900  0.68689400  0.63575500  1
  C  558  1  0.57935900  0.68756700  0.61489200  1
  C  575  1  0.13518400  0.53075500  0.57413200  1
  C  576  1  0.14602800  0.52285800  0.58911000  1
  C  577  1  0.13853200  0.49786900  0.59117400  1
  C  578  1  0.11935100  0.47959700  0.57889800  1
  C  579  1  0.11111800  0.48827400  0.56218700  1
  C  580  1  0.11859400  0.51325600  0.55996900  1
  C  581  1  0.10921400  0.45238900  0.58373800  1
  C  582  1  0.13090400  0.44912500  0.57771700  1
  C  583  1  0.13846300  0.45121300  0.55669500  1
  C  584  1  0.15902300  0.44944700  0.55070800  1
  C  585  1  0.17313100  0.44583100  0.56571200  1
  C  586  1  0.16680300  0.44506000  0.58672300  1
  C  587  1  0.14652300  0.44722000  0.59253700  1
  C  588  1  0.10112300  0.44594300  0.60635300  1
  C  589  1  0.08522900  0.43539400  0.57247300  1
  C  590  1  0.08108500  0.41508200  0.56004700  1
  C  591  1  0.05876800  0.40066500  0.54954300  1
  C  592  1  0.03880600  0.40482000  0.55192500  1
  C  593  1  0.04217300  0.42376800  0.56565300  1
  C  594  1  0.06470400  0.43869000  0.57537300  1
  C  595  1  0.09572300  0.46087000  0.61929200  1
  C  596  1  0.08840800  0.45466500  0.63992600  1
  C  597  1  0.08566100  0.43289300  0.64870000  1
  C  598  1  0.08890100  0.41678900  0.63558800  1
  C  599  1  0.09568600  0.42288900  0.61474500  1
  C  616  1  0.18818600  0.47784400  0.80759800  1
  C  617  1  0.17937500  0.48730900  0.79214900  1
  C  618  1  0.15418800  0.47911800  0.79046900  1
  C  619  1  0.13659200  0.46050000  0.80358900  1
  C  620  1  0.14617500  0.45363600  0.82058400  1
  C  621  1  0.17134800  0.46183800  0.82244200  1
  C  622  1  0.10912100  0.44982200  0.79960900  1
  C  623  1  0.10584900  0.47158200  0.80533300  1
  C  624  1  0.10827900  0.47971200  0.82619800  1
  C  625  1  0.10648400  0.50036400  0.83180600  1
  C  626  1  0.10259100  0.51404600  0.81655600  1
  C  627  1  0.10157000  0.50718300  0.79566500  1
  C  628  1  0.10370600  0.48679100  0.79022600  1
  C  629  1  0.10137200  0.44074400  0.77738700  1
  C  630  1  0.09308500  0.42628300  0.81172600  1
  C  631  1  0.07308000  0.42222900  0.82454700  1
  C  632  1  0.05995000  0.40058800  0.83621700  1
  C  633  1  0.06580000  0.38170200  0.83501400  1
  C  634  1  0.08356400  0.38425700  0.82039400  1
  C  635  1  0.09701700  0.40608000  0.80928500  1
  C  636  1  0.11595000  0.43567500  0.76370300  1
  C  637  1  0.10932800  0.42929500  0.74296200  1
  C  638  1  0.08733600  0.42694200  0.73526100  1
  C  639  1  0.07124600  0.42918700  0.74903500  1
  C  640  1  0.07784300  0.43506500  0.76992600  1
  C  657  1  0.52362600  0.72501700  0.80760700  1
  C  658  1  0.51420000  0.70674600  0.79215100  1
  C  659  1  0.52244600  0.68979400  0.79046600  1
  C  660  1  0.54103900  0.69081700  0.80362000  1
  C  661  1  0.54784100  0.70723300  0.82063200  1
  C  662  1  0.53963900  0.72420500  0.82245600  1
  C  663  1  0.55173000  0.67402800  0.79967700  1
  C  664  1  0.52996500  0.64899500  0.80539000  1
  C  665  1  0.52180400  0.64330300  0.82624600  1
  C  666  1  0.50114000  0.62085700  0.83184300  1
  C  667  1  0.48748600  0.60327500  0.81659000  1
  C  668  1  0.49440100  0.60909900  0.79570600  1
  C  669  1  0.51478800  0.63163500  0.79027600  1
  C  670  1  0.56086100  0.67535100  0.77747500  1
  C  671  1  0.57524400  0.68154000  0.81183400  1
  C  672  1  0.57928400  0.66558400  0.82466400  1
  C  673  1  0.60090100  0.67410600  0.83637000  1
  C  674  1  0.61979800  0.69883500  0.83515700  1
  C  675  1  0.61726300  0.71404100  0.82052000  1
  C  676  1  0.59544400  0.70567600  0.80940600  1
  C  677  1  0.56593900  0.69498100  0.76376800  1
  C  678  1  0.57248000  0.69479300  0.74306500  1
  C  679  1  0.57490500  0.67517300  0.73542100  1
  C  680  1  0.57263900  0.65684600  0.74921100  1
  C  681  1  0.56656200  0.65750100  0.77005400  1
  C  698  1  0.27647900  0.81340400  0.80755200  1
  C  699  1  0.29475300  0.82221900  0.79210000  1
  C  700  1  0.31177800  0.84740300  0.79044100  1
  C  701  1  0.31075100  0.86499300  0.80356700  1
  C  702  1  0.29433100  0.85540300  0.82057900  1
  C  703  1  0.27733200  0.83023600  0.82241000  1
  C  704  1  0.32758500  0.89246900  0.79963700  1
  C  705  1  0.35259200  0.89570800  0.80539700  1
  C  706  1  0.35823700  0.89321700  0.82626400  1
  C  707  1  0.38066300  0.89497800  0.83190100  1
  C  708  1  0.39826600  0.89888700  0.81667500  1
  C  709  1  0.39248200  0.89997000  0.79578000  1
  C  710  1  0.36996200  0.89783700  0.79031400  1
  C  711  1  0.32635200  0.90030800  0.77742600  1
  C  712  1  0.32006000  0.90848000  0.81176600  1
  C  713  1  0.33598400  0.92845000  0.82462800  1
  C  714  1  0.32744200  0.94154500  0.83631100  1
  C  715  1  0.30272400  0.93573800  0.83503800  1
  C  716  1  0.28755500  0.91802200  0.82037100  1
  C  717  1  0.29594400  0.90458000  0.80927100  1
  C  718  1  0.30677600  0.88578800  0.76366300  1
  C  719  1  0.30708200  0.89254000  0.74294800  1
  C  720  1  0.32673600  0.91459800  0.73536100  1
  C  721  1  0.34500900  0.93062100  0.74920300  1
  C  722  1  0.34424400  0.92386700  0.77005300  1
  C  739  1  0.27846700  0.48022400  0.81082500  1
  C  740  1  0.29566500  0.48916900  0.79450300  1
  C  741  1  0.31255700  0.48096300  0.79193600  1
  C  742  1  0.31209300  0.46237700  0.80473800  1
  C  743  1  0.29649800  0.45562500  0.82231400  1
  C  744  1  0.27974000  0.46395300  0.82512200  1
  C  745  1  0.32841400  0.45141200  0.79972400  1
  C  746  1  0.35377700  0.47284800  0.80508700  1
  C  747  1  0.36036300  0.48056800  0.82595700  1
  C  748  1  0.38326800  0.50077400  0.83128600  1
  C  749  1  0.40047400  0.51426900  0.81575700  1
  C  750  1  0.39358900  0.50818400  0.79490000  1
  C  751  1  0.37062100  0.48823200  0.78975800  1
  C  752  1  0.32611300  0.44257700  0.77730400  1
  C  753  1  0.32099700  0.42762900  0.81144300  1
  C  754  1  0.33714400  0.42309300  0.82354300  1
  C  755  1  0.32864600  0.40139100  0.83513400  1
  C  756  1  0.30371700  0.38288300  0.83450300  1
  C  757  1  0.28826300  0.38580700  0.82040800  1
  C  758  1  0.29661900  0.40772700  0.80945500  1
  C  759  1  0.30569800  0.43730000  0.76454200  1
  C  760  1  0.30446500  0.43015600  0.74383500  1
  C  761  1  0.32342000  0.42741200  0.73491300  1
  C  762  1  0.34264900  0.43016400  0.74792800  1
  C  763  1  0.34347600  0.43683800  0.76881700  1
  C  780  1  0.18851700  0.72316000  0.81081600  1
  C  781  1  0.18029600  0.70593900  0.79451500  1
  C  782  1  0.15520800  0.68899900  0.79196700  1
  C  783  1  0.13706900  0.68943800  0.80476600  1
  C  784  1  0.14589000  0.70504300  0.82233700  1
  C  785  1  0.17096200  0.72187200  0.82510900  1
  C  786  1  0.10978900  0.67311500  0.79972500  1
  C  787  1  0.10586700  0.64774900  0.80506300  1
  C  788  1  0.10698900  0.64115400  0.82593300  1
  C  789  1  0.10428300  0.61824400  0.83125500  1
  C  790  1  0.10058300  0.60104600  0.81572000  1
  C  791  1  0.10140000  0.60794600  0.79486400  1
  C  792  1  0.10440700  0.63091300  0.78972800  1
  C  793  1  0.10331200  0.67547400  0.77729900  1
  C  794  1  0.09339200  0.68049800  0.81144000  1
  C  795  1  0.07269200  0.66431700  0.82350800  1
  C  796  1  0.05948400  0.67278800  0.83512500  1
  C  797  1  0.06588500  0.69771200  0.83452000  1
  C  798  1  0.08427100  0.71319900  0.82044600  1
  C  799  1  0.09785100  0.70487200  0.80947800  1
  C  800  1  0.11846700  0.69594000  0.76459200  1
  C  801  1  0.11263200  0.69721000  0.74387100  1
  C  802  1  0.09097300  0.67826700  0.73489100  1
  C  803  1  0.07445600  0.65899900  0.74785500  1
  C  804  1  0.08023900  0.65812100  0.76875500  1
  C  821  1  0.52122800  0.81289900  0.81082500  1
  C  822  1  0.51226100  0.82115500  0.79452400  1
  C  823  1  0.52049300  0.84625900  0.79195300  1
  C  824  1  0.53909300  0.86437900  0.80474700  1
  C  825  1  0.54587400  0.85553400  0.82230300  1
  C  826  1  0.53757900  0.83045200  0.82507700  1
  C  827  1  0.55005500  0.89166500  0.79973300  1
  C  828  1  0.52862500  0.89559200  0.80512000  1
  C  829  1  0.52093800  0.89444200  0.82600300  1
  C  830  1  0.50074700  0.89714500  0.83137300  1
  C  831  1  0.48723000  0.90087000  0.81587000  1
  C  832  1  0.49329200  0.90010100  0.79500000  1
  C  833  1  0.51323200  0.89708100  0.78981800  1
  C  834  1  0.55886600  0.89817200  0.77730500  1
  C  835  1  0.57385200  0.90803900  0.81143200  1
  C  836  1  0.57838900  0.92871800  0.82353800  1
  C  837  1  0.60008800  0.94191400  0.83513100  1
  C  838  1  0.61860200  0.93550100  0.83449000  1
  C  839  1  0.61566400  0.91711000  0.82040300  1
  C  840  1  0.59375200  0.90356300  0.80944000  1
  C  841  1  0.56417000  0.88303800  0.76456200  1
  C  842  1  0.57135200  0.88895000  0.74386600  1
  C  843  1  0.57413000  0.91065800  0.73493300  1
  C  844  1  0.57133300  0.92712400  0.74792600  1
  C  845  1  0.56461000  0.92127100  0.76880600  1
  C  862  1  0.47255800  0.86747500  0.57170100  1
  C  863  1  0.48031200  0.85763900  0.58768800  1
  C  864  1  0.50529600  0.86544500  0.59045700  1
  C  865  1  0.52383700  0.88447400  0.57825400  1
  C  866  1  0.51550700  0.89244300  0.56110900  1
  C  867  1  0.49053000  0.88451000  0.55808200  1
  C  868  1  0.55097300  0.89441000  0.58326600  1
  C  869  1  0.55407000  0.87255700  0.57745900  1
  C  870  1  0.55253600  0.86502800  0.55648300  1
  C  871  1  0.55484700  0.84468900  0.55076200  1
  C  872  1  0.55842300  0.83080600  0.56601200  1
  C  873  1  0.55779200  0.83659000  0.58697700  1
  C  874  1  0.55522700  0.85670400  0.59249600  1
  C  875  1  0.55774900  0.90247400  0.60583900  1
  C  876  1  0.56803200  0.91837800  0.57202800  1
  C  877  1  0.58822800  0.92244100  0.55949200  1
  C  878  1  0.60264700  0.94475500  0.54899400  1
  C  879  1  0.59864600  0.96480400  0.55149500  1
  C  880  1  0.57980500  0.96148600  0.56534700  1
  C  881  1  0.56484500  0.93894800  0.57505500  1
  C  882  1  0.54265100  0.90696200  0.61939100  1
  C  883  1  0.54863100  0.91276100  0.64031300  1
  C  884  1  0.57049000  0.91512000  0.64835100  1
  C  885  1  0.58706000  0.91336800  0.63481300  1
  C  886  1  0.58099200  0.90783700  0.61380500  1
  C  903  1  0.13483100  0.61979200  0.57174200  1
  C  904  1  0.14464200  0.63736400  0.58774100  1
  C  905  1  0.13681000  0.65452100  0.59051700  1
  C  906  1  0.11782300  0.65406800  0.57828000  1
  C  907  1  0.10989300  0.63779700  0.56111500  1
  C  908  1  0.11781000  0.62073800  0.55811000  1
  C  909  1  0.10789300  0.67128000  0.58326900  1
  C  910  1  0.12976400  0.69622600  0.57748400  1
  C  911  1  0.13733600  0.70223100  0.55651700  1
  C  912  1  0.15769800  0.72487500  0.55082100  1
  C  913  1  0.17154600  0.74233100  0.56608300  1
  C  914  1  0.16572600  0.73589800  0.58704200  1
  C  915  1  0.14558500  0.71322700  0.59254000  1
  C  916  1  0.09979000  0.67000000  0.60583000  1
  C  917  1  0.08394700  0.66438200  0.57199800  1
  C  918  1  0.07991000  0.68052100  0.55944800  1
  C  919  1  0.05761000  0.67264000  0.54893300  1
  C  920  1  0.03754300  0.64860000  0.55143800  1
  C  921  1  0.04083900  0.63306300  0.56529000  1
  C  922  1  0.06336500  0.64062700  0.57501500  1
  C  923  1  0.09528500  0.65042700  0.61940000  1
  C  924  1  0.08946400  0.65063500  0.64031300  1
  C  925  1  0.08700200  0.67009200  0.64831200  1
  C  926  1  0.08878500  0.68840100  0.63474400  1
  C  927  1  0.09439800  0.68787600  0.61375700  1
  C  944  1  0.38257400  0.52970200  0.57183100  1
  C  945  1  0.36501600  0.52194500  0.58784100  1
  C  946  1  0.34783800  0.49695900  0.59060400  1
  C  947  1  0.34826700  0.47842300  0.57835100  1
  C  948  1  0.36455100  0.48676700  0.56119200  1
  C  949  1  0.38160100  0.51174400  0.55817400  1
  C  950  1  0.33101500  0.45128100  0.58330300  1
  C  951  1  0.30610300  0.44826400  0.57746700  1
  C  952  1  0.30012800  0.44981200  0.55648800  1
  C  953  1  0.27748900  0.44752300  0.55076200  1
  C  954  1  0.26002900  0.44395900  0.56600500  1
  C  955  1  0.26643700  0.44459600  0.58697400  1
  C  956  1  0.28909500  0.44711600  0.59250100  1
  C  957  1  0.33220400  0.44438700  0.60585800  1
  C  958  1  0.33792300  0.43423700  0.57203800  1
  C  959  1  0.32180000  0.41408100  0.55946200  1
  C  960  1  0.32969400  0.39967000  0.54895000  1
  C  961  1  0.35373200  0.40364800  0.55147200  1
  C  962  1  0.36925000  0.42245600  0.56534700  1
  C  963  1  0.36166900  0.43740000  0.57508100  1
  C  964  1  0.35173700  0.45940400  0.61948100  1
  C  965  1  0.35141900  0.45334500  0.64039900  1
  C  966  1  0.33186900  0.43146000  0.64835600  1
  C  967  1  0.31358200  0.41499400  0.63474100  1
  C  968  1  0.31426100  0.42111700  0.61373200  1
  C  985  1  0.71466600  0.53142000  0.24229900  1
  C  986  1  0.69633000  0.52169400  0.25769100  1
  C  987  1  0.67923200  0.52974300  0.25945600  1
  C  988  1  0.68017800  0.54839800  0.24643200  1
  C  989  1  0.69650400  0.55531300  0.22934900  1
  C  990  1  0.71364900  0.54733400  0.22746400  1
  C  991  1  0.66369800  0.55933900  0.25084100  1
  C  992  1  0.63848700  0.53780600  0.24522400  1
  C  993  1  0.63257200  0.52983100  0.22433800  1
  C  994  1  0.61003100  0.50929100  0.21876300  1
  C  995  1  0.59253300  0.49560100  0.23405500  1
  C  996  1  0.59849900  0.50240500  0.25494500  1
  C  997  1  0.62114400  0.52267300  0.26035800  1
  C  998  1  0.66574700  0.56835900  0.27318400  1
  C  999  1  0.67116600  0.58297800  0.23887000  1
  C  1000  1  0.65506300  0.58728600  0.22648100  1
  C  1001  1  0.66353600  0.60891800  0.21479700  1
  C  1002  1  0.68838800  0.62759200  0.21561500  1
  C  1003  1  0.70379100  0.62485600  0.22989800  1
  C  1004  1  0.69545800  0.60301100  0.24096200  1
  C  1005  1  0.68616000  0.57395100  0.28607200  1
  C  1006  1  0.68735500  0.58149300  0.30664300  1
  C  1007  1  0.66831600  0.58425700  0.31536800  1
  C  1008  1  0.64905100  0.58112500  0.30220500  1
  C  1009  1  0.64830500  0.57414100  0.28140800  1
  C  1026  1  0.80273500  0.28603900  0.24232700  1
  C  1027  1  0.81134900  0.30433300  0.25775700  1
  C  1028  1  0.83649000  0.32146700  0.25950700  1
  C  1029  1  0.85419600  0.32052900  0.24647500  1
  C  1030  1  0.84478500  0.30424600  0.22936400  1
  C  1031  1  0.81966100  0.28711000  0.22746100  1
  C  1032  1  0.88162000  0.33705100  0.25083700  1
  C  1033  1  0.88526500  0.36223100  0.24516300  1
  C  1034  1  0.88319500  0.36810100  0.22426400  1
  C  1035  1  0.88517100  0.39061900  0.21864500  1
  C  1036  1  0.88894600  0.40813400  0.23391200  1
  C  1037  1  0.88976900  0.40220700  0.25481300  1
  C  1038  1  0.88739900  0.37957700  0.26026300  1
  C  1039  1  0.88868800  0.33513300  0.27317300  1
  C  1040  1  0.89776400  0.32954000  0.23887800  1
  C  1041  1  0.91816600  0.34560600  0.22646600  1
  C  1042  1  0.93133800  0.33710500  0.21483600  1
  C  1043  1  0.92514900  0.31225000  0.21570200  1
  C  1044  1  0.90700200  0.29688500  0.22999400  1
  C  1045  1  0.89350700  0.30525500  0.24103300  1
  C  1046  1  0.87396300  0.31477800  0.28614500  1
  C  1047  1  0.88045800  0.31367600  0.30669100  1
  C  1048  1  0.90232700  0.33275100  0.31530200  1
  C  1049  1  0.91833200  0.35198700  0.30205600  1
  C  1050  1  0.91195200  0.35263700  0.28128900  1
  C  1067  1  0.46913100  0.19789400  0.24222500  1
  C  1068  1  0.47891900  0.18935500  0.25762300  1
  C  1069  1  0.47096600  0.16422800  0.25940400  1
  C  1070  1  0.45227200  0.14646900  0.24644000  1
  C  1071  1  0.44529700  0.15581200  0.22934700  1
  C  1072  1  0.45327600  0.18093000  0.22738200  1
  C  1073  1  0.44137300  0.11906300  0.25089600  1
  C  1074  1  0.46289500  0.11538400  0.24524300  1
  C  1075  1  0.47080200  0.11736700  0.22434100  1
  C  1076  1  0.49132200  0.11534300  0.21873700  1
  C  1077  1  0.50507900  0.11161500  0.23401700  1
  C  1078  1  0.49837400  0.11090100  0.25492000  1
  C  1079  1  0.47812700  0.11330200  0.26035500  1
  C  1080  1  0.43245000  0.11213000  0.27326300  1
  C  1081  1  0.41768800  0.10285900  0.23899200  1
  C  1082  1  0.41334200  0.08243300  0.22660800  1
  C  1083  1  0.39166400  0.06924800  0.21498600  1
  C  1084  1  0.37300200  0.07544100  0.21583800  1
  C  1085  1  0.37577800  0.09358700  0.23012800  1
  C  1086  1  0.39765500  0.10710700  0.24114900  1
  C  1087  1  0.42689400  0.12695600  0.28617900  1
  C  1088  1  0.41946500  0.12064300  0.30677900  1
  C  1089  1  0.41678900  0.09887600  0.31549900  1
  C  1090  1  0.41985700  0.08272000  0.30231300  1
  C  1091  1  0.42672700  0.08892500  0.28149300  1
  C  1108  1  0.52191700  0.14462100  0.47404000  1
  C  1109  1  0.51307000  0.15408000  0.45861300  1
  C  1110  1  0.48788200  0.14591800  0.45699400  1
  C  1111  1  0.47031600  0.12730000  0.47013500  1
  C  1112  1  0.47994700  0.12047500  0.48712200  1
  C  1113  1  0.50511800  0.12865400  0.48892100  1
  C  1114  1  0.44283100  0.11665600  0.46624600  1
  C  1115  1  0.43960100  0.13844000  0.47198400  1
  C  1116  1  0.44218000  0.14664000  0.49283800  1
  C  1117  1  0.44045800  0.16733200  0.49845900  1
  C  1118  1  0.43649000  0.18098900  0.48323500  1
  C  1119  1  0.43531200  0.17404900  0.46234800  1
  C  1120  1  0.43738900  0.15362600  0.45689500  1
  C  1121  1  0.43493500  0.10754500  0.44404900  1
  C  1122  1  0.42685100  0.09314300  0.47841900  1
  C  1123  1  0.40692400  0.08913000  0.49132700  1
  C  1124  1  0.39384800  0.06751100  0.50303300  1
  C  1125  1  0.39963600  0.04858600  0.50175700  1
  C  1126  1  0.41731600  0.05110600  0.48706100  1
  C  1127  1  0.43072800  0.07291300  0.47592000  1
  C  1128  1  0.44944500  0.10254400  0.43022700  1
  C  1129  1  0.44264300  0.09612100  0.40951500  1
  C  1130  1  0.42049500  0.09357400  0.40201600  1
  C  1131  1  0.40445900  0.09571300  0.41592400  1
  C  1132  1  0.41132500  0.10179400  0.43674500  1
  C  1149  1  0.85773900  0.39208900  0.47396000  1
  C  1150  1  0.84825600  0.37377400  0.45854200  1
  C  1151  1  0.85642900  0.35675900  0.45690200  1
  C  1152  1  0.87505300  0.35780300  0.47002600  1
  C  1153  1  0.88189900  0.37426200  0.48701300  1
  C  1154  1  0.87373700  0.39127000  0.48881600  1
  C  1155  1  0.88570300  0.34097200  0.46610400  1
  C  1156  1  0.86391600  0.31594500  0.47181200  1
  C  1157  1  0.85570700  0.31027300  0.49266000  1
  C  1158  1  0.83500800  0.28784700  0.49825100  1
  C  1159  1  0.82135000  0.27026200  0.48299800  1
  C  1160  1  0.82830500  0.27607300  0.46212100  1
  C  1161  1  0.84872100  0.29859100  0.45670100  1
  C  1162  1  0.89480500  0.34223200  0.44389700  1
  C  1163  1  0.90922100  0.34848900  0.47826100  1
  C  1164  1  0.91322500  0.33257400  0.49117200  1
  C  1165  1  0.93484400  0.34110900  0.50288100  1
  C  1166  1  0.95376100  0.36582800  0.50162900  1
  C  1167  1  0.95124000  0.38100000  0.48694500  1
  C  1168  1  0.92944600  0.37260300  0.47578400  1
  C  1169  1  0.89978100  0.36176000  0.43010100  1
  C  1170  1  0.90611500  0.36138200  0.40936500  1
  C  1171  1  0.90856800  0.34175000  0.40180500  1
  C  1172  1  0.90647600  0.32356700  0.41567900  1
  C  1173  1  0.90051800  0.32436800  0.43653500  1
  C  1190  1  0.61031800  0.48029000  0.47407300  1
  C  1191  1  0.62861800  0.48916100  0.45864100  1
  C  1192  1  0.64560800  0.51435800  0.45701900  1
  C  1193  1  0.64452700  0.53190400  0.47016100  1
  C  1194  1  0.62808300  0.52225700  0.48715400  1
  C  1195  1  0.61112600  0.49707400  0.48895800  1
  C  1196  1  0.66126600  0.55939400  0.46620600  1
  C  1197  1  0.68634500  0.56273000  0.47185500  1
  C  1198  1  0.69207600  0.56021500  0.49269100  1
  C  1199  1  0.71453000  0.56198200  0.49823800  1
  C  1200  1  0.73208900  0.56592900  0.48295500  1
  C  1201  1  0.72623800  0.56709000  0.46209200  1
  C  1202  1  0.70369200  0.56495300  0.45671100  1
  C  1203  1  0.65985700  0.56715500  0.44400200  1
  C  1204  1  0.65374500  0.57537100  0.47839500  1
  C  1205  1  0.66970200  0.59536200  0.49122800  1
  C  1206  1  0.66118400  0.60844600  0.50295700  1
  C  1207  1  0.63643900  0.60257400  0.50180300  1
  C  1208  1  0.62121200  0.58481100  0.48718700  1
  C  1209  1  0.62959200  0.57140500  0.47601400  1
  C  1210  1  0.64023400  0.55254100  0.43030700  1
  C  1211  1  0.64038600  0.55922100  0.40959400  1
  C  1212  1  0.65994500  0.58129300  0.40193300  1
  C  1213  1  0.67823100  0.59743800  0.41571300  1
  C  1214  1  0.67762400  0.59073000  0.43655900  1
  C  1231  1  0.61219000  0.14694100  0.47713700  1
  C  1232  1  0.62934000  0.15582900  0.46078200  1
  C  1233  1  0.64626600  0.14765900  0.45825000  1
  C  1234  1  0.64592900  0.12920900  0.47115200  1
  C  1235  1  0.63038800  0.12253600  0.48875900  1
  C  1236  1  0.61353100  0.13075200  0.49148800  1
  C  1237  1  0.66232000  0.11830000  0.46622000  1
  C  1238  1  0.68764500  0.13979900  0.47159300  1
  C  1239  1  0.69419900  0.14752600  0.49246700  1
  C  1240  1  0.71709000  0.16774800  0.49780700  1
  C  1241  1  0.73430200  0.18126600  0.48228500  1
  C  1242  1  0.72742600  0.17519000  0.46142500  1
  C  1243  1  0.70448000  0.15520800  0.45627100  1
  C  1244  1  0.66010700  0.10941500  0.44382100  1
  C  1245  1  0.65491600  0.09454700  0.47798600  1
  C  1246  1  0.67106700  0.09006000  0.49012900  1
  C  1247  1  0.66257100  0.06840700  0.50179000  1
  C  1248  1  0.63764400  0.04989100  0.50118700  1
  C  1249  1  0.62217800  0.05277000  0.48707200  1
  C  1250  1  0.63053700  0.07463600  0.47603500  1
  C  1251  1  0.63970100  0.10400500  0.43100100  1
  C  1252  1  0.63854200  0.09677700  0.41032500  1
  C  1253  1  0.65754500  0.09404200  0.40148800  1
  C  1254  1  0.67679500  0.09697700  0.41456900  1
  C  1255  1  0.67756300  0.10375100  0.43542300  1
  C  1272  1  0.52233500  0.39005500  0.47702400  1
  C  1273  1  0.51402300  0.37293800  0.46064200  1
  C  1274  1  0.48891500  0.35604400  0.45811500  1
  C  1275  1  0.47082800  0.35639200  0.47104100  1
  C  1276  1  0.47973400  0.37196200  0.48863100  1
  C  1277  1  0.50482200  0.38875000  0.49137700  1
  C  1278  1  0.44351700  0.33994400  0.46619100  1
  C  1279  1  0.43976600  0.31466400  0.47163100  1
  C  1280  1  0.44098800  0.30818200  0.49251600  1
  C  1281  1  0.43834300  0.28531300  0.49790300  1
  C  1282  1  0.43462900  0.26805700  0.48241500  1
  C  1283  1  0.43538400  0.27486600  0.46154100  1
  C  1284  1  0.43831700  0.29778800  0.45634000  1
  C  1285  1  0.43670400  0.34201800  0.44380900  1
  C  1286  1  0.42719600  0.34737400  0.47797000  1
  C  1287  1  0.40660500  0.33125300  0.49017100  1
  C  1288  1  0.39344600  0.33976400  0.50181000  1
  C  1289  1  0.39981900  0.36468000  0.50113600  1
  C  1290  1  0.41811500  0.38010600  0.48696900  1
  C  1291  1  0.43163100  0.37173600  0.47595900  1
  C  1292  1  0.45161100  0.36234700  0.43088500  1
  C  1293  1  0.44539000  0.36338400  0.41023100  1
  C  1294  1  0.42359700  0.34432000  0.40151200  1
  C  1295  1  0.40742400  0.32510500  0.41469000  1
  C  1296  1  0.41353600  0.32449200  0.43553700  1
  C  1313  1  0.85544200  0.48005700  0.47702600  1
  C  1314  1  0.84658500  0.48833400  0.46065400  1
  C  1315  1  0.85479200  0.51343500  0.45809500  1
  C  1316  1  0.87322500  0.53155100  0.47100500  1
  C  1317  1  0.87988400  0.52268000  0.48861800  1
  C  1318  1  0.87165200  0.49760300  0.49135600  1
  C  1319  1  0.88411200  0.55885100  0.46609000  1
  C  1320  1  0.86258400  0.56263800  0.47144900  1
  C  1321  1  0.85483600  0.56147900  0.49231200  1
  C  1322  1  0.83458800  0.56412300  0.49761700  1
  C  1323  1  0.82107300  0.56778400  0.48207100  1
  C  1324  1  0.82718600  0.56698800  0.46122100  1
  C  1325  1  0.84718200  0.56403500  0.45610100  1
  C  1326  1  0.89302600  0.56558600  0.44370600  1
  C  1327  1  0.90784900  0.57519300  0.47787900  1
  C  1328  1  0.91231100  0.59580500  0.49004700  1
  C  1329  1  0.93395600  0.60895600  0.50171800  1
  C  1330  1  0.95249100  0.60257100  0.50108900  1
  C  1331  1  0.94964100  0.58426600  0.48694400  1
  C  1332  1  0.92777200  0.57074700  0.47591200  1
  C  1333  1  0.89840600  0.55060300  0.43083900  1
  C  1334  1  0.90556700  0.55668800  0.41015200  1
  C  1335  1  0.90822600  0.57841500  0.40134800  1
  C  1336  1  0.90534400  0.59472500  0.41447800  1
  C  1337  1  0.89866200  0.58871300  0.43534600  1
  C  1354  1  0.80396000  0.53170200  0.23993400  1
  C  1355  1  0.81247100  0.52315800  0.25636400  1
  C  1356  1  0.83762800  0.53155700  0.25881600  1
  C  1357  1  0.85559000  0.54999200  0.24580400  1
  C  1358  1  0.84649500  0.55649200  0.22823700  1
  C  1359  1  0.82135800  0.54798600  0.22555500  1
  C  1360  1  0.88296500  0.56073700  0.25032200  1
  C  1361  1  0.88646600  0.53903700  0.24492800  1
  C  1362  1  0.88489600  0.53103400  0.22410300  1
  C  1363  1  0.88735800  0.51067000  0.21882200  1
  C  1364  1  0.89118500  0.49726300  0.23436600  1
  C  1365  1  0.89065800  0.50355700  0.25520500  1
  C  1366  1  0.88791600  0.52367800  0.26029700  1
  C  1367  1  0.89042800  0.56980200  0.27258300  1
  C  1368  1  0.89912200  0.58433500  0.23831900  1
  C  1369  1  0.91938200  0.58855900  0.22577000  1
  C  1370  1  0.93247300  0.61017900  0.21406400  1
  C  1371  1  0.92637300  0.62890300  0.21501000  1
  C  1372  1  0.90837400  0.62621800  0.22943600  1
  C  1373  1  0.89493300  0.60439600  0.24054900  1
  C  1374  1  0.87559200  0.57458000  0.28619500  1
  C  1375  1  0.88198200  0.58079700  0.30700700  1
  C  1376  1  0.90402700  0.58336600  0.31481600  1
  C  1377  1  0.92038200  0.58148100  0.30111300  1
  C  1378  1  0.91391700  0.57555300  0.28021100  1
  C  1395  1  0.46895300  0.28695900  0.23983500  1
  C  1396  1  0.47760400  0.30405100  0.25623600  1
  C  1397  1  0.46923100  0.32082300  0.25872700  1
  C  1398  1  0.45074100  0.32034300  0.24578100  1
  C  1399  1  0.44414500  0.30471200  0.22823100  1
  C  1400  1  0.45263600  0.28807500  0.22549600  1
  C  1401  1  0.44000500  0.33696300  0.25037600  1
  C  1402  1  0.46168500  0.36217500  0.24497200  1
  C  1403  1  0.46962400  0.36864000  0.22413700  1
  C  1404  1  0.48994600  0.39149200  0.21884300  1
  C  1405  1  0.50338300  0.40871700  0.23438500  1
  C  1406  1  0.49717400  0.40185500  0.25522900  1
  C  1407  1  0.47709100  0.37896800  0.26033100  1
  C  1408  1  0.43101700  0.33532100  0.27266900  1
  C  1409  1  0.41636600  0.32953800  0.23844200  1
  C  1410  1  0.41210700  0.34557800  0.22593200  1
  C  1411  1  0.39045900  0.33705600  0.21426700  1
  C  1412  1  0.37175500  0.31222100  0.21519400  1
  C  1413  1  0.37446000  0.29690900  0.22960700  1
  C  1414  1  0.39630800  0.30528700  0.24068300  1
  C  1415  1  0.42628800  0.31567900  0.28623300  1
  C  1416  1  0.42016200  0.31581000  0.30707600  1
  C  1417  1  0.41773400  0.33532800  0.31497800  1
  C  1418  1  0.41954900  0.35359700  0.30134300  1
  C  1419  1  0.42533500  0.35306600  0.28040100  1
  C  1436  1  0.71368500  0.19680000  0.23980500  1
  C  1437  1  0.69660500  0.18831500  0.25621600  1
  C  1438  1  0.67986000  0.16316200  0.25869100  1
  C  1439  1  0.68036300  0.14518400  0.24571900  1
  C  1440  1  0.69596500  0.15425500  0.22815500  1
  C  1441  1  0.71258300  0.17938900  0.22544500  1
  C  1442  1  0.66381200  0.11782000  0.25033100  1
  C  1443  1  0.63855500  0.11422400  0.24501300  1
  C  1444  1  0.63204500  0.11572500  0.22419700  1
  C  1445  1  0.60917800  0.11318900  0.21896100  1
  C  1446  1  0.59197100  0.10935000  0.23453500  1
  C  1447  1  0.59886900  0.10994700  0.25536200  1
  C  1448  1  0.62176800  0.11274500  0.26041300  1
  C  1449  1  0.66560600  0.11053900  0.27261400  1
  C  1450  1  0.67122000  0.10162700  0.23834100  1
  C  1451  1  0.65513300  0.08129400  0.22588300  1
  C  1452  1  0.66363000  0.06819200  0.21415100  1
  C  1453  1  0.68847700  0.07435700  0.21498600  1
  C  1454  1  0.70384900  0.09241200  0.22934700  1
  C  1455  1  0.69549500  0.10586200  0.24048400  1
  C  1456  1  0.68534200  0.12549500  0.28608200  1
  C  1457  1  0.68534400  0.11930600  0.30692300  1
  C  1458  1  0.66594700  0.09732900  0.31490000  1
  C  1459  1  0.64760100  0.08082700  0.30134300  1
  C  1460  1  0.64795300  0.08710900  0.28041200  1
  C  1477  1  0.85806900  0.09850700  0.89443500  1
  C  1479  1  0.90090100  0.11931000  0.88585600  1
  C  1480  1  0.90366000  0.14143300  0.89402800  1
  C  1482  1  0.86059600  0.12098300  0.90141400  1
  C  1483  1  0.84290000  0.12338800  0.90929900  1
  C  1484  1  0.91907500  0.11654000  0.87985900  1
  C  1487  1  0.22705400  0.14335300  0.89455100  1
  C  1489  1  0.20509700  0.10056700  0.88588000  1
  C  1490  1  0.22451900  0.09783700  0.89394800  1
  C  1492  1  0.24704900  0.14087000  0.90147500  1
  C  1493  1  0.26714400  0.15856200  0.90937500  1
  C  1494  1  0.18422200  0.08237900  0.87977000  1
  C  1497  1  0.90313100  0.77454000  0.89433200  1
  C  1499  1  0.88231000  0.79651900  0.88569600  1
  C  1500  1  0.86014100  0.77706500  0.89370900  1
  C  1502  1  0.88063700  0.75451100  0.90118700  1
  C  1503  1  0.87822300  0.73440600  0.90907200  1
  C  1504  1  0.88502600  0.81744700  0.87971400  1
  C  1507  1  0.76464000  0.91123500  0.15580500  1
  C  1509  1  0.78664700  0.89043500  0.16449100  1
  C  1510  1  0.76714900  0.86821800  0.15659600  1
  C  1512  1  0.74459900  0.88871400  0.14903000  1
  C  1513  1  0.72452100  0.88629800  0.14108800  1
  C  1514  1  0.80760500  0.89318700  0.17041900  1
  C  1517  1  0.08943500  0.86819800  0.15571600  1
  C  1519  1  0.11029300  0.91101500  0.16439900  1
  C  1520  1  0.13244300  0.91372900  0.15634500  1
  C  1522  1  0.11193000  0.87068300  0.14884800  1
  C  1523  1  0.11432100  0.85298600  0.14094700  1
  C  1524  1  0.10753100  0.92920800  0.17035300  1
  C  1527  1  0.13242600  0.23582800  0.15564200  1
  C  1529  1  0.08965100  0.21388600  0.16439300  1
  C  1530  1  0.08692400  0.23338200  0.15650300  1
  C  1532  1  0.12996300  0.25588400  0.14887100  1
  C  1533  1  0.14764000  0.27599300  0.14098300  1
  C  1534  1  0.07145700  0.19297600  0.17043200  1
  C  1537  1  0.19205800  0.76536700  0.56121600  1
  C  1539  1  0.23488800  0.78614800  0.55259300  1
  C  1540  1  0.23765800  0.80830200  0.56069500  1
  C  1542  1  0.19460500  0.78787800  0.56813000  1
  C  1543  1  0.17694100  0.79033800  0.57601300  1
  C  1544  1  0.25306500  0.78339800  0.54657100  1
  C  1547  1  0.56101200  0.81034200  0.56110900  1
  C  1549  1  0.53893900  0.76749500  0.55254800  1
  C  1550  1  0.55834400  0.76472300  0.56060000  1
  C  1552  1  0.58098200  0.80779900  0.56800300  1
  C  1553  1  0.60108600  0.82546000  0.57591400  1
  C  1554  1  0.51799300  0.74931100  0.54657100  1
  C  1557  1  0.23697400  0.44136600  0.56110400  1
  C  1559  1  0.21617500  0.46341900  0.55256100  1
  C  1560  1  0.19402000  0.44402600  0.56065400  1
  C  1562  1  0.21447000  0.42139700  0.56802000  1
  C  1563  1  0.21203400  0.40126500  0.57586200  1
  C  1564  1  0.21895800  0.48438300  0.54660600  1
  C  1567  1  0.09807400  0.57794300  0.82028700  1
  C  1569  1  0.11987200  0.55714200  0.82963300  1
  C  1570  1  0.10075200  0.53501900  0.82123300  1
  C  1572  1  0.07836000  0.55550600  0.81298600  1
  C  1573  1  0.05842500  0.55306400  0.80470500  1
  C  1574  1  0.14058800  0.55988000  0.83625700  1
  C  1577  1  0.42357300  0.53486400  0.82033000  1
  C  1579  1  0.44439800  0.57746900  0.82969800  1
  C  1580  1  0.46650500  0.58046700  0.82126300  1
  C  1582  1  0.44601300  0.53758400  0.81303700  1
  C  1583  1  0.44845600  0.52009700  0.80474400  1
  C  1584  1  0.44164600  0.59545900  0.83626400  1
  C  1587  1  0.46668300  0.90343300  0.82049700  1
  C  1589  1  0.42405100  0.88158000  0.82975500  1
  C  1590  1  0.42106700  0.90072800  0.82138500  1
  C  1592  1  0.46398400  0.92318400  0.81326800  1
  C  1593  1  0.48148100  0.94312300  0.80499800  1
  C  1594  1  0.40604200  0.86079800  0.83623400  1
  C  1597  1  0.52397300  0.43185200  0.22987800  1
  C  1599  1  0.56665300  0.45262800  0.22075100  1
  C  1600  1  0.56969100  0.47466400  0.22939200  1
  C  1602  1  0.52675600  0.45425800  0.23733800  1
  C  1603  1  0.50923500  0.45669500  0.24556600  1
  C  1604  1  0.58462300  0.44983000  0.21420600  1
  C  1607  1  0.89363500  0.47661300  0.22986800  1
  C  1609  1  0.87174500  0.43396100  0.22071100  1
  C  1610  1  0.89082500  0.43095500  0.22920400  1
  C  1612  1  0.91332800  0.47387400  0.23721900  1
  C  1613  1  0.93331400  0.49139700  0.24540800  1
  C  1614  1  0.85101800  0.41597400  0.21411200  1
  C  1617  1  0.56885600  0.10688400  0.23007300  1
  C  1619  1  0.54806400  0.12869700  0.22072600  1
  C  1620  1  0.52599800  0.10969100  0.22931500  1
  C  1622  1  0.54644100  0.08725100  0.23750800  1
  C  1623  1  0.54398800  0.06732900  0.24582700  1
  C  1624  1  0.55081200  0.14940100  0.21406100  1
  C  1627  1  0.43204300  0.24493800  0.48705400  1
  C  1629  1  0.45388900  0.22412400  0.49626500  1
  C  1630  1  0.43470700  0.20199200  0.48793000  1
  C  1632  1  0.41228100  0.22248500  0.47983500  1
  C  1633  1  0.39233700  0.22005600  0.47158800  1
  C  1634  1  0.47467500  0.22688200  0.50271300  1
  C  1637  1  0.75743500  0.20180700  0.48687700  1
  C  1639  1  0.77829100  0.24445600  0.49616500  1
  C  1640  1  0.80035400  0.24744400  0.48764000  1
  C  1642  1  0.77986100  0.20454100  0.47952900  1
  C  1643  1  0.78227700  0.18702300  0.47126900  1
  C  1644  1  0.77551500  0.26244400  0.50269700  1
  C  1647  1  0.80048500  0.57031300  0.48661900  1
  C  1649  1  0.75789200  0.54861300  0.49602000  1
  C  1650  1  0.75489900  0.56772000  0.48757200  1
  C  1652  1  0.79777700  0.59002600  0.47928100  1
  C  1653  1  0.81527600  0.60993500  0.47097600  1
  C  1654  1  0.73991200  0.52793200  0.50270200  1
  C  1657  1  0.02950100  0.31858400  0.87313100  1
  C  1659  1  0.06712100  0.35012700  0.85774800  1
  C  1660  1  0.05446700  0.36079900  0.84814700  1
  C  1662  1  0.01710800  0.33004700  0.86430600  1
  C  1663  1  0.99434200  0.32362500  0.86765400  1
  C  1664  1  0.09071900  0.35888000  0.85770200  1
  C  1667  1  0.27586400  0.97199300  0.87316600  1
  C  1669  1  0.26976400  0.93440300  0.85770000  1
  C  1670  1  0.29312900  0.94705800  0.84816200  1
  C  1672  1  0.29974500  0.98438600  0.86438800  1
  C  1673  1  0.31611600  0.00712000  0.86782600  1
  C  1674  1  0.25488600  0.91081300  0.85758900  1
  C  1677  1  0.68292500  0.72565500  0.87326300  1
  C  1679  1  0.65139900  0.73174800  0.85786400  1
  C  1680  1  0.64069500  0.70840100  0.84829800  1
  C  1682  1  0.67143300  0.70178200  0.86446800  1
  C  1683  1  0.67785700  0.68544000  0.86781100  1
  C  1684  1  0.64264400  0.74659100  0.85783200  1
  C  1687  1  0.71513400  0.69073100  0.17753100  1
  C  1689  1  0.72098900  0.65884400  0.19244800  1
  C  1690  1  0.69789700  0.64846000  0.20243800  1
  C  1692  1  0.69145500  0.67951400  0.18668700  1
  C  1693  1  0.67527500  0.68623900  0.18372700  1
  C  1694  1  0.73560700  0.64982700  0.19215000  1
  C  1697  1  0.30988300  0.03913200  0.17772300  1
  C  1699  1  0.34172600  0.07683000  0.19273000  1
  C  1700  1  0.35211700  0.06410400  0.20267600  1
  C  1702  1  0.32107500  0.02664400  0.18687000  1
  C  1703  1  0.31437500  0.00375400  0.18384300  1
  C  1704  1  0.35076300  0.10047000  0.19244000  1
  C  1707  1  0.96151900  0.28545200  0.17765500  1
  C  1709  1  0.92379800  0.27957600  0.19263100  1
  C  1710  1  0.93650500  0.30270400  0.20256300  1
  C  1712  1  0.97399400  0.30913200  0.18680500  1
  C  1713  1  0.99687500  0.32533700  0.18376700  1
  C  1714  1  0.90016300  0.26496000  0.19233500  1
  C  1717  1  0.96266400  0.69196400  0.17676900  1
  C  1719  1  0.92501000  0.66032300  0.19207600  1
  C  1720  1  0.93769000  0.64976500  0.20181900  1
  C  1722  1  0.97507200  0.68056900  0.18570700  1
  C  1723  1  0.99786800  0.68703400  0.18248800  1
  C  1724  1  0.90139400  0.65144800  0.19194600  1
  C  1727  1  0.71520700  0.03803700  0.17672900  1
  C  1729  1  0.72113500  0.07573600  0.19187500  1
  C  1730  1  0.69798400  0.06303500  0.20175700  1
  C  1732  1  0.69144600  0.02561700  0.18575000  1
  C  1733  1  0.67514700  0.00278600  0.18264300  1
  C  1734  1  0.73583800  0.09935900  0.19169500  1
  C  1737  1  0.30870800  0.28543200  0.17692700  1
  C  1739  1  0.34037600  0.27945100  0.19222100  1
  C  1740  1  0.35089300  0.30266900  0.20200200  1
  C  1742  1  0.32007300  0.30922300  0.18589000  1
  C  1743  1  0.31361400  0.32555500  0.18265800  1
  C  1744  1  0.34926000  0.26471700  0.19210500  1
  C  1747  1  0.27697200  0.31980700  0.87272000  1
  C  1749  1  0.27113800  0.35169900  0.85774200  1
  C  1750  1  0.29418800  0.36201500  0.84769100  1
  C  1752  1  0.30061400  0.33096300  0.86349100  1
  C  1753  1  0.31684900  0.32431900  0.86648400  1
  C  1754  1  0.25658000  0.36078500  0.85814500  1
  C  1757  1  0.68170600  0.97186100  0.87267200  1
  C  1759  1  0.64982600  0.93412700  0.85769200  1
  C  1760  1  0.63947500  0.94684600  0.84767200  1
  C  1762  1  0.67051200  0.98432700  0.86347700  1
  C  1763  1  0.67718100  0.00721900  0.86643500  1
  C  1764  1  0.64073900  0.91048500  0.85812000  1
  C  1767  1  0.02952000  0.72442100  0.87273100  1
  C  1769  1  0.06727200  0.73022000  0.85784200  1
  C  1770  1  0.05453700  0.70720900  0.84773000  1
  C  1772  1  0.01704100  0.70078800  0.86348400  1
  C  1773  1  0.99412700  0.68459400  0.86638100  1
  C  1774  1  0.09091700  0.74477100  0.85826200  1
  C  1777  1  0.36337400  0.98548800  0.53990700  1
  C  1779  1  0.40096900  0.01697200  0.52444600  1
  C  1780  1  0.38831900  0.02768000  0.51489300  1
  C  1782  1  0.35098500  0.99697300  0.53111600  1
  C  1783  1  0.32823500  0.99057600  0.53451600  1
  C  1784  1  0.42456000  0.02569300  0.52433500  1
  C  1787  1  0.60968900  0.63891100  0.53996400  1
  C  1789  1  0.60358200  0.60127000  0.52459600  1
  C  1790  1  0.62689000  0.61391000  0.51496200  1
  C  1792  1  0.63351900  0.65129700  0.53108700  1
  C  1793  1  0.64987500  0.67406000  0.53442200  1
  C  1794  1  0.58874400  0.57767200  0.52457100  1
  C  1797  1  0.01686200  0.39266600  0.53978200  1
  C  1799  1  0.98538000  0.39877600  0.52431300  1
  C  1800  1  0.97466100  0.37541100  0.51477400  1
  C  1802  1  0.00537100  0.36878800  0.53099500  1
  C  1803  1  0.01178900  0.35244700  0.53437400  1
  C  1804  1  0.97664000  0.41363200  0.52423300  1
  C  1807  1  0.61087400  0.98679900  0.53939400  1
  C  1809  1  0.60510700  0.01877200  0.52450200  1
  C  1810  1  0.62812700  0.02904800  0.51440600  1
  C  1812  1  0.63452000  0.99795900  0.53016800  1
  C  1813  1  0.65070800  0.99123400  0.53307500  1
  C  1814  1  0.59056500  0.02787800  0.52489900  1
  C  1817  1  0.01556100  0.63884900  0.53932300  1
  C  1819  1  0.98360500  0.60112800  0.52438600  1
  C  1820  1  0.97332900  0.61388700  0.51431300  1
  C  1822  1  0.00442500  0.65135300  0.53009100  1
  C  1823  1  0.01113700  0.67425700  0.53303200  1
  C  1824  1  0.97447300  0.57747900  0.52479300  1
  C  1827  1  0.36350800  0.39145000  0.53934800  1
  C  1829  1  0.40122800  0.39728200  0.52436100  1
  C  1830  1  0.38849300  0.37421600  0.51433200  1
  C  1832  1  0.35102100  0.36780100  0.53013300  1
  C  1833  1  0.32814000  0.35157400  0.53313400  1
  C  1834  1  0.42487100  0.41184200  0.52472900  1
  C  1837  1  0.99756500  0.24948500  0.04702500  1
  C  1839  1  0.99262100  0.26596300  0.01514100  1
  C  1840  1  0.00042600  0.25175000  0.00384400  1
  C  1842  1  0.00580000  0.23562500  0.03590800  1
  C  1843  1  0.01234700  0.22093100  0.04420900  1
  C  1844  1  0.98711900  0.28136300  0.00679300  1
  C  1847  1  0.23814700  0.00350900  0.04700500  1
  C  1849  1  0.25968800  0.00851700  0.01517600  1
  C  1850  1  0.23771700  0.00075200  0.00381700  1
  C  1852  1  0.21610100  0.99533800  0.03582600  1
  C  1853  1  0.19483000  0.98879700  0.04406400  1
  C  1854  1  0.28062100  0.01404800  0.00687900  1
  C  1857  1  0.75164800  0.76298800  0.04697700  1
  C  1859  1  0.73545300  0.74158000  0.01503900  1
  C  1860  1  0.74968800  0.76362100  0.00377500  1
  C  1862  1  0.76554700  0.78510100  0.03589300  1
  C  1863  1  0.78015900  0.80634400  0.04422900  1
  C  1864  1  0.72015800  0.72066900  0.00664800  1
  C  1867  1  0.99459300  0.76240200  0.00318000  1
  C  1869  1  0.99912100  0.74553100  0.03499800  1
  C  1870  1  0.99154600  0.75990300  0.04634000  1
  C  1872  1  0.98658700  0.77642500  0.01434500  1
  C  1873  1  0.98025800  0.79130000  0.00607600  1
  C  1874  1  0.00433400  0.72989900  0.04329900  1
  C  1877  1  0.75428100  0.00635800  0.00313400  1
  C  1879  1  0.73273400  0.00177100  0.03488000  1
  C  1880  1  0.75461000  0.00925300  0.04629800  1
  C  1882  1  0.77623500  0.01423700  0.01438200  1
  C  1883  1  0.79747500  0.02056100  0.00619200  1
  C  1884  1  0.71186900  0.99660500  0.04311100  1
  C  1887  1  0.23877300  0.24705500  0.00323300  1
  C  1889  1  0.25553300  0.26843600  0.03507800  1
  C  1890  1  0.24112000  0.24648800  0.04640300  1
  C  1892  1  0.22468500  0.22502900  0.01438300  1
  C  1893  1  0.20983800  0.20382800  0.00609800  1
  C  1894  1  0.27113600  0.28927900  0.04340200  1
  C  1897  1  0.33075300  0.91716600  0.71383900  1
  C  1899  1  0.32565300  0.93314700  0.68174100  1
  C  1900  1  0.33386100  0.91913000  0.67064600  1
  C  1902  1  0.33942300  0.90353400  0.70293800  1
  C  1903  1  0.34621400  0.88913200  0.71144600  1
  C  1904  1  0.31988900  0.94826300  0.67320800  1
  C  1907  1  0.57352300  0.67126000  0.71388600  1
  C  1909  1  0.59469900  0.67640200  0.68183300  1
  C  1910  1  0.57252700  0.66830900  0.67068800  1
  C  1912  1  0.55126900  0.66269400  0.70293300  1
  C  1913  1  0.53006000  0.65594700  0.71139000  1
  C  1914  1  0.61558900  0.68212400  0.67334200  1
  C  1917  1  0.08485200  0.42840800  0.71373100  1
  C  1919  1  0.06893300  0.40735000  0.68161400  1
  C  1920  1  0.08310000  0.42955200  0.67053000  1
  C  1922  1  0.09861100  0.45069400  0.70283900  1
  C  1923  1  0.11303900  0.47187200  0.71135900  1
  C  1924  1  0.05377200  0.38649900  0.67306400  1
  C  1927  1  0.32822700  0.42893000  0.66992500  1
  C  1929  1  0.33185600  0.41116600  0.70157900  1
  C  1930  1  0.32446500  0.42560100  0.71304200  1
  C  1932  1  0.32047000  0.44307800  0.68121700  1
  C  1933  1  0.31460000  0.45837000  0.67309900  1
  C  1934  1  0.33661500  0.39515500  0.70975300  1
  C  1937  1  0.08799300  0.67362100  0.66989400  1
  C  1939  1  0.06644700  0.66992400  0.70147500  1
  C  1940  1  0.08821500  0.67728000  0.71301200  1
  C  1942  1  0.10983000  0.68129700  0.68126800  1
  C  1943  1  0.13102800  0.68715900  0.67323100  1
  C  1944  1  0.04565100  0.66518400  0.70958100  1
  C  1947  1  0.57292600  0.91399900  0.66993300  1
  C  1949  1  0.59052200  0.93537700  0.70162800  1
  C  1950  1  0.57605400  0.91353800  0.71306500  1
  C  1952  1  0.55872200  0.89205533  0.68120300  1
  C  1953  1  0.54346200  0.87093200  0.67305900  1
  C  1954  1  0.60650000  0.95613900  0.70983600  1
  C  1957  1  0.66388100  0.58392400  0.38039400  1
  C  1959  1  0.65937400  0.60061200  0.34844900  1
  C  1960  1  0.66731700  0.58646700  0.33721900  1
  C  1962  1  0.67224500  0.57012300  0.36934700  1
  C  1963  1  0.67867800  0.55536500  0.37769900  1
  C  1964  1  0.65398700  0.61606300  0.34003800  1
  C  1967  1  0.90706100  0.33759300  0.38029200  1
  C  1969  1  0.92796600  0.34197600  0.34821200  1
  C  1970  1  0.90574100  0.33380200  0.33713300  1
  C  1972  1  0.88476000  0.32899100  0.36940400  1
  C  1973  1  0.86362900  0.32251400  0.37790200  1
  C  1974  1  0.94876500  0.34745500  0.33967100  1
  C  1977  1  0.41766100  0.09484500  0.38050400  1
  C  1979  1  0.40070900  0.07359900  0.34862800  1
  C  1980  1  0.41468400  0.09568700  0.33735500  1
  C  1982  1  0.43131000  0.11700700  0.36942000  1
  C  1983  1  0.44611700  0.13821600  0.37771800  1
  C  1984  1  0.38523000  0.05273200  0.34027600  1
  C  1987  1  0.66228800  0.09492000  0.33648200  1
  C  1989  1  0.66619700  0.07765400  0.36832200  1
  C  1990  1  0.65859800  0.09202700  0.37962900  1
  C  1992  1  0.65427100  0.10895900  0.34761400  1
  C  1993  1  0.64815000  0.12398900  0.33933400  1
  C  1994  1  0.67115500  0.06185700  0.37665300  1
  C  1997  1  0.41918000  0.33918100  0.33653600  1
  C  1999  1  0.39826100  0.33538100  0.36849700  1
  C  2000  1  0.42035500  0.34315100  0.37966900  1
  C  2002  1  0.44135700  0.34737600  0.34752900  1
  C  2003  1  0.46244900  0.35353400  0.33911300  1
  C  2004  1  0.37755300  0.33039400  0.37694300  1
  C  2007  1  0.90661900  0.58215200  0.33637300  1
  C  2009  1  0.92426800  0.60337600  0.36811600  1
  C  2010  1  0.91003200  0.58142100  0.37948200  1
  C  2012  1  0.89269800  0.56011400  0.34756100  1
  C  2013  1  0.87757700  0.53895400  0.33935000  1
  C  2014  1  0.94014500  0.62414900  0.37637100  1
  C  2017  1  0.11430500  0.19645400  0.90472000  1
  C  2019  1  0.08453900  0.20025700  0.92532500  1
  C  2020  1  0.06990500  0.19669800  0.90754900  1
  C  2022  1  0.09940400  0.19231700  0.88704300  1
  C  2023  1  0.10461900  0.18797000  0.86863600  1
  C  2024  1  0.08060100  0.20633100  0.94356400  1
  C  2027  1  0.06895400  0.88712900  0.90468000  1
  C  2029  1  0.10254000  0.91692800  0.92524100  1
  C  2030  1  0.11356100  0.93155800  0.90745100  1
  C  2032  1  0.07966900  0.90200900  0.88698700  1
  C  2033  1  0.07007200  0.89676300  0.86859400  1
  C  2034  1  0.11259300  0.92089500  0.94346400  1
  C  2037  1  0.80521200  0.93269200  0.90459800  1
  C  2039  1  0.80135700  0.89908500  0.92517800  1
  C  2040  1  0.80486000  0.88799800  0.90738400  1
  C  2042  1  0.80930300  0.92191700  0.88690800  1
  C  2043  1  0.81365500  0.93149700  0.86850800  1
  C  2044  1  0.79520300  0.88903900  0.94340000  1
  C  2047  1  0.92279600  0.81463600  0.14560300  1
  C  2049  1  0.88914100  0.81008000  0.12468700  1
  C  2050  1  0.87754400  0.81307100  0.14237000  1
  C  2052  1  0.91152800  0.81825800  0.16318500  1
  C  2053  1  0.92085000  0.82266500  0.18168300  1
  C  2054  1  0.87946100  0.80406700  0.10632900  1
  C  2057  1  0.18592900  0.12285800  0.14553600  1
  C  2059  1  0.19050400  0.09378300  0.12458300  1
  C  2060  1  0.18754800  0.07919500  0.14225700  1
  C  2062  1  0.18234700  0.10796100  0.16310500  1
  C  2063  1  0.17795900  0.11286100  0.18161500  1
  C  2064  1  0.19659500  0.09018800  0.10623400  1
  C  2067  1  0.87784800  0.07775800  0.14557800  1
  C  2069  1  0.90688300  0.11140600  0.12459600  1
  C  2070  1  0.92146500  0.12308600  0.14226200  1
  C  2072  1  0.89271600  0.08914400  0.16314500  1
  C  2073  1  0.88780800  0.07989800  0.18166900  1
  C  2074  1  0.91046100  0.12105900  0.10623400  1
  C  2077  1  0.44823100  0.86344000  0.57149700  1
  C  2079  1  0.41852100  0.86723300  0.59218700  1
  C  2080  1  0.40390300  0.86380300  0.57442600  1
  C  2082  1  0.43332500  0.85937900  0.55384200  1
  C  2083  1  0.43851200  0.85507300  0.53541000  1
  C  2084  1  0.41467100  0.87333300  0.61044700  1
  C  2087  1  0.40286500  0.55402800  0.57159300  1
  C  2089  1  0.43642000  0.58378200  0.59221200  1
  C  2090  1  0.44751600  0.59841800  0.57444300  1
  C  2092  1  0.41365200  0.56893000  0.55392000  1
  C  2093  1  0.40410500  0.56372100  0.53550700  1
  C  2094  1  0.44638100  0.58775500  0.61047500  1
  C  2097  1  0.13883400  0.59948200  0.57151700  1
  C  2099  1  0.13508900  0.56597300  0.59216900  1
  C  2100  1  0.13859300  0.55485200  0.57439600  1
  C  2102  1  0.14298000  0.58870800  0.55385300  1
  C  2103  1  0.14731400  0.59824500  0.53543600  1
  C  2104  1  0.12905000  0.55600100  0.61042200  1
  C  2107  1  0.25802300  0.48401900  0.81067300  1
  C  2109  1  0.22385300  0.47832000  0.78984900  1
  C  2110  1  0.21262200  0.48216700  0.80737100  1
  C  2112  1  0.24711400  0.48849400  0.82806500  1
  C  2113  1  0.25678400  0.49374300  0.84643400  1
  C  2114  1  0.21371900  0.47121000  0.77174100  1
  C  2117  1  0.51740500  0.78865000  0.81067200  1
  C  2119  1  0.52308100  0.76016700  0.78984900  1
  C  2120  1  0.51928500  0.74511800  0.80738000  1
  C  2122  1  0.51293400  0.77327300  0.82806700  1
  C  2123  1  0.50768700  0.77770100  0.84643300  1
  C  2124  1  0.53025400  0.75719400  0.77175000  1
  C  2127  1  0.21271800  0.74367000  0.81063900  1
  C  2129  1  0.24121400  0.77779100  0.78980600  1
  C  2130  1  0.25633200  0.78898700  0.80731200  1
  C  2132  1  0.22815400  0.75450800  0.82801400  1
  C  2133  1  0.22375700  0.74481200  0.84637300  1
  C  2134  1  0.24428700  0.78790300  0.77168200  1
  C  2137  1  0.77953100  0.52738200  0.23990600  1
  C  2139  1  0.75029600  0.53222700  0.26037900  1
  C  2140  1  0.73518200  0.52774300  0.24276500  1
  C  2142  1  0.76411000  0.52224000  0.22242900  1
  C  2143  1  0.76883500  0.51697300  0.20418000  1
  C  2144  1  0.74689200  0.53931600  0.27836500  1
  C  2147  1  0.73379700  0.22123000  0.23980500  1
  C  2149  1  0.76784700  0.25039200  0.26034400  1
  C  2150  1  0.77853200  0.26553400  0.24275100  1
  C  2152  1  0.74413000  0.23666300  0.22234700  1
  C  2153  1  0.73419100  0.23196400  0.20407900  1
  C  2154  1  0.77829400  0.25374700  0.27834300  1
  C  2157  1  0.47330000  0.26686500  0.23978500  1
  C  2159  1  0.46842700  0.23278500  0.26027600  1
  C  2160  1  0.47278300  0.22208200  0.24264400  1
  C  2162  1  0.47831000  0.25650600  0.22229100  1
  C  2163  1  0.48352500  0.26646400  0.20403000  1
  C  2164  1  0.46130800  0.22231600  0.27826800  1
  C  2167  1  0.59168400  0.15064300  0.47699800  1
  C  2169  1  0.55749500  0.14496900  0.45623200  1
  C  2170  1  0.54634100  0.14890300  0.47376200  1
  C  2172  1  0.58090000  0.15529200  0.49438800  1
  C  2173  1  0.59065900  0.16065600  0.51272100  1
  C  2174  1  0.54732900  0.13789500  0.43813000  1
  C  2177  1  0.85170600  0.45583900  0.47690300  1
  C  2179  1  0.85734000  0.42728400  0.45613800  1
  C  2180  1  0.85344800  0.41222400  0.47368000  1
  C  2182  1  0.84712300  0.44043800  0.49430500  1
  C  2183  1  0.84180800  0.44486000  0.51264800  1
  C  2184  1  0.86445200  0.42421200  0.43804700  1
  C  2187  1  0.54658900  0.41047800  0.47692800  1
  C  2189  1  0.57513200  0.44472800  0.45621000  1
  C  2190  1  0.59019100  0.45585800  0.47376200  1
  C  2192  1  0.56197400  0.42127800  0.49434200  1
  C  2193  1  0.55753400  0.41150800  0.51267300  1
  C  2194  1  0.57819700  0.45495500  0.43814000  1
  C  2197  1  0.04923200  0.21599100  0.50527500  1
  C  2198  1  0.03045900  0.20510000  0.52022000  1
  C  2199  1  0.01299500  0.21263300  0.52230800  1
  C  2200  1  0.01394200  0.23185500  0.51006600  1
  C  2201  1  0.03087000  0.24012200  0.49336800  1
  C  2202  1  0.04838200  0.23265000  0.49115800  1
  C  2203  1  0.99692800  0.24204200  0.51496900  1
  C  2204  1  0.97194300  0.22038100  0.50898400  1
  C  2205  1  0.96640400  0.21283200  0.48796800  1
  C  2206  1  0.94404700  0.19228700  0.48201700  1
  C  2207  1  0.92636400  0.17820200  0.49705500  1
  C  2208  1  0.93196400  0.18455200  0.51805700  1
  C  2209  1  0.95444200  0.20480300  0.52383500  1
  C  2210  1  0.99868000  0.25013900  0.53759200  1
  C  2211  1  0.00390400  0.26603300  0.50372300  1
  C  2212  1  0.98770900  0.27020200  0.49136100  1
  C  2213  1  0.99559700  0.29253000  0.48088300  1
  C  2214  1  0.01971400  0.31249400  0.48326400  1
  C  2215  1  0.03531700  0.30910300  0.49695200  1
  C  2216  1  0.02773700  0.28654300  0.50660400  1
  C  2217  1  0.01905100  0.25547200  0.55045200  1
  C  2218  1  0.02023600  0.26269100  0.57112000  1
  C  2219  1  0.00121300  0.26535600  0.58000300  1
  C  2220  1  0.98186300  0.26226300  0.56697100  1
  C  2221  1  0.98112000  0.25559400  0.54608800  1
  C  2238  1  0.13763200  0.96814000  0.50514900  1
  C  2239  1  0.14549300  0.98692000  0.52008400  1
  C  2240  1  0.17047700  0.00443000  0.52215300  1
  C  2241  1  0.18876400  0.00345600  0.50994900  1
  C  2242  1  0.18012200  0.98653900  0.49324100  1
  C  2243  1  0.15514300  0.96902300  0.49101700  1
  C  2244  1  0.21595700  0.02043000  0.51490200  1
  C  2245  1  0.21934100  0.04543700  0.50892000  1
  C  2246  1  0.21738100  0.05100100  0.48790000  1
  C  2247  1  0.21920500  0.07336200  0.48194600  1
  C  2248  1  0.22275300  0.09102500  0.49698600  1
  C  2249  1  0.22344400  0.08540100  0.51799100  1
  C  2250  1  0.22121300  0.06292000  0.52376900  1
  C  2251  1  0.22221300  0.01862500  0.53754100  1
  C  2252  1  0.23298500  0.01344900  0.50368800  1
  C  2253  1  0.25340900  0.02966000  0.49138800  1
  C  2254  1  0.26787800  0.02178100  0.48094400  1
  C  2255  1  0.26368400  0.99764800  0.48329600  1
  C  2256  1  0.24461600  0.98201800  0.49691200  1
  C  2257  1  0.22963000  0.98960100  0.50655000  1
  C  2258  1  0.20713300  0.99820700  0.55034300  1
  C  2259  1  0.21308900  0.99695100  0.57102000  1
  C  2260  1  0.23474700  0.01593500  0.57997200  1
  C  2261  1  0.25104900  0.03533100  0.56700100  1
  C  2262  1  0.24520200  0.03614400  0.54610600  1
  C  2279  1  0.80146400  0.87978460  0.50511400  1
  C  2280  1  0.81239800  0.87193860  0.52005100  1
  C  2281  1  0.80493400  0.84695860  0.52212900  1
  C  2282  1  0.78566200  0.82865960  0.50994000  1
  C  2283  1  0.77735100  0.83728560  0.49324700  1
  C  2284  1  0.78485000  0.86226960  0.49098000  1
  C  2285  1  0.77547300  0.80147160  0.51488700  1
  C  2286  1  0.79709200  0.79810555  0.50885300  1
  C  2287  1  0.80456700  0.80007400  0.48781800  1
  C  2288  1  0.82509200  0.79825800  0.48181200  1
  C  2289  1  0.83924000  0.79470200  0.49681300  1
  C  2290  1  0.83297900  0.79400900  0.51783300  1
  C  2291  1  0.81273900  0.79623200  0.52366300  1
  C  2292  1  0.76745900  0.79520960  0.53753400  1
  C  2293  1  0.75144400  0.78443060  0.50370300  1
  C  2294  1  0.74721700  0.76400660  0.49139700  1
  C  2295  1  0.72484800  0.74952160  0.48098800  1
  C  2296  1  0.70491300  0.75371860  0.48336300  1
  C  2297  1  0.70835900  0.77276960  0.49700500  1
  C  2298  1  0.73094900  0.78777260  0.50660600  1
  C  2299  1  0.76210100  0.81026260  0.55035300  1
  C  2300  1  0.75484200  0.80425960  0.57101500  1
  C  2301  1  0.75215500  0.78258660  0.57994200  1
  C  2302  1  0.75529400  0.76631960  0.56696100  1
  C  2303  1  0.76201300  0.77222060  0.54608200  1
  C  2320  1  0.85323000  0.82495400  0.74046600  1
  C  2321  1  0.84514200  0.83564300  0.72550500  1
  C  2322  1  0.82010400  0.82799555  0.72353500  1
  C  2323  1  0.80194100  0.80875455  0.73584300  1
  C  2324  1  0.81079000  0.80052000  0.75243200  1
  C  2325  1  0.83582200  0.80818700  0.75458500  1
  C  2326  1  0.77467700  0.79882360  0.73140200  1
  C  2327  1  0.77174700  0.82070060  0.73750700  1
  C  2328  1  0.77424200  0.82844860  0.75849700  1
  C  2329  1  0.77265000  0.84910560  0.76450700  1
  C  2330  1  0.76887900  0.86315560  0.74954500  1
  C  2331  1  0.76785600  0.85671660  0.72854100  1
  C  2332  1  0.76980800  0.83632960  0.72270900  1
  C  2333  1  0.76754400  0.79068760  0.70888600  1
  C  2334  1  0.75781700  0.77494060  0.74283000  1
  C  2335  1  0.73791300  0.77103660  0.75569200  1
  C  2336  1  0.72354000  0.74874360  0.76623100  1
  C  2337  1  0.72729000  0.72857655  0.76344500  1
  C  2338  1  0.74584300  0.73174300  0.74933500  1
  C  2339  1  0.76075900  0.75425500  0.73957300  1
  C  2340  1  0.78239100  0.78599955  0.69518900  1
  C  2341  1  0.77609400  0.78001055  0.67434600  1
  C  2342  1  0.75413400  0.77761760  0.66654200  1
  C  2343  1  0.73781700  0.77960160  0.68022100  1
  C  2344  1  0.74418100  0.78525960  0.70117400  1
  C  2361  1  0.19160800  0.07478500  0.74034400  1
  C  2362  1  0.18098500  0.05602900  0.72535800  1
  C  2363  1  0.18868300  0.03867600  0.72339600  1
  C  2364  1  0.20788400  0.03974600  0.73575400  1
  C  2365  1  0.21606200  0.05681400  0.75235100  1
  C  2366  1  0.20837000  0.07416300  0.75448000  1
  C  2367  1  0.21782600  0.02241200  0.73135800  1
  C  2368  1  0.19592200  0.99760300  0.73741700  1
  C  2369  1  0.18808300  0.99233600  0.75838600  1
  C  2370  1  0.16739000  0.97009200  0.76434900  1
  C  2371  1  0.15339700  0.95228200  0.74936000  1
  C  2372  1  0.15994600  0.95770000  0.72837300  1
  C  2373  1  0.18035300  0.98004400  0.72258700  1
  C  2374  1  0.22604400  0.02342800  0.70886500  1
  C  2375  1  0.24166600  0.02941700  0.74285000  1
  C  2376  1  0.24550600  0.01340700  0.75575600  1
  C  2377  1  0.26776600  0.02130300  0.76633900  1
  C  2378  1  0.28795600  0.04521300  0.76358100  1
  C  2379  1  0.28483300  0.06063300  0.74947500  1
  C  2380  1  0.26236600  0.05304900  0.73964200  1
  C  2381  1  0.23075800  0.04295500  0.69515200  1
  C  2382  1  0.23682500  0.04265400  0.67433000  1
  C  2383  1  0.23927700  0.02310400  0.66656900  1
  C  2384  1  0.23727000  0.00481600  0.68027300  1
  C  2385  1  0.23152500  0.00551100  0.70120300  1
  C  2402  1  0.94174000  0.16330600  0.74032400  1
  C  2403  1  0.96048200  0.17143100  0.72532500  1
  C  2404  1  0.97786600  0.19647400  0.72337400  1
  C  2405  1  0.97682100  0.21461300  0.73573800  1
  C  2406  1  0.95974400  0.20573400  0.75233100  1
  C  2407  1  0.94239200  0.18069600  0.75446900  1
  C  2408  1  0.99418800  0.24188800  0.73136300  1
  C  2409  1  0.01897300  0.24475900  0.73746500  1
  C  2410  1  0.02421000  0.24220700  0.75844600  1
  C  2411  1  0.04644200  0.24375300  0.76444300  1
  C  2412  1  0.06425900  0.24752900  0.74947400  1
  C  2413  1  0.05885600  0.24861100  0.72847600  1
  C  2414  1  0.03652700  0.24668600  0.72265800  1
  C  2415  1  0.99325300  0.24913600  0.70887200  1
  C  2416  1  0.98716800  0.25872600  0.74283200  1
  C  2417  1  0.00315900  0.27857500  0.75574800  1
  C  2418  1  0.99524400  0.29293200  0.76631400  1
  C  2419  1  0.97132600  0.28918500  0.76354000  1
  C  2420  1  0.95594100  0.27067500  0.74940000  1
  C  2421  1  0.96354400  0.25579600  0.73958500  1
  C  2422  1  0.97376500  0.23436700  0.69511100  1
  C  2423  1  0.97412000  0.24079200  0.67429800  1
  C  2424  1  0.99374900  0.26276700  0.66657800  1
  C  2425  1  0.01201400  0.27900500  0.68032000  1
  C  2426  1  0.01123100  0.27253300  0.70124900  1
  C  2443  1  0.94347100  0.82708500  0.74354500  1
  C  2444  1  0.96107700  0.83718600  0.72758900  1
  C  2445  1  0.97840500  0.82959500  0.72472100  1
  C  2446  1  0.97809900  0.81060400  0.73684500  1
  C  2447  1  0.96194200  0.80254400  0.75408300  1
  C  2448  1  0.94470400  0.81021400  0.75717500  1
  C  2449  1  0.99507700  0.80053000  0.73143100  1
  C  2450  1  0.02013700  0.82219600  0.73722300  1
  C  2451  1  0.02628800  0.82942100  0.75824500  1
  C  2452  1  0.04898900  0.84964000  0.76400700  1
  C  2453  1  0.06637200  0.86367300  0.74876600  1
  C  2454  1  0.05987000  0.85813200  0.72778500  1
  C  2455  1  0.03711800  0.83813600  0.72222100  1
  C  2456  1  0.99321600  0.79261400  0.70875300  1
  C  2457  1  0.98821000  0.77642500  0.74242700  1
  C  2458  1  0.00450300  0.77208900  0.75448200  1
  C  2459  1  0.99663500  0.74971000  0.76487200  1
  C  2460  1  0.97242400  0.72983900  0.76268800  1
  C  2461  1  0.95673300  0.73339100  0.74922700  1
  C  2462  1  0.96429600  0.75600400  0.73967500  1
  C  2463  1  0.97281900  0.78736200  0.69596800  1
  C  2464  1  0.97168900  0.78044600  0.67520700  1
  C  2465  1  0.99072800  0.77790000  0.66621000  1
  C  2466  1  0.01011600  0.78092200  0.67915100  1
  C  2467  1  0.01086300  0.78739100  0.70008400  1
  C  2484  1  0.85372200  0.07300400  0.74354200  1
  C  2485  1  0.84617700  0.05534500  0.72762600  1
  C  2486  1  0.82124900  0.03804400  0.72477300  1
  C  2487  1  0.80258400  0.03843200  0.73686400  1
  C  2488  1  0.81070600  0.05467300  0.75404300  1
  C  2489  1  0.83563000  0.07187200  0.75712700  1
  C  2490  1  0.77552600  0.02147700  0.73144300  1
  C  2491  1  0.77210600  0.99641000  0.73725400  1
  C  2492  1  0.77319900  0.99028200  0.75827700  1
  C  2493  1  0.77069500  0.96757600  0.76405500  1
  C  2494  1  0.76729600  0.95016100  0.74882800  1
  C  2495  1  0.76819600  0.95662200  0.72784200  1
  C  2496  1  0.77096900  0.97937600  0.72225900  1
  C  2497  1  0.76951300  0.02337100  0.70875700  1
  C  2498  1  0.75829000  0.02835400  0.74243400  1
  C  2499  1  0.73766800  0.01207200  0.75450200  1
  C  2500  1  0.72314400  0.01993800  0.76487200  1
  C  2501  1  0.72746300  0.04413800  0.76266700  1
  C  2502  1  0.74671200  0.05982200  0.74920300  1
  C  2503  1  0.76177400  0.05226200  0.73966900  1
  C  2504  1  0.78472200  0.04377000  0.69599900  1
  C  2505  1  0.77900800  0.04493600  0.67522500  1
  C  2506  1  0.75744800  0.02591800  0.66617800  1
  C  2507  1  0.74103900  0.00651400  0.67908400  1
  C  2508  1  0.74664900  0.00576600  0.70005000  1
  C  2525  1  0.18940200  0.16284500  0.74350100  1
  C  2526  1  0.17934800  0.17041000  0.72755000  1
  C  2527  1  0.18700900  0.19534555  0.72468500  1
  C  2528  1  0.20599600  0.21399555  0.73683500  1
  C  2529  1  0.21402400  0.20585400  0.75406100  1
  C  2530  1  0.20632400  0.18093200  0.75711300  1
  C  2531  1  0.21610100  0.24106260  0.73145100  1
  C  2532  1  0.19442600  0.24445060  0.73722300  1
  C  2533  1  0.18714500  0.24332260  0.75823300  1
  C  2534  1  0.16689400  0.24576260  0.76397000  1
  C  2535  1  0.15289800  0.24914660  0.74871500  1
  C  2536  1  0.15853100  0.24829660  0.72774000  1
  C  2537  1  0.17855000  0.24556860  0.72219800  1
  C  2538  1  0.22408400  0.24715160  0.70878800  1
  C  2539  1  0.24017400  0.25827460  0.74250100  1
  C  2540  1  0.24448100  0.27888660  0.75456700  1
  C  2541  1  0.26683500  0.29338160  0.76499500  1
  C  2542  1  0.28672200  0.28906755  0.76282100  1
  C  2543  1  0.28320500  0.26984900  0.74934600  1
  C  2544  1  0.26060300  0.25479000  0.73977800  1
  C  2545  1  0.22934000  0.23200055  0.69601600  1
  C  2546  1  0.23633500  0.23781355  0.67527200  1
  C  2547  1  0.23892200  0.25941460  0.66627200  1
  C  2548  1  0.23587000  0.27577060  0.67920000  1
  C  2549  1  0.22934200  0.27003460  0.70012200  1
  C  2566  1  0.13861700  0.21633760  0.50298000  1
  C  2567  1  0.14636800  0.20656060  0.51901700  1
  C  2568  1  0.17135100  0.21438160  0.52181200  1
  C  2569  1  0.18989100  0.23336560  0.50957600  1
  C  2570  1  0.18157100  0.24125660  0.49237200  1
  C  2571  1  0.15659400  0.23331860  0.48933300  1
  C  2572  1  0.21702500  0.24331560  0.51459800  1
  C  2573  1  0.22012100  0.22146255  0.50881000  1
  C  2574  1  0.21866000  0.21394800  0.48783700  1
  C  2575  1  0.22097200  0.19360500  0.48214700  1
  C  2576  1  0.22448300  0.17971100  0.49742500  1
  C  2577  1  0.22376800  0.18547100  0.51838300  1
  C  2578  1  0.22120000  0.20558900  0.52387100  1
  C  2579  1  0.22380100  0.25141160  0.53716000  1
  C  2580  1  0.23408500  0.26726860  0.50334600  1
  C  2581  1  0.25433500  0.27134660  0.49088000  1
  C  2582  1  0.26876600  0.29365460  0.48038000  1
  C  2583  1  0.26476200  0.31370460  0.48285700  1
  C  2584  1  0.24585800  0.31036860  0.49664400  1
  C  2585  1  0.23087000  0.28782760  0.50633100  1
  C  2586  1  0.20873300  0.25600160  0.55065900  1
  C  2587  1  0.21469200  0.26182860  0.57157900  1
  C  2588  1  0.23651300  0.26413260  0.57965700  1
  C  2589  1  0.25303600  0.26223255  0.56617500  1
  C  2590  1  0.24701100  0.25670955  0.54516100  1
  C  2607  1  0.80111600  0.96881400  0.50288200  1
  C  2608  1  0.81090300  0.98634600  0.51891400  1
  C  2609  1  0.80306000  0.00349100  0.52171600  1
  C  2610  1  0.78405800  0.00302500  0.50949000  1
  C  2611  1  0.77615500  0.98679800  0.49229600  1
  C  2612  1  0.78412700  0.96979100  0.48923500  1
  C  2613  1  0.77409300  0.02019500  0.51451700  1
  C  2614  1  0.79593000  0.04515300  0.50872400  1
  C  2615  1  0.80343700  0.05120300  0.48774900  1
  C  2616  1  0.82375100  0.07387500  0.48205100  1
  C  2617  1  0.83762800  0.09130200  0.49732100  1
  C  2618  1  0.83188200  0.08482900  0.51828200  1
  C  2619  1  0.81178900  0.06212600  0.52377900  1
  C  2620  1  0.76600200  0.01886500  0.53708200  1
  C  2621  1  0.75013200  0.01328700  0.50327300  1
  C  2622  1  0.74603600  0.02945300  0.49081400  1
  C  2623  1  0.72371500  0.02157200  0.48033600  1
  C  2624  1  0.70369000  0.99750200  0.48279500  1
  C  2625  1  0.70703100  0.98194400  0.49659000  1
  C  2626  1  0.72958400  0.98950800  0.50626200  1
  C  2627  1  0.76142800  0.99920700  0.55057600  1
  C  2628  1  0.75555500  0.99930400  0.57148900  1
  C  2629  1  0.75319800  0.01878900  0.57955700  1
  C  2630  1  0.75507900  0.03721500  0.56608700  1
  C  2631  1  0.76067000  0.03675300  0.54508500  1
  C  2648  1  0.04868300  0.87867000  0.50296900  1
  C  2649  1  0.03115700  0.87094700  0.51900600  1
  C  2650  1  0.01396900  0.84597000  0.52180200  1
  C  2651  1  0.01438600  0.82741400  0.50957100  1
  C  2652  1  0.03062400  0.83571200  0.49238500  1
  C  2653  1  0.04767900  0.86067900  0.48933500  1
  C  2654  1  0.99713200  0.80028300  0.51456300  1
  C  2655  1  0.97222300  0.79726200  0.50873200  1
  C  2656  1  0.96623900  0.79875500  0.48774400  1
  C  2657  1  0.94360600  0.79646700  0.48200700  1
  C  2658  1  0.92617200  0.79297800  0.49725000  1
  C  2659  1  0.93260200  0.79370100  0.51822200  1
  C  2660  1  0.95525600  0.79621900  0.52375700  1
  C  2661  1  0.99835800  0.79346200  0.53712900  1
  C  2662  1  0.00401000  0.78320100  0.50333300  1
  C  2663  1  0.98784700  0.76298400  0.49083100  1
  C  2664  1  0.99571800  0.74854400  0.48033900  1
  C  2665  1  0.01975300  0.75250900  0.48285700  1
  C  2666  1  0.03529200  0.77134800  0.49670400  1
  C  2667  1  0.02775100  0.78635500  0.50637500  1
  C  2668  1  0.01797900  0.80847200  0.55068000  1
  C  2669  1  0.01773000  0.80247700  0.57160400  1
  C  2670  1  0.99817100  0.78064900  0.57962100  1
  C  2671  1  0.97978800  0.76416300  0.56608600  1
  C  2672  1  0.98037700  0.77025200  0.54508000  1
  C  2689  1  0.38323500  0.88311600  0.17222100  1
  C  2690  1  0.36451300  0.87226800  0.18721600  1
  C  2691  1  0.34700300  0.87974500  0.18929600  1
  C  2692  1  0.34788600  0.89891600  0.17702700  1
  C  2693  1  0.36478100  0.90716100  0.16030500  1
  C  2694  1  0.38230800  0.89971400  0.15808000  1
  C  2695  1  0.33077700  0.90901000  0.18185700  1
  C  2696  1  0.30584500  0.88729800  0.17581800  1
  C  2697  1  0.30038300  0.87977200  0.15479000  1
  C  2698  1  0.27806700  0.85920600  0.14878800  1
  C  2699  1  0.26035600  0.84505300  0.16378700  1
  C  2700  1  0.26591400  0.85134200  0.18480400  1
  C  2701  1  0.28834900  0.87162300  0.19063000  1
  C  2702  1  0.33237600  0.91708000  0.20447200  1
  C  2703  1  0.33775200  0.93299700  0.17060500  1
  C  2704  1  0.32158000  0.93712800  0.15817300  1
  C  2705  1  0.32947400  0.95944900  0.14767600  1
  C  2706  1  0.35357700  0.97943000  0.15008000  1
  C  2707  1  0.36916400  0.97606000  0.16380000  1
  C  2708  1  0.36156400  0.95353100  0.17351900  1
  C  2709  1  0.35269700  0.92251600  0.21743200  1
  C  2710  1  0.35376700  0.92981900  0.23806400  1
  C  2711  1  0.33468100  0.93247400  0.24682800  1
  C  2712  1  0.31533800  0.92919800  0.23369700  1
  C  2713  1  0.31470700  0.92245100  0.21284900  1
  C  2730  1  0.47160300  0.63498700  0.17218300  1
  C  2731  1  0.47946600  0.65374700  0.18714400  1
  C  2732  1  0.50444400  0.67128800  0.18919800  1
  C  2733  1  0.52274100  0.67036400  0.17697200  1
  C  2734  1  0.51410300  0.65341600  0.16028600  1
  C  2735  1  0.48912800  0.63588800  0.15805800  1
  C  2736  1  0.54993900  0.68744800  0.18184200  1
  C  2737  1  0.55320500  0.71239400  0.17579000  1
  C  2738  1  0.55115200  0.71784700  0.15475700  1
  C  2739  1  0.55293400  0.74017000  0.14873700  1
  C  2740  1  0.55652000  0.75790400  0.16372000  1
  C  2741  1  0.55726100  0.75237000  0.18474100  1
  C  2742  1  0.55506800  0.72992300  0.19058700  1
  C  2743  1  0.55633100  0.68581100  0.20447500  1
  C  2744  1  0.56696700  0.68046400  0.17062500  1
  C  2745  1  0.58728100  0.69661800  0.15819900  1
  C  2746  1  0.60170100  0.68870760  0.14771300  1
  C  2747  1  0.59755100  0.66459460  0.15011700  1
  C  2748  1  0.57861400  0.64903760  0.16386500  1
  C  2749  1  0.56368000  0.65664960  0.17355900  1
  C  2750  1  0.54137900  0.66547900  0.21740200  1
  C  2751  1  0.54753200  0.66436500  0.23805100  1
  C  2752  1  0.56925200  0.68342600  0.24686200  1
  C  2753  1  0.58539900  0.70276600  0.23376800  1
  C  2754  1  0.57935900  0.70343900  0.21290500  1
  C  2771  1  0.13518400  0.54662700  0.17214500  1
  C  2772  1  0.14602800  0.53873000  0.18712300  1
  C  2773  1  0.13853200  0.51374100  0.18918700  1
  C  2774  1  0.11935100  0.49546900  0.17691100  1
  C  2775  1  0.11111800  0.50414600  0.16020000  1
  C  2776  1  0.11859400  0.52912800  0.15798200  1
  C  2777  1  0.10921400  0.46826100  0.18175100  1
  C  2778  1  0.13090400  0.46499700  0.17573000  1
  C  2779  1  0.13846300  0.46708500  0.15470800  1
  C  2780  1  0.15902300  0.46531900  0.14872100  1
  C  2781  1  0.17313100  0.46170300  0.16372500  1
  C  2782  1  0.16680300  0.46093200  0.18473600  1
  C  2783  1  0.14652300  0.46309200  0.19055000  1
  C  2784  1  0.10112300  0.46181500  0.20436600  1
  C  2785  1  0.08522900  0.45126600  0.17048600  1
  C  2786  1  0.08108500  0.43095400  0.15806000  1
  C  2787  1  0.05876800  0.41653700  0.14755600  1
  C  2788  1  0.03880600  0.42069200  0.14993800  1
  C  2789  1  0.04217300  0.43964000  0.16366600  1
  C  2790  1  0.06470400  0.45456200  0.17338600  1
  C  2791  1  0.09572300  0.47674200  0.21730500  1
  C  2792  1  0.08840800  0.47053700  0.23793900  1
  C  2793  1  0.08566100  0.44876500  0.24671300  1
  C  2794  1  0.08890100  0.43266100  0.23360100  1
  C  2795  1  0.09568600  0.43876100  0.21275800  1
  C  2812  1  0.18818600  0.49371600  0.40561100  1
  C  2813  1  0.17937500  0.50318100  0.39016200  1
  C  2814  1  0.15418800  0.49499000  0.38848200  1
  C  2815  1  0.13659200  0.47637200  0.40160200  1
  C  2816  1  0.14617500  0.46950800  0.41859700  1
  C  2817  1  0.17134800  0.47771000  0.42045500  1
  C  2818  1  0.10912100  0.46569400  0.39762200  1
  C  2819  1  0.10584900  0.48745400  0.40334600  1
  C  2820  1  0.10827900  0.49558400  0.42421100  1
  C  2821  1  0.10648400  0.51623600  0.42981900  1
  C  2822  1  0.10259100  0.52991800  0.41456900  1
  C  2823  1  0.10157000  0.52305500  0.39367800  1
  C  2824  1  0.10370600  0.50266300  0.38823900  1
  C  2825  1  0.10137200  0.45661600  0.37540000  1
  C  2826  1  0.09308500  0.44215500  0.40973900  1
  C  2827  1  0.07308000  0.43810100  0.42256000  1
  C  2828  1  0.05995000  0.41646000  0.43423000  1
  C  2829  1  0.06580000  0.39757400  0.43302700  1
  C  2830  1  0.08356400  0.40012900  0.41840700  1
  C  2831  1  0.09701700  0.42195200  0.40729800  1
  C  2832  1  0.11595000  0.45154700  0.36171600  1
  C  2833  1  0.10932800  0.44516700  0.34097500  1
  C  2834  1  0.08733600  0.44281400  0.33333333  1
  C  2835  1  0.07124600  0.44505900  0.34704800  1
  C  2836  1  0.07784300  0.45093700  0.36793900  1
  C  2853  1  0.52362600  0.74088900  0.40562000  1
  C  2854  1  0.51420000  0.72261800  0.39016400  1
  C  2855  1  0.52244600  0.70566600  0.38847900  1
  C  2856  1  0.54103900  0.70668900  0.40163300  1
  C  2857  1  0.54784100  0.72310500  0.41864500  1
  C  2858  1  0.53963900  0.74007700  0.42046900  1
  C  2859  1  0.55173000  0.68990000  0.39769000  1
  C  2860  1  0.52996500  0.66486700  0.40340300  1
  C  2861  1  0.52180400  0.65917500  0.42425900  1
  C  2862  1  0.50114000  0.63672900  0.42985600  1
  C  2863  1  0.48748600  0.61914700  0.41460300  1
  C  2864  1  0.49440100  0.62497100  0.39371900  1
  C  2865  1  0.51478800  0.64750700  0.38828900  1
  C  2866  1  0.56086100  0.69122300  0.37548800  1
  C  2867  1  0.57524400  0.69741200  0.40984700  1
  C  2868  1  0.57928400  0.68145600  0.42267700  1
  C  2869  1  0.60090100  0.68997760  0.43438300  1
  C  2870  1  0.61979800  0.71470660  0.43317000  1
  C  2871  1  0.61726300  0.72991300  0.41853300  1
  C  2872  1  0.59544400  0.72154800  0.40741900  1
  C  2873  1  0.56593900  0.71085300  0.36178100  1
  C  2874  1  0.57248000  0.71066500  0.34107800  1
  C  2875  1  0.57490500  0.69104500  0.33343400  1
  C  2876  1  0.57263900  0.67271800  0.34722400  1
  C  2877  1  0.56656200  0.67337300  0.36806700  1
  C  2894  1  0.27647900  0.82927600  0.40556500  1
  C  2895  1  0.29475300  0.83809100  0.39011300  1
  C  2896  1  0.31177800  0.86327500  0.38845400  1
  C  2897  1  0.31075100  0.88086500  0.40158000  1
  C  2898  1  0.29433100  0.87127500  0.41859200  1
  C  2899  1  0.27733200  0.84610800  0.42042300  1
  C  2900  1  0.32758500  0.90834100  0.39765000  1
  C  2901  1  0.35259200  0.91158000  0.40341000  1
  C  2902  1  0.35823700  0.90908900  0.42427700  1
  C  2903  1  0.38066300  0.91085000  0.42991400  1
  C  2904  1  0.39826600  0.91475900  0.41468800  1
  C  2905  1  0.39248200  0.91584200  0.39379300  1
  C  2906  1  0.36996200  0.91370900  0.38832700  1
  C  2907  1  0.32635200  0.91618000  0.37543900  1
  C  2908  1  0.32006000  0.92435200  0.40977900  1
  C  2909  1  0.33598400  0.94432200  0.42264100  1
  C  2910  1  0.32744200  0.95741700  0.43432400  1
  C  2911  1  0.30272400  0.95161000  0.43305100  1
  C  2912  1  0.28755500  0.93389400  0.41838400  1
  C  2913  1  0.29594400  0.92045200  0.40728400  1
  C  2914  1  0.30677600  0.90166000  0.36167600  1
  C  2915  1  0.30708200  0.90841200  0.34096100  1
  C  2916  1  0.32673600  0.93047000  0.33333333  1
  C  2917  1  0.34500900  0.94649300  0.34721600  1
  C  2918  1  0.34424400  0.93973900  0.36806600  1
  C  2935  1  0.27846700  0.49609600  0.40883800  1
  C  2936  1  0.29566500  0.50504100  0.39251600  1
  C  2937  1  0.31255700  0.49683500  0.38994900  1
  C  2938  1  0.31209300  0.47824900  0.40275100  1
  C  2939  1  0.29649800  0.47149700  0.42032700  1
  C  2940  1  0.27974000  0.47982500  0.42313500  1
  C  2941  1  0.32841400  0.46728400  0.39773700  1
  C  2942  1  0.35377700  0.48872000  0.40310000  1
  C  2943  1  0.36036300  0.49644000  0.42397000  1
  C  2944  1  0.38326800  0.51664600  0.42929900  1
  C  2945  1  0.40047400  0.53014100  0.41377000  1
  C  2946  1  0.39358900  0.52405600  0.39291300  1
  C  2947  1  0.37062100  0.50410400  0.38777100  1
  C  2948  1  0.32611300  0.45844900  0.37531700  1
  C  2949  1  0.32099700  0.44350100  0.40945600  1
  C  2950  1  0.33714400  0.43896500  0.42155600  1
  C  2951  1  0.32864600  0.41726260  0.43314700  1
  C  2952  1  0.30371700  0.39875460  0.43251600  1
  C  2953  1  0.28826300  0.40167900  0.41842100  1
  C  2954  1  0.29661900  0.42359900  0.40746800  1
  C  2955  1  0.30569800  0.45317200  0.36255500  1
  C  2956  1  0.30446500  0.44602800  0.34184800  1
  C  2957  1  0.32342000  0.44328400  0.33292600  1
  C  2958  1  0.34264900  0.44603600  0.34594100  1
  C  2959  1  0.34347600  0.45271000  0.36683000  1
  C  2976  1  0.18851700  0.73903200  0.40882900  1
  C  2977  1  0.18029600  0.72181100  0.39252800  1
  C  2978  1  0.15520800  0.70487100  0.38998000  1
  C  2979  1  0.13706900  0.70531000  0.40277900  1
  C  2980  1  0.14589000  0.72091500  0.42035000  1
  C  2981  1  0.17096200  0.73774400  0.42312200  1
  C  2982  1  0.10978900  0.68898700  0.39773800  1
  C  2983  1  0.10586700  0.66362100  0.40307600  1
  C  2984  1  0.10698900  0.65702600  0.42394600  1
  C  2985  1  0.10428300  0.63411600  0.42926800  1
  C  2986  1  0.10058300  0.61691800  0.41373300  1
  C  2987  1  0.10140000  0.62381800  0.39287700  1
  C  2988  1  0.10440700  0.64678500  0.38774100  1
  C  2989  1  0.10331200  0.69134600  0.37531200  1
  C  2990  1  0.09339200  0.69637000  0.40945300  1
  C  2991  1  0.07269200  0.68018900  0.42152100  1
  C  2992  1  0.05948400  0.68866000  0.43313800  1
  C  2993  1  0.06588500  0.71358400  0.43253300  1
  C  2994  1  0.08427100  0.72907100  0.41845900  1
  C  2995  1  0.09785100  0.72074400  0.40749100  1
  C  2996  1  0.11846700  0.71181200  0.36260500  1
  C  2997  1  0.11263200  0.71308200  0.34188400  1
  C  2998  1  0.09097300  0.69413900  0.33290400  1
  C  2999  1  0.07445600  0.67487100  0.34586800  1
  C  3000  1  0.08023900  0.67399300  0.36676800  1
  C  3017  1  0.52122800  0.82877100  0.40883800  1
  C  3018  1  0.51226100  0.83702700  0.39253700  1
  C  3019  1  0.52049300  0.86213100  0.38996600  1
  C  3020  1  0.53909300  0.88025100  0.40276000  1
  C  3021  1  0.54587400  0.87140600  0.42031600  1
  C  3022  1  0.53757900  0.84632400  0.42309000  1
  C  3023  1  0.55005500  0.90753700  0.39774600  1
  C  3024  1  0.52862500  0.91146400  0.40313300  1
  C  3025  1  0.52093800  0.91031400  0.42401600  1
  C  3026  1  0.50074700  0.91301700  0.42938600  1
  C  3027  1  0.48723000  0.91674200  0.41388300  1
  C  3028  1  0.49329200  0.91597300  0.39301300  1
  C  3029  1  0.51323200  0.91295300  0.38783100  1
  C  3030  1  0.55886600  0.91404400  0.37531800  1
  C  3031  1  0.57385200  0.92391100  0.40944500  1
  C  3032  1  0.57838900  0.94459000  0.42155100  1
  C  3033  1  0.60008800  0.95778600  0.43314400  1
  C  3034  1  0.61860200  0.95137300  0.43250300  1
  C  3035  1  0.61566400  0.93298200  0.41841600  1
  C  3036  1  0.59375200  0.91943500  0.40745300  1
  C  3037  1  0.56417000  0.89891000  0.36257500  1
  C  3038  1  0.57135200  0.90482200  0.34187900  1
  C  3039  1  0.57413000  0.92653000  0.33294600  1
  C  3040  1  0.57133300  0.94299600  0.34593900  1
  C  3041  1  0.56461000  0.93714300  0.36681900  1
  C  3058  1  0.47255800  0.88334700  0.16971400  1
  C  3059  1  0.48031200  0.87351100  0.18570100  1
  C  3060  1  0.50529600  0.88131700  0.18847000  1
  C  3061  1  0.52383700  0.90034600  0.17626700  1
  C  3062  1  0.51550700  0.90831500  0.15912200  1
  C  3063  1  0.49053000  0.90038200  0.15609500  1
  C  3064  1  0.55097300  0.91028200  0.18127900  1
  C  3065  1  0.55407000  0.88842900  0.17547200  1
  C  3066  1  0.55253600  0.88090000  0.15449600  1
  C  3067  1  0.55484700  0.86056100  0.14877500  1
  C  3068  1  0.55842300  0.84667800  0.16402500  1
  C  3069  1  0.55779200  0.85246200  0.18499000  1
  C  3070  1  0.55522700  0.87257600  0.19050900  1
  C  3071  1  0.55774900  0.91834600  0.20385200  1
  C  3072  1  0.56803200  0.93425000  0.17004100  1
  C  3073  1  0.58822800  0.93831300  0.15750500  1
  C  3074  1  0.60264700  0.96062700  0.14700700  1
  C  3075  1  0.59864600  0.98067600  0.14950800  1
  C  3076  1  0.57980500  0.97735800  0.16336000  1
  C  3077  1  0.56484500  0.95482000  0.17306800  1
  C  3078  1  0.54265100  0.92283400  0.21740400  1
  C  3079  1  0.54863100  0.92863300  0.23832600  1
  C  3080  1  0.57049000  0.93099200  0.24636400  1
  C  3081  1  0.58706000  0.92924000  0.23282600  1
  C  3082  1  0.58099200  0.92370900  0.21181800  1
  C  3099  1  0.13483100  0.63566400  0.16975500  1
  C  3100  1  0.14464200  0.65323600  0.18575400  1
  C  3101  1  0.13681000  0.67039300  0.18853000  1
  C  3102  1  0.11782300  0.66994000  0.17629300  1
  C  3103  1  0.10989300  0.65366900  0.15912800  1
  C  3104  1  0.11781000  0.63661000  0.15612300  1
  C  3105  1  0.10789300  0.68715200  0.18128200  1
  C  3106  1  0.12976400  0.71209800  0.17549700  1
  C  3107  1  0.13733600  0.71810300  0.15453000  1
  C  3108  1  0.15769800  0.74074700  0.14883400  1
  C  3109  1  0.17154600  0.75820300  0.16409600  1
  C  3110  1  0.16572600  0.75177000  0.18505500  1
  C  3111  1  0.14558500  0.72909900  0.19055300  1
  C  3112  1  0.09979000  0.68587200  0.20384300  1
  C  3113  1  0.08394700  0.68025400  0.17001100  1
  C  3114  1  0.07991000  0.69639300  0.15746100  1
  C  3115  1  0.05761000  0.68851200  0.14694600  1
  C  3116  1  0.03754300  0.66447200  0.14945100  1
  C  3117  1  0.04083900  0.64893500  0.16330300  1
  C  3118  1  0.06336500  0.65649900  0.17302800  1
  C  3119  1  0.09528500  0.66629900  0.21741300  1
  C  3120  1  0.08946400  0.66650700  0.23832600  1
  C  3121  1  0.08700200  0.68596400  0.24632500  1
  C  3122  1  0.08878500  0.70427300  0.23275700  1
  C  3123  1  0.09439800  0.70374800  0.21177000  1
  C  3140  1  0.38257400  0.54557400  0.16984400  1
  C  3141  1  0.36501600  0.53781700  0.18585400  1
  C  3142  1  0.34783800  0.51283100  0.18861700  1
  C  3143  1  0.34826700  0.49429500  0.17636400  1
  C  3144  1  0.36455100  0.50263900  0.15920500  1
  C  3145  1  0.38160100  0.52761600  0.15618700  1
  C  3146  1  0.33101500  0.46715300  0.18131600  1
  C  3147  1  0.30610300  0.46413600  0.17548000  1
  C  3148  1  0.30012800  0.46568400  0.15450100  1
  C  3149  1  0.27748900  0.46339500  0.14877500  1
  C  3150  1  0.26002900  0.45983100  0.16401800  1
  C  3151  1  0.26643700  0.46046800  0.18498700  1
  C  3152  1  0.28909500  0.46298800  0.19051400  1
  C  3153  1  0.33220400  0.46025900  0.20387100  1
  C  3154  1  0.33792300  0.45010900  0.17005100  1
  C  3155  1  0.32180000  0.42995300  0.15747500  1
  C  3156  1  0.32969400  0.41554160  0.14696300  1
  C  3157  1  0.35373200  0.41951960  0.14948500  1
  C  3158  1  0.36925000  0.43832760  0.16336000  1
  C  3159  1  0.36166900  0.45327160  0.17309400  1
  C  3160  1  0.35173700  0.47527600  0.21749400  1
  C  3161  1  0.35141900  0.46921700  0.23841200  1
  C  3162  1  0.33186900  0.44733200  0.24636900  1
  C  3163  1  0.31358200  0.43086600  0.23275400  1
  C  3164  1  0.31426100  0.43698900  0.21174500  1
  C  3181  1  0.71466600  0.54729200  0.84031200  1
  C  3182  1  0.69633000  0.53756600  0.85570400  1
  C  3183  1  0.67923200  0.54561500  0.85746900  1
  C  3184  1  0.68017800  0.56427000  0.84444500  1
  C  3185  1  0.69650400  0.57118500  0.82736200  1
  C  3186  1  0.71364900  0.56320600  0.82547700  1
  C  3187  1  0.66369800  0.57521100  0.84885400  1
  C  3188  1  0.63848700  0.55367800  0.84323700  1
  C  3189  1  0.63257200  0.54570300  0.82235100  1
  C  3190  1  0.61003100  0.52516300  0.81677600  1
  C  3191  1  0.59253300  0.51147300  0.83206800  1
  C  3192  1  0.59849900  0.51827700  0.85295800  1
  C  3193  1  0.62114400  0.53854500  0.85837100  1
  C  3194  1  0.66574700  0.58423100  0.87119700  1
  C  3195  1  0.67116600  0.59885000  0.83688300  1
  C  3196  1  0.65506300  0.60315800  0.82449400  1
  C  3197  1  0.66353600  0.62479000  0.81281000  1
  C  3198  1  0.68838800  0.64346400  0.81362800  1
  C  3199  1  0.70379100  0.64072800  0.82791100  1
  C  3200  1  0.69545800  0.61888300  0.83897500  1
  C  3201  1  0.68616000  0.58982300  0.88408500  1
  C  3202  1  0.68735500  0.59736500  0.90465590  1
  C  3203  1  0.66831600  0.60012900  0.91338090  1
  C  3204  1  0.64905100  0.59699700  0.90021790  1
  C  3205  1  0.64830500  0.59001300  0.87942100  1
  C  3222  1  0.80273500  0.30191100  0.84034000  1
  C  3223  1  0.81134900  0.32020500  0.85577000  1
  C  3224  1  0.83649000  0.33733900  0.85752000  1
  C  3225  1  0.85419600  0.33640100  0.84448800  1
  C  3226  1  0.84478500  0.32011800  0.82737700  1
  C  3227  1  0.81966100  0.30298200  0.82547400  1
  C  3228  1  0.88162000  0.35292300  0.84885000  1
  C  3229  1  0.88526500  0.37810300  0.84317600  1
  C  3230  1  0.88319500  0.38397300  0.82227700  1
  C  3231  1  0.88517100  0.40649100  0.81665800  1
  C  3232  1  0.88894600  0.42400600  0.83192500  1
  C  3233  1  0.88976900  0.41807900  0.85282600  1
  C  3234  1  0.88739900  0.39544900  0.85827600  1
  C  3235  1  0.88868800  0.35100500  0.87118600  1
  C  3236  1  0.89776400  0.34541200  0.83689100  1
  C  3237  1  0.91816600  0.36147800  0.82447900  1
  C  3238  1  0.93133800  0.35297700  0.81284900  1
  C  3239  1  0.92514900  0.32812200  0.81371500  1
  C  3240  1  0.90700200  0.31275700  0.82800700  1
  C  3241  1  0.89350700  0.32112700  0.83904600  1
  C  3242  1  0.87396300  0.33065000  0.88415800  1
  C  3243  1  0.88045800  0.32954800  0.90470390  1
  C  3244  1  0.90232700  0.34862300  0.91331490  1
  C  3245  1  0.91833200  0.36785900  0.90006890  1
  C  3246  1  0.91195200  0.36850900  0.87930200  1
  C  3263  1  0.46913100  0.21376600  0.84023800  1
  C  3264  1  0.47891900  0.20522700  0.85563600  1
  C  3265  1  0.47096600  0.18010000  0.85741700  1
  C  3266  1  0.45227200  0.16234100  0.84445300  1
  C  3267  1  0.44529700  0.17168400  0.82736000  1
  C  3268  1  0.45327600  0.19680200  0.82539500  1
  C  3269  1  0.44137300  0.13493500  0.84890900  1
  C  3270  1  0.46289500  0.13125600  0.84325600  1
  C  3271  1  0.47080200  0.13323900  0.82235400  1
  C  3272  1  0.49132200  0.13121500  0.81675000  1
  C  3273  1  0.50507900  0.12748700  0.83203000  1
  C  3274  1  0.49837400  0.12677300  0.85293300  1
  C  3275  1  0.47812700  0.12917400  0.85836800  1
  C  3276  1  0.43245000  0.12800200  0.87127600  1
  C  3277  1  0.41768800  0.11873100  0.83700500  1
  C  3278  1  0.41334200  0.09830500  0.82462100  1
  C  3279  1  0.39166400  0.08512000  0.81299900  1
  C  3280  1  0.37300200  0.09131300  0.81385100  1
  C  3281  1  0.37577800  0.10945900  0.82814100  1
  C  3282  1  0.39765500  0.12297900  0.83916200  1
  C  3283  1  0.42689400  0.14282800  0.88419200  1
  C  3284  1  0.41946500  0.13651500  0.90479190  1
  C  3285  1  0.41678900  0.11474800  0.91351190  1
  C  3286  1  0.41985700  0.09859200  0.90032590  1
  C  3287  1  0.42672700  0.10479700  0.87950600  1
  C  3304  1  0.52191700  0.16049300  0.07205300  1
  C  3305  1  0.51307000  0.16995200  0.05662600  1
  C  3306  1  0.48788200  0.16179000  0.05500700  1
  C  3307  1  0.47031600  0.14317200  0.06814800  1
  C  3308  1  0.47994700  0.13634700  0.08513500  1
  C  3309  1  0.50511800  0.14452600  0.08693400  1
  C  3310  1  0.44283100  0.13252800  0.06425900  1
  C  3311  1  0.43960100  0.15431200  0.06999700  1
  C  3312  1  0.44218000  0.16251200  0.09085100  1
  C  3313  1  0.44045800  0.18320400  0.09647200  1
  C  3314  1  0.43649000  0.19686100  0.08124800  1
  C  3315  1  0.43531200  0.18992100  0.06036100  1
  C  3316  1  0.43738900  0.16949800  0.05490800  1
  C  3317  1  0.43493500  0.12341700  0.04206200  1
  C  3318  1  0.42685100  0.10901500  0.07643200  1
  C  3319  1  0.40692400  0.10500200  0.08934000  1
  C  3320  1  0.39384800  0.08338300  0.10104600  1
  C  3321  1  0.39963600  0.06445800  0.09977000  1
  C  3322  1  0.41731600  0.06697800  0.08507400  1
  C  3323  1  0.43072800  0.08878500  0.07393300  1
  C  3324  1  0.44944500  0.11841600  0.02824000  1
  C  3325  1  0.44264300  0.11199300  0.00752800  1
  C  3326  1  0.42049500  0.10944600  0.00002900  1
  C  3327  1  0.40445900  0.11158500  0.01393700  1
  C  3328  1  0.41132500  0.11766600  0.03475800  1
  C  3345  1  0.85773900  0.40796100  0.07197300  1
  C  3346  1  0.84825600  0.38964600  0.05655500  1
  C  3347  1  0.85642900  0.37263100  0.05491500  1
  C  3348  1  0.87505300  0.37367500  0.06803900  1
  C  3349  1  0.88189900  0.39013400  0.08502600  1
  C  3350  1  0.87373700  0.40714200  0.08682900  1
  C  3351  1  0.88570300  0.35684400  0.06411700  1
  C  3352  1  0.86391600  0.33181700  0.06982500  1
  C  3353  1  0.85570700  0.32614500  0.09067300  1
  C  3354  1  0.83500800  0.30371900  0.09626400  1
  C  3355  1  0.82135000  0.28613400  0.08101100  1
  C  3356  1  0.82830500  0.29194500  0.06013400  1
  C  3357  1  0.84872100  0.31446300  0.05471400  1
  C  3358  1  0.89480500  0.35810400  0.04191000  1
  C  3359  1  0.90922100  0.36436100  0.07627400  1
  C  3360  1  0.91322500  0.34844600  0.08918500  1
  C  3361  1  0.93484400  0.35698100  0.10089400  1
  C  3362  1  0.95376100  0.38170000  0.09964200  1
  C  3363  1  0.95124000  0.39687200  0.08495800  1
  C  3364  1  0.92944600  0.38847500  0.07379700  1
  C  3365  1  0.89978100  0.37763200  0.02811400  1
  C  3366  1  0.90611500  0.37725400  0.00737800  1
  C  3367  1  0.90856800  0.35762200  0.99981795  1
  C  3368  1  0.90647600  0.33943900  0.01369200  1
  C  3369  1  0.90051800  0.34024000  0.03454800  1
  C  3386  1  0.61031800  0.49616200  0.07208600  1
  C  3387  1  0.62861800  0.50503300  0.05665400  1
  C  3388  1  0.64560800  0.53023000  0.05503200  1
  C  3389  1  0.64452700  0.54777600  0.06817400  1
  C  3390  1  0.62808300  0.53812900  0.08516700  1
  C  3391  1  0.61112600  0.51294600  0.08697100  1
  C  3392  1  0.66126600  0.57526600  0.06421900  1
  C  3393  1  0.68634500  0.57860200  0.06986800  1
  C  3394  1  0.69207600  0.57608700  0.09070400  1
  C  3395  1  0.71453000  0.57785400  0.09625100  1
  C  3396  1  0.73208900  0.58180100  0.08096800  1
  C  3397  1  0.72623800  0.58296200  0.06010500  1
  C  3398  1  0.70369200  0.58082500  0.05472400  1
  C  3399  1  0.65985700  0.58302700  0.04201500  1
  C  3400  1  0.65374500  0.59124300  0.07640800  1
  C  3401  1  0.66970200  0.61123400  0.08924100  1
  C  3402  1  0.66118400  0.62431800  0.10097000  1
  C  3403  1  0.63643900  0.61844600  0.09981600  1
  C  3404  1  0.62121200  0.60068300  0.08520000  1
  C  3405  1  0.62959200  0.58727700  0.07402700  1
  C  3406  1  0.64023400  0.56841300  0.02832000  1
  C  3407  1  0.64038600  0.57509300  0.00760700  1
  C  3408  1  0.65994500  0.59716500  0.99994595  1
  C  3409  1  0.67823100  0.61331000  0.01372600  1
  C  3410  1  0.67762400  0.60660200  0.03457200  1
  C  3427  1  0.61219000  0.16281300  0.07515000  1
  C  3428  1  0.62934000  0.17170100  0.05879500  1
  C  3429  1  0.64626600  0.16353100  0.05626300  1
  C  3430  1  0.64592900  0.14508100  0.06916500  1
  C  3431  1  0.63038800  0.13840800  0.08677200  1
  C  3432  1  0.61353100  0.14662400  0.08950100  1
  C  3433  1  0.66232000  0.13417200  0.06423300  1
  C  3434  1  0.68764500  0.15567100  0.06960600  1
  C  3435  1  0.69419900  0.16339800  0.09048000  1
  C  3436  1  0.71709000  0.18362000  0.09582000  1
  C  3437  1  0.73430200  0.19713800  0.08029800  1
  C  3438  1  0.72742600  0.19106200  0.05943800  1
  C  3439  1  0.70448000  0.17108000  0.05428400  1
  C  3440  1  0.66010700  0.12528700  0.04183400  1
  C  3441  1  0.65491600  0.11041900  0.07599900  1
  C  3442  1  0.67106700  0.10593200  0.08814200  1
  C  3443  1  0.66257100  0.08427900  0.09980300  1
  C  3444  1  0.63764400  0.06576300  0.09920000  1
  C  3445  1  0.62217800  0.06864200  0.08508500  1
  C  3446  1  0.63053700  0.09050800  0.07404800  1
  C  3447  1  0.63970100  0.11987700  0.02901400  1
  C  3448  1  0.63854200  0.11264900  0.00833800  1
  C  3449  1  0.65754500  0.10991400  0.99950095  1
  C  3450  1  0.67679500  0.11284900  0.01258200  1
  C  3451  1  0.67756300  0.11962300  0.03343600  1
  C  3468  1  0.52233500  0.40592700  0.07503700  1
  C  3469  1  0.51402300  0.38881000  0.05865500  1
  C  3470  1  0.48891500  0.37191600  0.05612800  1
  C  3471  1  0.47082800  0.37226400  0.06905400  1
  C  3472  1  0.47973400  0.38783400  0.08664400  1
  C  3473  1  0.50482200  0.40462200  0.08939000  1
  C  3474  1  0.44351700  0.35581600  0.06420400  1
  C  3475  1  0.43976600  0.33053600  0.06964400  1
  C  3476  1  0.44098800  0.32405400  0.09052900  1
  C  3477  1  0.43834300  0.30118500  0.09591600  1
  C  3478  1  0.43462900  0.28392900  0.08042800  1
  C  3479  1  0.43538400  0.29073800  0.05955400  1
  C  3480  1  0.43831700  0.31366000  0.05435300  1
  C  3481  1  0.43670400  0.35789000  0.04182200  1
  C  3482  1  0.42719600  0.36324600  0.07598300  1
  C  3483  1  0.40660500  0.34712500  0.08818400  1
  C  3484  1  0.39344600  0.35563600  0.09982300  1
  C  3485  1  0.39981900  0.38055200  0.09914900  1
  C  3486  1  0.41811500  0.39597800  0.08498200  1
  C  3487  1  0.43163100  0.38760800  0.07397200  1
  C  3488  1  0.45161100  0.37821900  0.02889800  1
  C  3489  1  0.44539000  0.37925600  0.00824400  1
  C  3490  1  0.42359700  0.36019200  0.99952495  1
  C  3491  1  0.40742400  0.34097700  0.01270300  1
  C  3492  1  0.41353600  0.34036400  0.03355000  1
  C  3509  1  0.85544200  0.49592900  0.07503900  1
  C  3510  1  0.84658500  0.50420600  0.05866700  1
  C  3511  1  0.85479200  0.52930700  0.05610800  1
  C  3512  1  0.87322500  0.54742300  0.06901800  1
  C  3513  1  0.87988400  0.53855200  0.08663100  1
  C  3514  1  0.87165200  0.51347500  0.08936900  1
  C  3515  1  0.88411200  0.57472300  0.06410300  1
  C  3516  1  0.86258400  0.57851000  0.06946200  1
  C  3517  1  0.85483600  0.57735100  0.09032500  1
  C  3518  1  0.83458800  0.57999500  0.09563000  1
  C  3519  1  0.82107300  0.58365600  0.08008400  1
  C  3520  1  0.82718600  0.58286000  0.05923400  1
  C  3521  1  0.84718200  0.57990700  0.05411400  1
  C  3522  1  0.89302600  0.58145800  0.04171900  1
  C  3523  1  0.90784900  0.59106500  0.07589200  1
  C  3524  1  0.91231100  0.61167700  0.08806000  1
  C  3525  1  0.93395600  0.62482800  0.09973100  1
  C  3526  1  0.95249100  0.61844300  0.09910200  1
  C  3527  1  0.94964100  0.60013800  0.08495700  1
  C  3528  1  0.92777200  0.58661900  0.07392500  1
  C  3529  1  0.89840600  0.56647500  0.02885200  1
  C  3530  1  0.90556700  0.57256000  0.00816500  1
  C  3531  1  0.90822600  0.59428700  0.99936095  1
  C  3532  1  0.90534400  0.61059700  0.01249100  1
  C  3533  1  0.89866200  0.60458500  0.03335900  1
  C  3550  1  0.80396000  0.54757400  0.83794700  1
  C  3551  1  0.81247100  0.53903000  0.85437700  1
  C  3552  1  0.83762800  0.54742900  0.85682900  1
  C  3553  1  0.85559000  0.56586400  0.84381700  1
  C  3554  1  0.84649500  0.57236400  0.82625000  1
  C  3555  1  0.82135800  0.56385800  0.82356800  1
  C  3556  1  0.88296500  0.57660900  0.84833500  1
  C  3557  1  0.88646600  0.55490900  0.84294100  1
  C  3558  1  0.88489600  0.54690600  0.82211600  1
  C  3559  1  0.88735800  0.52654200  0.81683500  1
  C  3560  1  0.89118500  0.51313500  0.83237900  1
  C  3561  1  0.89065800  0.51942900  0.85321800  1
  C  3562  1  0.88791600  0.53955000  0.85831000  1
  C  3563  1  0.89042800  0.58567400  0.87059600  1
  C  3564  1  0.89912200  0.60020700  0.83633200  1
  C  3565  1  0.91938200  0.60443100  0.82378300  1
  C  3566  1  0.93247300  0.62605100  0.81207700  1
  C  3567  1  0.92637300  0.64477500  0.81302300  1
  C  3568  1  0.90837400  0.64209000  0.82744900  1
  C  3569  1  0.89493300  0.62026800  0.83856200  1
  C  3570  1  0.87559200  0.59045200  0.88420800  1
  C  3571  1  0.88198200  0.59666900  0.90501990  1
  C  3572  1  0.90402700  0.59923800  0.91282890  1
  C  3573  1  0.92038200  0.59735300  0.89912600  1
  C  3574  1  0.91391700  0.59142500  0.87822400  1
  C  3591  1  0.46895300  0.30283100  0.83784800  1
  C  3592  1  0.47760400  0.31992300  0.85424900  1
  C  3593  1  0.46923100  0.33669500  0.85674000  1
  C  3594  1  0.45074100  0.33621500  0.84379400  1
  C  3595  1  0.44414500  0.32058400  0.82624400  1
  C  3596  1  0.45263600  0.30394700  0.82350900  1
  C  3597  1  0.44000500  0.35283500  0.84838900  1
  C  3598  1  0.46168500  0.37804700  0.84298500  1
  C  3599  1  0.46962400  0.38451200  0.82215000  1
  C  3600  1  0.48994600  0.40736400  0.81685600  1
  C  3601  1  0.50338300  0.42458900  0.83239800  1
  C  3602  1  0.49717400  0.41772700  0.85324200  1
  C  3603  1  0.47709100  0.39484000  0.85834400  1
  C  3604  1  0.43101700  0.35119300  0.87068200  1
  C  3605  1  0.41636600  0.34541000  0.83645500  1
  C  3606  1  0.41210700  0.36145000  0.82394500  1
  C  3607  1  0.39045900  0.35292800  0.81228000  1
  C  3608  1  0.37175500  0.32809300  0.81320700  1
  C  3609  1  0.37446000  0.31278100  0.82762000  1
  C  3610  1  0.39630800  0.32115900  0.83869600  1
  C  3611  1  0.42628800  0.33155100  0.88424600  1
  C  3612  1  0.42016200  0.33168200  0.90508890  1
  C  3613  1  0.41773400  0.35120000  0.91299090  1
  C  3614  1  0.41954900  0.36946900  0.89935600  1
  C  3615  1  0.42533500  0.36893800  0.87841400  1
  C  3632  1  0.71368500  0.21267200  0.83781800  1
  C  3633  1  0.69660500  0.20418700  0.85422900  1
  C  3634  1  0.67986000  0.17903400  0.85670400  1
  C  3635  1  0.68036300  0.16105600  0.84373200  1
  C  3636  1  0.69596500  0.17012700  0.82616800  1
  C  3637  1  0.71258300  0.19526100  0.82345800  1
  C  3638  1  0.66381200  0.13369200  0.84834400  1
  C  3639  1  0.63855500  0.13009600  0.84302600  1
  C  3640  1  0.63204500  0.13159700  0.82221000  1
  C  3641  1  0.60917800  0.12906100  0.81697400  1
  C  3642  1  0.59197100  0.12522200  0.83254800  1
  C  3643  1  0.59886900  0.12581900  0.85337500  1
  C  3644  1  0.62176800  0.12861700  0.85842600  1
  C  3645  1  0.66560600  0.12641100  0.87062700  1
  C  3646  1  0.67122000  0.11749900  0.83635400  1
  C  3647  1  0.65513300  0.09716600  0.82389600  1
  C  3648  1  0.66363000  0.08406400  0.81216400  1
  C  3649  1  0.68847700  0.09022900  0.81299900  1
  C  3650  1  0.70384900  0.10828400  0.82736000  1
  C  3651  1  0.69549500  0.12173400  0.83849700  1
  C  3652  1  0.68534200  0.14136700  0.88409500  1
  C  3653  1  0.68534400  0.13517800  0.90493590  1
  C  3654  1  0.66594700  0.11320100  0.91291290  1
  C  3655  1  0.64760100  0.09669900  0.89935600  1
  C  3656  1  0.64795300  0.10298100  0.87842500  1
  C  3673  1  0.85806900  0.11437900  0.49244800  1
  C  3675  1  0.90090100  0.13518200  0.48386900  1
  C  3676  1  0.90366000  0.15730500  0.49204100  1
  C  3678  1  0.86059600  0.13685500  0.49942700  1
  C  3679  1  0.84290000  0.13926000  0.50731200  1
  C  3680  1  0.91907500  0.13241200  0.47787200  1
  C  3683  1  0.22705400  0.15922500  0.49256400  1
  C  3685  1  0.20509700  0.11643900  0.48389300  1
  C  3686  1  0.22451900  0.11370900  0.49196100  1
  C  3688  1  0.24704900  0.15674200  0.49948800  1
  C  3689  1  0.26714400  0.17443400  0.50738800  1
  C  3690  1  0.18422200  0.09825100  0.47778300  1
  C  3693  1  0.90313100  0.79041200  0.49234500  1
  C  3695  1  0.88231000  0.81239100  0.48370900  1
  C  3696  1  0.86014100  0.79293700  0.49172200  1
  C  3698  1  0.88063700  0.77038300  0.49920000  1
  C  3699  1  0.87822300  0.75027800  0.50708500  1
  C  3700  1  0.88502600  0.83331900  0.47772700  1
  C  3703  1  0.76464000  0.92710700  0.75381800  1
  C  3705  1  0.78664700  0.90630700  0.76250400  1
  C  3706  1  0.76714900  0.88409000  0.75460900  1
  C  3708  1  0.74459900  0.90458600  0.74704300  1
  C  3709  1  0.72452100  0.90217000  0.73910100  1
  C  3710  1  0.80760500  0.90905900  0.76843200  1
  C  3713  1  0.08943500  0.88407000  0.75372900  1
  C  3715  1  0.11029300  0.92688700  0.76241200  1
  C  3716  1  0.13244300  0.92960100  0.75435800  1
  C  3718  1  0.11193000  0.88655500  0.74686100  1
  C  3719  1  0.11432100  0.86885800  0.73896000  1
  C  3720  1  0.10753100  0.94508000  0.76836600  1
  C  3723  1  0.13242600  0.25170000  0.75365500  1
  C  3725  1  0.08965100  0.22975800  0.76240600  1
  C  3726  1  0.08692400  0.24925400  0.75451600  1
  C  3728  1  0.12996300  0.27175600  0.74688400  1
  C  3729  1  0.14764000  0.29186500  0.73899600  1
  C  3730  1  0.07145700  0.20884800  0.76844500  1
  C  3733  1  0.19205800  0.78123900  0.15922900  1
  C  3735  1  0.23488800  0.80202000  0.15060600  1
  C  3736  1  0.23765800  0.82417400  0.15870800  1
  C  3738  1  0.19460500  0.80375000  0.16614300  1
  C  3739  1  0.17694100  0.80621000  0.17402600  1
  C  3740  1  0.25306500  0.79927000  0.14458400  1
  C  3743  1  0.56101200  0.82621400  0.15912200  1
  C  3745  1  0.53893900  0.78336700  0.15056100  1
  C  3746  1  0.55834400  0.78059500  0.15861300  1
  C  3748  1  0.58098200  0.82367100  0.16601600  1
  C  3749  1  0.60108600  0.84133200  0.17392700  1
  C  3750  1  0.51799300  0.76518300  0.14458400  1
  C  3753  1  0.23697400  0.45723800  0.15911700  1
  C  3755  1  0.21617500  0.47929100  0.15057400  1
  C  3756  1  0.19402000  0.45989800  0.15866700  1
  C  3758  1  0.21447000  0.43726900  0.16603300  1
  C  3759  1  0.21203400  0.41713700  0.17387500  1
  C  3760  1  0.21895800  0.50025500  0.14461900  1
  C  3763  1  0.09807400  0.59381500  0.41830000  1
  C  3765  1  0.11987200  0.57301400  0.42764600  1
  C  3766  1  0.10075200  0.55089100  0.41924600  1
  C  3768  1  0.07836000  0.57137800  0.41099900  1
  C  3769  1  0.05842500  0.56893600  0.40271800  1
  C  3770  1  0.14058800  0.57575200  0.43427000  1
  C  3773  1  0.42357300  0.55073600  0.41834300  1
  C  3775  1  0.44439800  0.59334100  0.42771100  1
  C  3776  1  0.46650500  0.59633900  0.41927600  1
  C  3778  1  0.44601300  0.55345600  0.41105000  1
  C  3779  1  0.44845600  0.53596860  0.40275700  1
  C  3780  1  0.44164600  0.61133100  0.43427700  1
  C  3783  1  0.46668300  0.91930500  0.41851000  1
  C  3785  1  0.42405100  0.89745200  0.42776800  1
  C  3786  1  0.42106700  0.91660000  0.41939800  1
  C  3788  1  0.46398400  0.93905600  0.41128100  1
  C  3789  1  0.48148100  0.95899500  0.40301100  1
  C  3790  1  0.40604200  0.87667000  0.43424700  1
  C  3793  1  0.52397300  0.44772400  0.82789100  1
  C  3795  1  0.56665300  0.46850000  0.81876400  1
  C  3796  1  0.56969100  0.49053600  0.82740500  1
  C  3798  1  0.52675600  0.47013000  0.83535100  1
  C  3799  1  0.50923500  0.47256700  0.84357900  1
  C  3800  1  0.58462300  0.46570200  0.81221900  1
  C  3803  1  0.89363500  0.49248500  0.82788100  1
  C  3805  1  0.87174500  0.44983300  0.81872400  1
  C  3806  1  0.89082500  0.44682700  0.82721700  1
  C  3808  1  0.91332800  0.48974600  0.83523200  1
  C  3809  1  0.93331400  0.50726900  0.84342100  1
  C  3810  1  0.85101800  0.43184600  0.81212500  1
  C  3813  1  0.56885600  0.12275600  0.82808600  1
  C  3815  1  0.54806400  0.14456900  0.81873900  1
  C  3816  1  0.52599800  0.12556300  0.82732800  1
  C  3818  1  0.54644100  0.10312300  0.83552100  1
  C  3819  1  0.54398800  0.08320100  0.84384000  1
  C  3820  1  0.55081200  0.16527300  0.81207400  1
  C  3823  1  0.43204300  0.26081000  0.08506700  1
  C  3825  1  0.45388900  0.23999600  0.09427800  1
  C  3826  1  0.43470700  0.21786400  0.08594300  1
  C  3828  1  0.41228100  0.23835700  0.07784800  1
  C  3829  1  0.39233700  0.23592800  0.06960100  1
  C  3830  1  0.47467500  0.24275400  0.10072600  1
  C  3833  1  0.75743500  0.21767900  0.08489000  1
  C  3835  1  0.77829100  0.26032800  0.09417800  1
  C  3836  1  0.80035400  0.26331600  0.08565300  1
  C  3838  1  0.77986100  0.22041300  0.07754200  1
  C  3839  1  0.78227700  0.20289500  0.06928200  1
  C  3840  1  0.77551500  0.27831600  0.10071000  1
  C  3843  1  0.80048500  0.58618500  0.08463200  1
  C  3845  1  0.75789200  0.56448500  0.09403300  1
  C  3846  1  0.75489900  0.58359200  0.08558500  1
  C  3848  1  0.79777700  0.60589800  0.07729400  1
  C  3849  1  0.81527600  0.62580700  0.06898900  1
  C  3850  1  0.73991200  0.54380400  0.10071500  1
  C  3853  1  0.02950100  0.33445600  0.47114400  1
  C  3855  1  0.06712100  0.36599900  0.45576100  1
  C  3856  1  0.05446700  0.37667100  0.44616000  1
  C  3858  1  0.01710800  0.34591900  0.46231900  1
  C  3859  1  0.99434200  0.33949700  0.46566700  1
  C  3860  1  0.09071900  0.37475200  0.45571500  1
  C  3863  1  0.27586400  0.98786500  0.47117900  1
  C  3865  1  0.26976400  0.95027500  0.45571300  1
  C  3866  1  0.29312900  0.96293000  0.44617500  1
  C  3868  1  0.29974500  0.00025800  0.46240100  1
  C  3869  1  0.31611600  0.02299200  0.46583900  1
  C  3870  1  0.25488600  0.92668500  0.45560200  1
  C  3873  1  0.68292500  0.74152660  0.47127600  1
  C  3875  1  0.65139900  0.74761960  0.45587700  1
  C  3876  1  0.64069500  0.72427260  0.44631100  1
  C  3878  1  0.67143300  0.71765360  0.46248100  1
  C  3879  1  0.67785700  0.70131160  0.46582400  1
  C  3880  1  0.64264400  0.76246300  0.45584500  1
  C  3883  1  0.71513400  0.70660300  0.77554400  1
  C  3885  1  0.72098900  0.67471600  0.79046100  1
  C  3886  1  0.69789700  0.66433200  0.80045100  1
  C  3888  1  0.69145500  0.69538555  0.78470000  1
  C  3889  1  0.67527500  0.70211060  0.78174000  1
  C  3890  1  0.73560700  0.66569900  0.79016300  1
  C  3893  1  0.30988300  0.05500400  0.77573600  1
  C  3895  1  0.34172600  0.09270200  0.79074300  1
  C  3896  1  0.35211700  0.07997600  0.80068900  1
  C  3898  1  0.32107500  0.04251600  0.78488300  1
  C  3899  1  0.31437500  0.01962600  0.78185600  1
  C  3900  1  0.35076300  0.11634200  0.79045300  1
  C  3903  1  0.96151900  0.30132400  0.77566800  1
  C  3905  1  0.92379800  0.29544800  0.79064400  1
  C  3906  1  0.93650500  0.31857600  0.80057600  1
  C  3908  1  0.97399400  0.32500400  0.78481800  1
  C  3909  1  0.99687500  0.34120900  0.78178000  1
  C  3910  1  0.90016300  0.28083200  0.79034800  1
  C  3913  1  0.96266400  0.70783600  0.77478200  1
  C  3915  1  0.92501000  0.67619500  0.79008900  1
  C  3916  1  0.93769000  0.66563700  0.79983200  1
  C  3918  1  0.97507200  0.69644100  0.78372000  1
  C  3919  1  0.99786800  0.70290600  0.78050100  1
  C  3920  1  0.90139400  0.66732000  0.78995900  1
  C  3923  1  0.71520700  0.05390900  0.77474200  1
  C  3925  1  0.72113500  0.09160800  0.78988800  1
  C  3926  1  0.69798400  0.07890700  0.79977000  1
  C  3928  1  0.69144600  0.04148900  0.78376300  1
  C  3929  1  0.67514700  0.01865800  0.78065600  1
  C  3930  1  0.73583800  0.11523100  0.78970800  1
  C  3933  1  0.30870800  0.30130400  0.77494000  1
  C  3935  1  0.34037600  0.29532300  0.79023400  1
  C  3936  1  0.35089300  0.31854100  0.80001500  1
  C  3938  1  0.32007300  0.32509455  0.78390300  1
  C  3939  1  0.31361400  0.34142660  0.78067100  1
  C  3940  1  0.34926000  0.28058900  0.79011800  1
  C  3943  1  0.27697200  0.33567860  0.47073300  1
  C  3945  1  0.27113800  0.36757060  0.45575500  1
  C  3946  1  0.29418800  0.37788660  0.44570400  1
  C  3948  1  0.30061400  0.34683460  0.46150400  1
  C  3949  1  0.31684900  0.34019060  0.46449700  1
  C  3950  1  0.25658000  0.37665700  0.45615800  1
  C  3953  1  0.68170600  0.98773300  0.47068500  1
  C  3955  1  0.64982600  0.94999900  0.45570500  1
  C  3956  1  0.63947500  0.96271800  0.44568500  1
  C  3958  1  0.67051200  0.00019900  0.46149000  1
  C  3959  1  0.67718100  0.02309100  0.46444800  1
  C  3960  1  0.64073900  0.92635700  0.45613300  1
  C  3963  1  0.02952000  0.74029300  0.47074400  1
  C  3965  1  0.06727200  0.74609200  0.45585500  1
  C  3966  1  0.05453700  0.72308100  0.44574300  1
  C  3968  1  0.01704100  0.71666000  0.46149700  1
  C  3969  1  0.99412700  0.70046600  0.46439400  1
  C  3970  1  0.09091700  0.76064300  0.45627500  1
  C  3973  1  0.36337400  0.00136000  0.13792000  1
  C  3975  1  0.40096900  0.03284400  0.12245900  1
  C  3976  1  0.38831900  0.04355200  0.11290600  1
  C  3978  1  0.35098500  0.01284500  0.12912900  1
  C  3979  1  0.32823500  0.00644800  0.13252900  1
  C  3980  1  0.42456000  0.04156500  0.12234800  1
  C  3983  1  0.60968900  0.65478260  0.13797700  1
  C  3985  1  0.60358200  0.61714160  0.12260900  1
  C  3986  1  0.62689000  0.62978155  0.11297500  1
  C  3988  1  0.63351900  0.66716860  0.12910000  1
  C  3989  1  0.64987500  0.68993160  0.13243500  1
  C  3990  1  0.58874400  0.59354355  0.12258400  1
  C  3993  1  0.01686200  0.40853800  0.13779500  1
  C  3995  1  0.98538000  0.41464800  0.12232600  1
  C  3996  1  0.97466100  0.39128300  0.11278700  1
  C  3998  1  0.00537100  0.38466000  0.12900800  1
  C  3999  1  0.01178900  0.36831900  0.13238700  1
  C  4000  1  0.97664000  0.42950400  0.12224600  1
  C  4003  1  0.61087400  0.00267100  0.13740700  1
  C  4005  1  0.60510700  0.03464400  0.12251500  1
  C  4006  1  0.62812700  0.04492000  0.11241900  1
  C  4008  1  0.63452000  0.01383100  0.12818100  1
  C  4009  1  0.65070800  0.00710600  0.13108800  1
  C  4010  1  0.59056500  0.04375000  0.12291200  1
  C  4013  1  0.01556100  0.65472100  0.13733600  1
  C  4015  1  0.98360500  0.61700000  0.12239900  1
  C  4016  1  0.97332900  0.62975900  0.11232600  1
  C  4018  1  0.00442500  0.66722500  0.12810400  1
  C  4019  1  0.01113700  0.69012900  0.13104500  1
  C  4020  1  0.97447300  0.59335100  0.12280600  1
  C  4023  1  0.36350800  0.40732160  0.13736100  1
  C  4025  1  0.40122800  0.41315360  0.12237400  1
  C  4026  1  0.38849300  0.39008755  0.11234500  1
  C  4028  1  0.35102100  0.38367260  0.12814600  1
  C  4029  1  0.32814000  0.36744560  0.13114700  1
  C  4030  1  0.42487100  0.42771355  0.12274200  1
  C  4033  1  0.99756500  0.26535700  0.64503800  1
  C  4035  1  0.99262100  0.28183500  0.61315400  1
  C  4036  1  0.00042600  0.26762200  0.60185700  1
  C  4038  1  0.00580000  0.25149700  0.63392100  1
  C  4039  1  0.01234700  0.23680300  0.64222200  1
  C  4040  1  0.98711900  0.29723500  0.60480600  1
  C  4043  1  0.23814700  0.01938100  0.64501800  1
  C  4045  1  0.25968800  0.02438900  0.61318900  1
  C  4046  1  0.23771700  0.01662400  0.60183000  1
  C  4048  1  0.21610100  0.01121000  0.63383900  1
  C  4049  1  0.19483000  0.00466900  0.64207700  1
  C  4050  1  0.28062100  0.02992000  0.60489200  1
  C  4053  1  0.75164800  0.77885960  0.64499000  1
  C  4055  1  0.73545300  0.75745160  0.61305200  1
  C  4056  1  0.74968800  0.77949260  0.60178800  1
  C  4058  1  0.76554700  0.80097260  0.63390600  1
  C  4059  1  0.78015900  0.82221560  0.64224200  1
  C  4060  1  0.72015800  0.73654060  0.60466100  1
  C  4063  1  0.99459300  0.77827400  0.60119300  1
  C  4065  1  0.99912100  0.76140300  0.63301100  1
  C  4066  1  0.99154600  0.77577500  0.64435300  1
  C  4068  1  0.98658700  0.79229700  0.61235800  1
  C  4069  1  0.98025800  0.80717200  0.60408900  1
  C  4070  1  0.00433400  0.74577100  0.64131200  1
  C  4073  1  0.75428100  0.02223000  0.60114700  1
  C  4075  1  0.73273400  0.01764300  0.63289300  1
  C  4076  1  0.75461000  0.02512500  0.64431100  1
  C  4078  1  0.77623500  0.03010900  0.61239500  1
  C  4079  1  0.79747500  0.03643300  0.60420500  1
  C  4080  1  0.71186900  0.01247700  0.64112400  1
  C  4083  1  0.23877300  0.26292660  0.60124600  1
  C  4085  1  0.25553300  0.28430760  0.63309100  1
  C  4086  1  0.24112000  0.26235960  0.64441600  1
  C  4088  1  0.22468500  0.24090060  0.61239600  1
  C  4089  1  0.20983800  0.21969955  0.60411100  1
  C  4090  1  0.27113600  0.30515060  0.64141500  1
  C  4093  1  0.33075300  0.93303800  0.31185200  1
  C  4095  1  0.32565300  0.94901900  0.27975400  1
  C  4096  1  0.33386100  0.93500200  0.26865900  1
  C  4098  1  0.33942300  0.91940600  0.30095100  1
  C  4099  1  0.34621400  0.90500400  0.30945900  1
  C  4100  1  0.31988900  0.96413500  0.27122100  1
  C  4103  1  0.57352300  0.68713200  0.31189900  1
  C  4105  1  0.59469900  0.69227360  0.27984600  1
  C  4106  1  0.57252700  0.68418100  0.26870100  1
  C  4108  1  0.55126900  0.67856600  0.30094600  1
  C  4109  1  0.53006000  0.67181900  0.30940300  1
  C  4110  1  0.61558900  0.69799560  0.27135500  1
  C  4113  1  0.08485200  0.44428000  0.31174400  1
  C  4115  1  0.06893300  0.42322200  0.27962700  1
  C  4116  1  0.08310000  0.44542400  0.26854300  1
  C  4118  1  0.09861100  0.46656600  0.30085200  1
  C  4119  1  0.11303900  0.48774400  0.30937200  1
  C  4120  1  0.05377200  0.40237100  0.27107700  1
  C  4123  1  0.32822700  0.44480200  0.26793800  1
  C  4125  1  0.33185600  0.42703760  0.29959200  1
  C  4126  1  0.32446500  0.44147300  0.31105500  1
  C  4128  1  0.32047000  0.45895000  0.27923000  1
  C  4129  1  0.31460000  0.47424200  0.27111200  1
  C  4130  1  0.33661500  0.41102660  0.30776600  1
  C  4133  1  0.08799300  0.68949300  0.26790700  1
  C  4135  1  0.06644700  0.68579600  0.29948800  1
  C  4136  1  0.08821500  0.69315200  0.31102500  1
  C  4138  1  0.10983000  0.69716900  0.27928100  1
  C  4139  1  0.13102800  0.70303100  0.27124400  1
  C  4140  1  0.04565100  0.68105600  0.30759400  1
  C  4143  1  0.57292600  0.92987100  0.26794600  1
  C  4145  1  0.59052200  0.95124900  0.29964100  1
  C  4146  1  0.57605400  0.92941000  0.31107800  1
  C  4148  1  0.55872200  0.90796000  0.27921600  1
  C  4149  1  0.54346200  0.88680400  0.27107200  1
  C  4150  1  0.60650000  0.97201100  0.30784900  1
  C  4153  1  0.66388100  0.59979600  0.97840690  1
  C  4155  1  0.65937400  0.61648400  0.94646190  1
  C  4156  1  0.66731700  0.60233900  0.93523190  1
  C  4158  1  0.67224500  0.58599500  0.96735990  1
  C  4159  1  0.67867800  0.57123700  0.97571190  1
  C  4160  1  0.65398700  0.63193500  0.93805090  1
  C  4163  1  0.90706100  0.35346500  0.97830490  1
  C  4165  1  0.92796600  0.35784800  0.94622490  1
  C  4166  1  0.90574100  0.34967400  0.93514590  1
  C  4168  1  0.88476000  0.34486300  0.96741690  1
  C  4169  1  0.86362900  0.33838600  0.97591490  1
  C  4170  1  0.94876500  0.36332700  0.93768390  1
  C  4173  1  0.41766100  0.11071700  0.97851690  1
  C  4175  1  0.40070900  0.08947100  0.94664090  1
  C  4176  1  0.41468400  0.11155900  0.93536790  1
  C  4178  1  0.43131000  0.13287900  0.96743290  1
  C  4179  1  0.44611700  0.15408800  0.97573090  1
  C  4180  1  0.38523000  0.06860400  0.93828890  1
  C  4183  1  0.66228800  0.11079200  0.93449490  1
  C  4185  1  0.66619700  0.09352600  0.96633490  1
  C  4186  1  0.65859800  0.10789900  0.97764190  1
  C  4188  1  0.65427100  0.12483100  0.94562690  1
  C  4189  1  0.64815000  0.13986100  0.93734690  1
  C  4190  1  0.67115500  0.07772900  0.97466590  1
  C  4193  1  0.41918000  0.35505300  0.93454890  1
  C  4195  1  0.39826100  0.35125300  0.96650990  1
  C  4196  1  0.42035500  0.35902300  0.97768190  1
  C  4198  1  0.44135700  0.36324800  0.94554190  1
  C  4199  1  0.46244900  0.36940600  0.93712590  1
  C  4200  1  0.37755300  0.34626600  0.97495590  1
  C  4203  1  0.90661900  0.59802400  0.93438590  1
  C  4205  1  0.92426800  0.61924800  0.96612890  1
  C  4206  1  0.91003200  0.59729300  0.97749490  1
  C  4208  1  0.89269800  0.57598600  0.94557390  1
  C  4209  1  0.87757700  0.55482600  0.93736290  1
  C  4210  1  0.94014500  0.64002100  0.97438390  1
  C  4213  1  0.11430500  0.21232560  0.50273300  1
  C  4215  1  0.08453900  0.21612900  0.52333800  1
  C  4216  1  0.06990500  0.21257000  0.50556200  1
  C  4218  1  0.09940400  0.20818900  0.48505600  1
  C  4219  1  0.10461900  0.20384160  0.46664900  1
  C  4220  1  0.08060100  0.22220300  0.54157700  1
  C  4223  1  0.06895400  0.90300100  0.50269300  1
  C  4225  1  0.10254000  0.93280000  0.52325400  1
  C  4226  1  0.11356100  0.94743000  0.50546400  1
  C  4228  1  0.07966900  0.91788100  0.48500000  1
  C  4229  1  0.07007200  0.91263500  0.46660700  1
  C  4230  1  0.11259300  0.93676700  0.54147700  1
  C  4233  1  0.80521200  0.94856400  0.50261100  1
  C  4235  1  0.80135700  0.91495700  0.52319100  1
  C  4236  1  0.80486000  0.90386960  0.50539700  1
  C  4238  1  0.80930300  0.93778900  0.48492100  1
  C  4239  1  0.81365500  0.94736900  0.46652100  1
  C  4240  1  0.79520300  0.90491100  0.54141300  1
  C  4243  1  0.92279600  0.83050800  0.74361600  1
  C  4245  1  0.88914100  0.82595200  0.72270000  1
  C  4246  1  0.87754400  0.82894300  0.74038300  1
  C  4248  1  0.91152800  0.83413000  0.76119800  1
  C  4249  1  0.92085000  0.83853700  0.77969600  1
  C  4250  1  0.87946100  0.81993900  0.70434200  1
  C  4253  1  0.18592900  0.13873000  0.74354900  1
  C  4255  1  0.19050400  0.10965500  0.72259600  1
  C  4256  1  0.18754800  0.09506700  0.74027000  1
  C  4258  1  0.18234700  0.12383300  0.76111800  1
  C  4259  1  0.17795900  0.12873300  0.77962800  1
  C  4260  1  0.19659500  0.10606000  0.70424700  1
  C  4263  1  0.87784800  0.09363000  0.74359100  1
  C  4265  1  0.90688300  0.12727800  0.72260900  1
  C  4266  1  0.92146500  0.13895800  0.74027500  1
  C  4268  1  0.89271600  0.10501600  0.76115800  1
  C  4269  1  0.88780800  0.09577000  0.77968200  1
  C  4270  1  0.91046100  0.13693100  0.70424700  1
  C  4273  1  0.44823100  0.87931200  0.16951000  1
  C  4275  1  0.41852100  0.88310500  0.19020000  1
  C  4276  1  0.40390300  0.87967500  0.17243900  1
  C  4278  1  0.43332500  0.87525100  0.15185500  1
  C  4279  1  0.43851200  0.87094500  0.13342300  1
  C  4280  1  0.41467100  0.88920500  0.20846000  1
  C  4283  1  0.40286500  0.56990000  0.16960600  1
  C  4285  1  0.43642000  0.59965400  0.19022500  1
  C  4286  1  0.44751600  0.61429000  0.17245600  1
  C  4288  1  0.41365200  0.58480200  0.15193300  1
  C  4289  1  0.40410500  0.57959300  0.13352000  1
  C  4290  1  0.44638100  0.60362700  0.20848800  1
  C  4293  1  0.13883400  0.61535400  0.16953000  1
  C  4295  1  0.13508900  0.58184500  0.19018200  1
  C  4296  1  0.13859300  0.57072400  0.17240900  1
  C  4298  1  0.14298000  0.60458000  0.15186600  1
  C  4299  1  0.14731400  0.61411700  0.13344900  1
  C  4300  1  0.12905000  0.57187300  0.20843500  1
  C  4303  1  0.25802300  0.49989100  0.40868600  1
  C  4305  1  0.22385300  0.49419200  0.38786200  1
  C  4306  1  0.21262200  0.49803900  0.40538400  1
  C  4308  1  0.24711400  0.50436600  0.42607800  1
  C  4309  1  0.25678400  0.50961500  0.44444700  1
  C  4310  1  0.21371900  0.48708200  0.36975400  1
  C  4313  1  0.51740500  0.80452200  0.40868500  1
  C  4315  1  0.52308100  0.77603900  0.38786200  1
  C  4316  1  0.51928500  0.76099000  0.40539300  1
  C  4318  1  0.51293400  0.78914500  0.42608000  1
  C  4319  1  0.50768700  0.79357300  0.44444600  1
  C  4320  1  0.53025400  0.77306600  0.36976300  1
  C  4323  1  0.21271800  0.75954200  0.40865200  1
  C  4325  1  0.24121400  0.79366300  0.38781900  1
  C  4326  1  0.25633200  0.80485900  0.40532500  1
  C  4328  1  0.22815400  0.77038000  0.42602700  1
  C  4329  1  0.22375700  0.76068400  0.44438600  1
  C  4330  1  0.24428700  0.80377500  0.36969500  1
  C  4333  1  0.77953100  0.54325400  0.83791900  1
  C  4335  1  0.75029600  0.54809900  0.85839200  1
  C  4336  1  0.73518200  0.54361500  0.84077800  1
  C  4338  1  0.76411000  0.53811200  0.82044200  1
  C  4339  1  0.76883500  0.53284500  0.80219300  1
  C  4340  1  0.74689200  0.55518800  0.87637800  1
  C  4343  1  0.73379700  0.23710200  0.83781800  1
  C  4345  1  0.76784700  0.26626400  0.85835700  1
  C  4346  1  0.77853200  0.28140600  0.84076400  1
  C  4348  1  0.74413000  0.25253500  0.82036000  1
  C  4349  1  0.73419100  0.24783600  0.80209200  1
  C  4350  1  0.77829400  0.26961900  0.87635600  1
  C  4353  1  0.47330000  0.28273700  0.83779800  1
  C  4355  1  0.46842700  0.24865700  0.85828900  1
  C  4356  1  0.47278300  0.23795400  0.84065700  1
  C  4358  1  0.47831000  0.27237800  0.82030400  1
  C  4359  1  0.48352500  0.28233600  0.80204300  1
  C  4360  1  0.46130800  0.23818800  0.87628100  1
  C  4363  1  0.59168400  0.16651500  0.07501100  1
  C  4365  1  0.55749500  0.16084100  0.05424500  1
  C  4366  1  0.54634100  0.16477500  0.07177500  1
  C  4368  1  0.58090000  0.17116400  0.09240100  1
  C  4369  1  0.59065900  0.17652800  0.11073400  1
  C  4370  1  0.54732900  0.15376700  0.03614300  1
  C  4373  1  0.85170600  0.47171100  0.07491600  1
  C  4375  1  0.85734000  0.44315600  0.05415100  1
  C  4376  1  0.85344800  0.42809600  0.07169300  1
  C  4378  1  0.84712300  0.45631000  0.09231800  1
  C  4379  1  0.84180800  0.46073200  0.11066100  1
  C  4380  1  0.86445200  0.44008400  0.03606000  1
  C  4383  1  0.54658900  0.42635000  0.07494100  1
  C  4385  1  0.57513200  0.46060000  0.05422300  1
  C  4386  1  0.59019100  0.47173000  0.07177500  1
  C  4388  1  0.56197400  0.43715000  0.09235500  1
  C  4389  1  0.55753400  0.42738000  0.11068600  1
  C  4390  1  0.57819700  0.47082700  0.03615300  1
  N  1478  1  0.87846400  0.09881600  0.88710800  1
  N  1481  1  0.88325000  0.14104500  0.90134700  1
  N  1485  1  0.93516700  0.11414600  0.87460600  1
  N  1486  1  0.82724900  0.12543300  0.91626500  1
  N  1488  1  0.20699800  0.12298300  0.88716400  1
  N  1491  1  0.24451200  0.11823700  0.90132300  1
  N  1495  1  0.16579600  0.06627500  0.87441900  1
  N  1496  1  0.28483600  0.17421100  0.91635200  1
  N  1498  1  0.90282700  0.79462300  0.88700800  1
  N  1501  1  0.86054800  0.75705500  0.90104500  1
  N  1505  1  0.88736900  0.83591800  0.87447500  1
  N  1506  1  0.87617000  0.71670500  0.91603800  1
  N  1508  1  0.78475100  0.91094600  0.16309200  1
  N  1511  1  0.74713500  0.86861900  0.14925500  1
  N  1515  1  0.82610700  0.89557200  0.17561100  1
  N  1516  1  0.70683900  0.88423200  0.13407000  1
  N  1518  1  0.08977300  0.88860900  0.16304100  1
  N  1521  1  0.13203200  0.89330700  0.14902300  1
  N  1525  1  0.10513600  0.94531200  0.17556800  1
  N  1526  1  0.11636500  0.83734100  0.13396800  1
  N  1528  1  0.11204700  0.21575700  0.16299900  1
  N  1531  1  0.10734500  0.25337700  0.14914500  1
  N  1535  1  0.05535300  0.17451700  0.17572100  1
  N  1536  1  0.16327200  0.29370500  0.13401800  1
  N  1538  1  0.21244100  0.76566700  0.55387500  1
  N  1541  1  0.21726600  0.80793800  0.56802900  1
  N  1545  1  0.26915900  0.78102000  0.54129400  1
  N  1546  1  0.16131700  0.79243300  0.58297600  1
  N  1548  1  0.54090200  0.78993900  0.55382200  1
  N  1551  1  0.57836900  0.78513500  0.56791800  1
  N  1555  1  0.49950400  0.73321000  0.54133400  1
  N  1556  1  0.61878900  0.84108100  0.58290300  1
  N  1558  1  0.23666700  0.46147200  0.55382400  1
  N  1561  1  0.19440800  0.42399100  0.56794300  1
  N  1565  1  0.22136300  0.50288400  0.54139000  1
  N  1566  1  0.20996100  0.38354000  0.58278700  1
  N  1568  1  0.11790900  0.57761200  0.82820600  1
  N  1571  1  0.08096000  0.53545200  0.81337000  1
  N  1575  1  0.15888400  0.56226300  0.84206200  1
  N  1576  1  0.04086200  0.55096900  0.79740200  1
  N  1578  1  0.42392700  0.55504200  0.82824800  1
  N  1581  1  0.46606600  0.56023800  0.81340500  1
  N  1585  1  0.43924900  0.61138100  0.84201900  1
  N  1586  1  0.45055400  0.50463600  0.79742800  1
  N  1588  1  0.44648500  0.88355000  0.82832100  1
  N  1591  1  0.44131900  0.92055800  0.81360200  1
  N  1595  1  0.39010600  0.84244700  0.84191100  1
  N  1596  1  0.49695100  0.96069100  0.79770000  1
  N  1598  1  0.54417700  0.43219200  0.22203100  1
  N  1601  1  0.54945200  0.47426000  0.23716800  1
  N  1605  1  0.60053000  0.44739900  0.20846900  1
  N  1606  1  0.49373800  0.45877500  0.25282500  1
  N  1608  1  0.87376600  0.45642500  0.22201700  1
  N  1611  1  0.91066700  0.45119100  0.23697700  1
  N  1615  1  0.83271800  0.40005300  0.20832700  1
  N  1616  1  0.95091900  0.50689600  0.25263200  1
  N  1618  1  0.56851100  0.12668600  0.22209300  1
  N  1621  1  0.52642400  0.08991700  0.23722500  1
  N  1625  1  0.55319800  0.16768400  0.20821700  1
  N  1626  1  0.54189000  0.04978100  0.25316700  1
  N  1628  1  0.45193600  0.24460000  0.49483400  1
  N  1631  1  0.41487700  0.20242700  0.48016700  1
  N  1635  1  0.49303100  0.22928300  0.50836500  1
  N  1636  1  0.37476500  0.21797200  0.46431200  1
  N  1638  1  0.75781600  0.22202100  0.49475500  1
  N  1641  1  0.79991400  0.22719800  0.47983300  1
  N  1645  1  0.77310100  0.27836400  0.50842400  1
  N  1646  1  0.78435000  0.17153300  0.46398400  1
  N  1648  1  0.78030500  0.55053100  0.49458600  1
  N  1651  1  0.77513900  0.58746700  0.47967600  1
  N  1655  1  0.72400000  0.50966800  0.50855800  1
  N  1656  1  0.83075000  0.62747900  0.46364900  1
  N  1658  1  0.05398300  0.32986700  0.86930300  1
  N  1661  1  0.03009200  0.35033200  0.85238900  1
  N  1665  1  0.11154200  0.36661900  0.85779000  1
  N  1666  1  0.97428100  0.31822700  0.87058900  1
  N  1668  1  0.26263900  0.94752800  0.86927100  1
  N  1671  1  0.30705700  0.97141400  0.85246900  1
  N  1675  1  0.24177300  0.88999500  0.85762100  1
  N  1676  1  0.33080100  0.02715500  0.87084000  1
  N  1678  1  0.67165700  0.73886600  0.86942000  1
  N  1681  1  0.65114900  0.69448400  0.85255100  1
  N  1685  1  0.63490300  0.75967400  0.85793000  1
  N  1686  1  0.68325700  0.67077800  0.87074000  1
  N  1688  1  0.72814200  0.67916600  0.18096700  1
  N  1691  1  0.68416200  0.65920400  0.19856600  1
  N  1695  1  0.74849300  0.64185900  0.19176300  1
  N  1696  1  0.66075700  0.69191100  0.18112800  1
  N  1698  1  0.32143500  0.06369400  0.18120600  1
  N  1701  1  0.34138100  0.03963400  0.19876100  1
  N  1705  1  0.35875100  0.12132700  0.19206200  1
  N  1706  1  0.30872100  0.98357800  0.18118600  1
  N  1708  1  0.93695500  0.27242700  0.18112600  1
  N  1711  1  0.96097800  0.31644600  0.19866300  1
  N  1715  1  0.87930800  0.25207700  0.19195200  1
  N  1716  1  0.01704500  0.33987100  0.18110000  1
  N  1718  1  0.93815400  0.68057100  0.18050800  1
  N  1721  1  0.96209100  0.66031300  0.19765900  1
  N  1725  1  0.88055500  0.64359700  0.19169500  1
  N  1726  1  0.01795500  0.69244900  0.17967400  1
  N  1728  1  0.72825600  0.06257500  0.18035100  1
  N  1731  1  0.68417800  0.03860700  0.19769700  1
  N  1735  1  0.74879200  0.12020300  0.19140000  1
  N  1736  1  0.66049500  0.98266500  0.17993100  1
  N  1738  1  0.32012700  0.27233900  0.18065300  1
  N  1741  1  0.34032800  0.31650600  0.19784600  1
  N  1745  1  0.35711600  0.25173400  0.19186500  1
  N  1746  1  0.30820400  0.34023000  0.17983500  1
  N  1748  1  0.26401300  0.33142000  0.86927200  1
  N  1751  1  0.30789900  0.35124700  0.85157600  1
  N  1755  1  0.24374900  0.36881400  0.85863000  1
  N  1756  1  0.33143200  0.31873800  0.86910400  1
  N  1758  1  0.67010700  0.94728800  0.86921800  1
  N  1761  1  0.65023200  0.97132500  0.85156000  1
  N  1765  1  0.63270800  0.88962500  0.85862800  1
  N  1766  1  0.68278100  0.02739300  0.86902300  1
  N  1768  1  0.05410600  0.73735400  0.86934200  1
  N  1771  1  0.03004300  0.69351500  0.85156200  1
  N  1775  1  0.11177800  0.75759600  0.85876300  1
  N  1776  1  0.97393300  0.67004500  0.86891400  1
  N  1778  1  0.38784400  0.99672900  0.53603000  1
  N  1781  1  0.36395800  0.01724700  0.51918600  1
  N  1785  1  0.44537900  0.03340600  0.52436700  1
  N  1786  1  0.30818700  0.98519500  0.53749500  1
  N  1788  1  0.59648400  0.61442200  0.53616600  1
  N  1791  1  0.64079900  0.63829500  0.51917200  1
  N  1795  1  0.57566700  0.55684800  0.52467800  1
  N  1796  1  0.66454700  0.69412200  0.53734200  1
  N  1798  1  0.00562000  0.40589400  0.53590100  1
  N  1801  1  0.98509900  0.36148800  0.51906300  1
  N  1805  1  0.96891000  0.42672300  0.52429000  1
  N  1806  1  0.01718800  0.33778900  0.53733500  1
  N  1808  1  0.59795000  0.99846000  0.53599700  1
  N  1811  1  0.64181000  0.01824100  0.51825100  1
  N  1815  1  0.57775000  0.03592400  0.52538200  1
  N  1816  1  0.66525200  0.98558400  0.53561500  1
  N  1818  1  0.00390200  0.61426600  0.53590600  1
  N  1821  1  0.98413800  0.63837300  0.51817200  1
  N  1825  1  0.96639800  0.55661200  0.52528000  1
  N  1826  1  0.01678000  0.69444400  0.53560400  1
  N  1828  1  0.38808100  0.40441900  0.53589000  1
  N  1831  1  0.36401600  0.36050800  0.51822500  1
  N  1835  1  0.44573200  0.42467400  0.52518500  1
  N  1836  1  0.30797400  0.33700300  0.53576100  1
  N  1838  1  0.99145300  0.26410900  0.03612600  1
  N  1841  1  0.00659100  0.23739300  0.01509600  1
  N  1845  1  0.98230300  0.29502900  0.99946700  1
  N  1846  1  0.01809700  0.20802600  0.05166000  1
  N  1848  1  0.25892200  0.00963000  0.03616200  1
  N  1851  1  0.21716100  0.99460200  0.01501600  1
  N  1855  1  0.29913200  0.01889100  0.99959700  1
  N  1856  1  0.17614900  0.98304900  0.05145700  1
  N  1858  1  0.73715700  0.74224800  0.03603300  1
  N  1861  1  0.76393300  0.78413700  0.01507300  1
  N  1865  1  0.70658100  0.70217600  0.99928600  1
  N  1866  1  0.79298800  0.82499700  0.05171400  1
  N  1868  1  0.00035100  0.74747600  0.01402200  1
  N  1871  1  0.98567600  0.77452800  0.03515500  1
  N  1875  1  0.00890400  0.71604000  0.05059000  1
  N  1876  1  0.97468000  0.80434900  0.99865100  1
  N  1878  1  0.73355700  0.00062700  0.01390400  1
  N  1881  1  0.77514600  0.01509300  0.03518800  1
  N  1885  1  0.69342300  0.99207400  0.05034300  1
  N  1886  1  0.81613600  0.02613500  0.99883600  1
  N  1888  1  0.25366800  0.26773000  0.01409600  1
  N  1891  1  0.22651200  0.22600400  0.03520000  1
  N  1895  1  0.28496900  0.30770500  0.05071200  1
  N  1896  1  0.19681100  0.18520400  0.99865600  1
  N  1898  1  0.32436200  0.93143700  0.70273200  1
  N  1901  1  0.34028200  0.90511700  0.68211200  1
  N  1905  1  0.31485000  0.96168800  0.66572300  1
  N  1906  1  0.35217300  0.87648700  0.71908700  1
  N  1908  1  0.59420900  0.67761600  0.70282800  1
  N  1911  1  0.55206600  0.66191300  0.68210700  1
  N  1915  1  0.63406200  0.68712500  0.66589500  1
  N  1916  1  0.51144200  0.65002500  0.71898800  1
  N  1918  1  0.07055000  0.40776500  0.70261300  1
  N  1921  1  0.09711900  0.44997400  0.68200800  1
  N  1925  1  0.04030800  0.36805700  0.66556200  1
  N  1926  1  0.12570600  0.49046200  0.71901400  1
  N  1928  1  0.33340300  0.41348800  0.68062900  1
  N  1931  1  0.31918300  0.44075100  0.70199600  1
  N  1935  1  0.34079500  0.38097000  0.71693500  1
  N  1936  1  0.30942800  0.47179200  0.66581300  1
  N  1938  1  0.06733100  0.66844900  0.68052500  1
  N  1941  1  0.10868800  0.68253800  0.70204100  1
  N  1945  1  0.02726600  0.66102300  0.71670400  1
  N  1946  1  0.14965500  0.69232300  0.66601800  1
  N  1948  1  0.58830800  0.93461300  0.68066900  1
  N  1951  1  0.56094900  0.89311500  0.70198800  1
  N  1955  1  0.62065700  0.97449600  0.71704900  1
  N  1956  1  0.53006600  0.85234400  0.66574900  1
  N  1958  1  0.65794600  0.59864100  0.36942900  1
  N  1961  1  0.67330600  0.57202200  0.34854100  1
  N  1965  1  0.64927000  0.62977300  0.33265400  1
  N  1966  1  0.68431900  0.54240000  0.38519900  1
  N  1968  1  0.92763200  0.34358100  0.36918900  1
  N  1971  1  0.88539800  0.32778900  0.34859500  1
  N  1975  1  0.96715900  0.35224900  0.33217600  1
  N  1976  1  0.84508200  0.31683400  0.38553200  1
  N  1978  1  0.40288300  0.07416800  0.36959100  1
  N  1981  1  0.42921500  0.11614000  0.34862800  1
  N  1985  1  0.37149200  0.03427800  0.33294600  1
  N  1986  1  0.45912400  0.15683600  0.38517200  1
  N  1988  1  0.66771300  0.07976600  0.34735400  1
  N  1991  1  0.65304400  0.10686500  0.36841200  1
  N  1995  1  0.67550200  0.04785300  0.38397200  1
  N  1996  1  0.64276300  0.13717700  0.33189700  1
  N  1998  1  0.39867400  0.33372500  0.34753200  1
  N  2001  1  0.44067000  0.34873100  0.36833000  1
  N  2005  1  0.35924200  0.32602000  0.38436100  1
  N  2006  1  0.48097100  0.35895400  0.33155300  1
  N  2008  1  0.92191100  0.60274600  0.34717000  1
  N  2011  1  0.89504200  0.56101600  0.36834100  1
  N  2015  1  0.95422000  0.64251600  0.38362200  1
  N  2016  1  0.86430500  0.52036600  0.33197300  1
  N  2018  1  0.10594800  0.20038200  0.92288000  1
  N  2021  1  0.07828700  0.19294500  0.88928500  1
  N  2025  1  0.07717900  0.21179700  0.95963200  1
  N  2026  1  0.10919900  0.18409200  0.85237900  1
  N  2028  1  0.08126700  0.89550000  0.92282600  1
  N  2031  1  0.10140000  0.92315000  0.88920200  1
  N  2035  1  0.12152000  0.92434600  0.95951700  1
  N  2036  1  0.06158200  0.89215300  0.85234800  1
  N  2038  1  0.80124100  0.92037600  0.92274800  1
  N  2041  1  0.80864300  0.90015400  0.88912900  1
  N  2045  1  0.78966800  0.88011900  0.95945200  1
  N  2046  1  0.81753600  0.93997100  0.85225600  1
  N  2048  1  0.91071100  0.81058100  0.12732000  1
  N  2051  1  0.88951500  0.81700800  0.16074200  1
  N  2055  1  0.87088500  0.79866000  0.09014700  1
  N  2056  1  0.92909200  0.82659100  0.19802200  1
  N  2058  1  0.19000500  0.11485000  0.12725000  1
  N  2061  1  0.18362400  0.08721700  0.16064000  1
  N  2065  1  0.20206700  0.08708000  0.09005700  1
  N  2066  1  0.17405000  0.11716500  0.19796500  1
  N  2068  1  0.88583900  0.08982600  0.12728100  1
  N  2071  1  0.91344400  0.11117500  0.16066000  1
  N  2075  1  0.91355300  0.12960900  0.09004700  1
  N  2076  1  0.88349800  0.07172200  0.19803100  1
  N  2078  1  0.43991700  0.86734200  0.58969000  1
  N  2081  1  0.41223700  0.86005600  0.55613400  1
  N  2085  1  0.41133000  0.87882000  0.62653400  1
  N  2086  1  0.44306900  0.85123300  0.51912900  1
  N  2088  1  0.41512600  0.56238200  0.58976300  1
  N  2091  1  0.43539500  0.59004900  0.55617200  1
  N  2095  1  0.45522100  0.59120600  0.62656300  1
  N  2096  1  0.39566200  0.55914700  0.51924400  1
  N  2098  1  0.13495400  0.58724900  0.58970000  1
  N  2101  1  0.14234900  0.56696300  0.55612000  1
  N  2105  1  0.12361800  0.54715200  0.62650600  1
  N  2106  1  0.15117800  0.60667800  0.51916900  1
  N  2108  1  0.24547900  0.47895400  0.79254500  1
  N  2111  1  0.22501400  0.48704300  0.82560900  1
  N  2115  1  0.20474800  0.46483800  0.75578000  1
  N  2116  1  0.26532000  0.49839200  0.86266100  1
  N  2118  1  0.52246400  0.78116600  0.79254200  1
  N  2121  1  0.51439900  0.75263200  0.82561500  1
  N  2125  1  0.53668000  0.75463800  0.75579900  1
  N  2126  1  0.50304100  0.78159500  0.86265900  1
  N  2128  1  0.22020600  0.75618000  0.79249700  1
  N  2131  1  0.24883000  0.77658200  0.82554700  1
  N  2135  1  0.24692800  0.79685400  0.75570900  1
  N  2136  1  0.21988900  0.73625500  0.86259200  1
  N  2138  1  0.77166000  0.53227000  0.25790400  1
  N  2141  1  0.74306700  0.52300600  0.22466100  1
  N  2145  1  0.74394300  0.54567100  0.29420800  1
  N  2146  1  0.77298600  0.51230600  0.18805900  1
  N  2148  1  0.74651500  0.22904700  0.25782700  1
  N  2151  1  0.76594900  0.25768700  0.22462400  1
  N  2155  1  0.78755900  0.25665000  0.29420200  1
  N  2156  1  0.72541500  0.22783400  0.18794000  1
  N  2158  1  0.46841800  0.25412300  0.25779100  1
  N  2161  1  0.47749600  0.23467500  0.22452800  1
  N  2165  1  0.45492300  0.21302900  0.29411500  1
  N  2166  1  0.48814700  0.27525400  0.18789600  1
  N  2168  1  0.57911800  0.14558400  0.45888400  1
  N  2171  1  0.55880900  0.15387000  0.49196700  1
  N  2175  1  0.53833000  0.13155500  0.42217600  1
  N  2176  1  0.59927400  0.16540800  0.52891800  1
  N  2178  1  0.85674800  0.44830300  0.45879600  1
  N  2181  1  0.84853900  0.41976400  0.49189000  1
  N  2185  1  0.87082400  0.42156700  0.42210200  1
  N  2186  1  0.83709900  0.44874600  0.52885300  1
  N  2188  1  0.55411600  0.42310900  0.45884300  1
  N  2191  1  0.58264500  0.44337500  0.49195500  1
  N  2195  1  0.58083600  0.46401200  0.42221500  1
  N  2196  1  0.55363300  0.40288600  0.52886800  1
  N  3674  1  0.87846400  0.11468800  0.48512100  1
  N  3677  1  0.88325000  0.15691700  0.49936000  1
  N  3681  1  0.93516700  0.13001800  0.47261900  1
  N  3682  1  0.82724900  0.14130500  0.51427800  1
  N  3684  1  0.20699800  0.13885500  0.48517700  1
  N  3687  1  0.24451200  0.13410900  0.49933600  1
  N  3691  1  0.16579600  0.08214700  0.47243200  1
  N  3692  1  0.28483600  0.19008300  0.51436500  1
  N  3694  1  0.90282700  0.81049500  0.48502100  1
  N  3697  1  0.86054800  0.77292700  0.49905800  1
  N  3701  1  0.88736900  0.85179000  0.47248800  1
  N  3702  1  0.87617000  0.73257700  0.51405100  1
  N  3704  1  0.78475100  0.92681800  0.76110500  1
  N  3707  1  0.74713500  0.88449100  0.74726800  1
  N  3711  1  0.82610700  0.91144360  0.77362400  1
  N  3712  1  0.70683900  0.90010400  0.73208300  1
  N  3714  1  0.08977300  0.90448100  0.76105400  1
  N  3717  1  0.13203200  0.90917900  0.74703600  1
  N  3721  1  0.10513600  0.96118400  0.77358100  1
  N  3722  1  0.11636500  0.85321300  0.73198100  1
  N  3724  1  0.11204700  0.23162900  0.76101200  1
  N  3727  1  0.10734500  0.26924900  0.74715800  1
  N  3731  1  0.05535300  0.19038900  0.77373400  1
  N  3732  1  0.16327200  0.30957700  0.73203100  1
  N  3734  1  0.21244100  0.78153900  0.15188800  1
  N  3737  1  0.21726600  0.82381000  0.16604200  1
  N  3741  1  0.26915900  0.79689200  0.13930700  1
  N  3742  1  0.16131700  0.80830500  0.18098900  1
  N  3744  1  0.54090200  0.80581100  0.15183500  1
  N  3747  1  0.57836900  0.80100700  0.16593100  1
  N  3751  1  0.49950400  0.74908200  0.13934700  1
  N  3752  1  0.61878900  0.85695300  0.18091600  1
  N  3754  1  0.23666700  0.47734400  0.15183700  1
  N  3757  1  0.19440800  0.43986300  0.16595600  1
  N  3761  1  0.22136300  0.51875600  0.13940300  1
  N  3762  1  0.20996100  0.39941200  0.18080000  1
  N  3764  1  0.11790900  0.59348400  0.42621900  1
  N  3767  1  0.08096000  0.55132400  0.41138300  1
  N  3771  1  0.15888400  0.57813500  0.44007500  1
  N  3772  1  0.04086200  0.56684100  0.39541500  1
  N  3774  1  0.42392700  0.57091400  0.42626100  1
  N  3777  1  0.46606600  0.57611000  0.41141800  1
  N  3781  1  0.43924900  0.62725300  0.44003200  1
  N  3782  1  0.45055400  0.52050760  0.39544100  1
  N  3784  1  0.44648500  0.89942200  0.42633400  1
  N  3787  1  0.44131900  0.93643000  0.41161500  1
  N  3791  1  0.39010600  0.85831900  0.43992400  1
  N  3792  1  0.49695100  0.97656300  0.39571300  1
  N  3794  1  0.54417700  0.44806400  0.82004400  1
  N  3797  1  0.54945200  0.49013200  0.83518100  1
  N  3801  1  0.60053000  0.46327100  0.80648200  1
  N  3802  1  0.49373800  0.47464700  0.85083800  1
  N  3804  1  0.87376600  0.47229700  0.82003000  1
  N  3807  1  0.91066700  0.46706300  0.83499000  1
  N  3811  1  0.83271800  0.41592500  0.80634000  1
  N  3812  1  0.95091900  0.52276800  0.85064500  1
  N  3814  1  0.56851100  0.14255800  0.82010600  1
  N  3817  1  0.52642400  0.10578900  0.83523800  1
  N  3821  1  0.55319800  0.18355600  0.80623000  1
  N  3822  1  0.54189000  0.06565300  0.85118000  1
  N  3824  1  0.45193600  0.26047200  0.09284700  1
  N  3827  1  0.41487700  0.21829900  0.07818000  1
  N  3831  1  0.49303100  0.24515500  0.10637800  1
  N  3832  1  0.37476500  0.23384400  0.06232500  1
  N  3834  1  0.75781600  0.23789300  0.09276800  1
  N  3837  1  0.79991400  0.24307000  0.07784600  1
  N  3841  1  0.77310100  0.29423600  0.10643700  1
  N  3842  1  0.78435000  0.18740500  0.06199700  1
  N  3844  1  0.78030500  0.56640300  0.09259900  1
  N  3847  1  0.77513900  0.60333900  0.07768900  1
  N  3851  1  0.72400000  0.52554000  0.10657100  1
  N  3852  1  0.83075000  0.64335100  0.06166200  1
  N  3854  1  0.05398300  0.34573900  0.46731600  1
  N  3857  1  0.03009200  0.36620400  0.45040200  1
  N  3861  1  0.11154200  0.38249100  0.45580300  1
  N  3862  1  0.97428100  0.33409900  0.46860200  1
  N  3864  1  0.26263900  0.96340000  0.46728400  1
  N  3867  1  0.30705700  0.98728600  0.45048200  1
  N  3871  1  0.24177300  0.90586700  0.45563400  1
  N  3872  1  0.33080100  0.04302700  0.46885300  1
  N  3874  1  0.67165700  0.75473760  0.46743300  1
  N  3877  1  0.65114900  0.71035560  0.45056400  1
  N  3881  1  0.63490300  0.77554600  0.45594300  1
  N  3882  1  0.68325700  0.68664955  0.46875300  1
  N  3884  1  0.72814200  0.69503800  0.77898000  1
  N  3887  1  0.68416200  0.67507600  0.79657900  1
  N  3891  1  0.74849300  0.65773100  0.78977600  1
  N  3892  1  0.66075700  0.70778260  0.77914100  1
  N  3894  1  0.32143500  0.07956600  0.77921900  1
  N  3897  1  0.34138100  0.05550600  0.79677400  1
  N  3901  1  0.35875100  0.13719900  0.79007500  1
  N  3902  1  0.30872100  0.99945000  0.77919900  1
  N  3904  1  0.93695500  0.28829900  0.77913900  1
  N  3907  1  0.96097800  0.33231800  0.79667600  1
  N  3911  1  0.87930800  0.26794900  0.78996500  1
  N  3912  1  0.01704500  0.35574300  0.77911300  1
  N  3914  1  0.93815400  0.69644300  0.77852100  1
  N  3917  1  0.96209100  0.67618500  0.79567200  1
  N  3921  1  0.88055500  0.65946900  0.78970800  1
  N  3922  1  0.01795500  0.70832100  0.77768700  1
  N  3924  1  0.72825600  0.07844700  0.77836400  1
  N  3927  1  0.68417800  0.05447900  0.79571000  1
  N  3931  1  0.74879200  0.13607500  0.78941300  1
  N  3932  1  0.66049500  0.99853700  0.77794400  1
  N  3934  1  0.32012700  0.28821100  0.77866600  1
  N  3937  1  0.34032800  0.33237800  0.79585900  1
  N  3941  1  0.35711600  0.26760600  0.78987800  1
  N  3942  1  0.30820400  0.35610160  0.77784800  1
  N  3944  1  0.26401300  0.34729160  0.46728500  1
  N  3947  1  0.30789900  0.36711860  0.44958900  1
  N  3951  1  0.24374900  0.38468600  0.45664300  1
  N  3952  1  0.33143200  0.33460955  0.46711700  1
  N  3954  1  0.67010700  0.96316000  0.46723100  1
  N  3957  1  0.65023200  0.98719700  0.44957300  1
  N  3961  1  0.63270800  0.90549700  0.45664100  1
  N  3962  1  0.68278100  0.04326500  0.46703600  1
  N  3964  1  0.05410600  0.75322600  0.46735500  1
  N  3967  1  0.03004300  0.70938700  0.44957500  1
  N  3971  1  0.11177800  0.77346800  0.45677600  1
  N  3972  1  0.97393300  0.68591700  0.46692700  1
  N  3974  1  0.38784400  0.01260100  0.13404300  1
  N  3977  1  0.36395800  0.03311900  0.11719900  1
  N  3981  1  0.44537900  0.04927800  0.12238000  1
  N  3982  1  0.30818700  0.00106700  0.13550800  1
  N  3984  1  0.59648400  0.63029360  0.13417900  1
  N  3987  1  0.64079900  0.65416660  0.11718500  1
  N  3991  1  0.57566700  0.57272000  0.12269100  1
  N  3992  1  0.66454700  0.70999360  0.13535500  1
  N  3994  1  0.00562000  0.42176600  0.13391400  1
  N  3997  1  0.98509900  0.37736000  0.11707600  1
  N  4001  1  0.96891000  0.44259500  0.12230300  1
  N  4002  1  0.01718800  0.35366100  0.13534800  1
  N  4004  1  0.59795000  0.01433200  0.13401000  1
  N  4007  1  0.64181000  0.03411300  0.11626400  1
  N  4011  1  0.57775000  0.05179600  0.12339500  1
  N  4012  1  0.66525200  0.00145600  0.13362800  1
  N  4014  1  0.00390200  0.63013800  0.13391900  1
  N  4017  1  0.98413800  0.65424500  0.11618500  1
  N  4021  1  0.96639800  0.57248400  0.12329300  1
  N  4022  1  0.01678000  0.71031600  0.13361700  1
  N  4024  1  0.38808100  0.42029060  0.13390300  1
  N  4027  1  0.36401600  0.37637960  0.11623800  1
  N  4031  1  0.44573200  0.44054600  0.12319800  1
  N  4032  1  0.30797400  0.35287460  0.13377400  1
  N  4034  1  0.99145300  0.27998100  0.63413900  1
  N  4037  1  0.00659100  0.25326500  0.61310900  1
  N  4041  1  0.98230300  0.31090100  0.59748000  1
  N  4042  1  0.01809700  0.22389800  0.64967300  1
  N  4044  1  0.25892200  0.02550200  0.63417500  1
  N  4047  1  0.21716100  0.01047400  0.61302900  1
  N  4051  1  0.29913200  0.03476300  0.59761000  1
  N  4052  1  0.17614900  0.99892100  0.64947000  1
  N  4054  1  0.73715700  0.75811960  0.63404600  1
  N  4057  1  0.76393300  0.80000860  0.61308600  1
  N  4061  1  0.70658100  0.71804760  0.59729900  1
  N  4062  1  0.79298800  0.84086860  0.64972700  1
  N  4064  1  0.00035100  0.76334800  0.61203500  1
  N  4067  1  0.98567600  0.79040000  0.63316800  1
  N  4071  1  0.00890400  0.73191200  0.64860300  1
  N  4072  1  0.97468000  0.82022100  0.59666400  1
  N  4074  1  0.73355700  0.01649900  0.61191700  1
  N  4077  1  0.77514600  0.03096500  0.63320100  1
  N  4081  1  0.69342300  0.00794600  0.64835600  1
  N  4082  1  0.81613600  0.04200700  0.59684900  1
  N  4084  1  0.25366800  0.28360160  0.61210900  1
  N  4087  1  0.22651200  0.24187560  0.63321300  1
  N  4091  1  0.28496900  0.32357660  0.64872500  1
  N  4092  1  0.19681100  0.20107555  0.59666900  1
  N  4094  1  0.32436200  0.94730900  0.30074500  1
  N  4097  1  0.34028200  0.92098900  0.28012500  1
  N  4101  1  0.31485000  0.97756000  0.26373600  1
  N  4102  1  0.35217300  0.89235900  0.31710000  1
  N  4104  1  0.59420900  0.69348760  0.30084100  1
  N  4107  1  0.55206600  0.67778500  0.28012000  1
  N  4111  1  0.63406200  0.70299660  0.26390800  1
  N  4112  1  0.51144200  0.66589700  0.31700100  1
  N  4114  1  0.07055000  0.42363700  0.30062600  1
  N  4117  1  0.09711900  0.46584600  0.28002100  1
  N  4121  1  0.04030800  0.38392900  0.26357500  1
  N  4122  1  0.12570600  0.50633400  0.31702700  1
  N  4124  1  0.33340300  0.42935960  0.27864200  1
  N  4127  1  0.31918300  0.45662300  0.30000900  1
  N  4131  1  0.34079500  0.39684160  0.31494800  1
  N  4132  1  0.30942800  0.48766400  0.26382600  1
  N  4134  1  0.06733100  0.68432100  0.27853800  1
  N  4137  1  0.10868800  0.69841000  0.30005400  1
  N  4141  1  0.02726600  0.67689500  0.31471700  1
  N  4142  1  0.14965500  0.70819500  0.26403100  1
  N  4144  1  0.58830800  0.95048500  0.27868200  1
  N  4147  1  0.56094900  0.90898700  0.30000100  1
  N  4151  1  0.62065700  0.99036800  0.31506200  1
  N  4152  1  0.53006600  0.86821600  0.26376200  1
  N  4154  1  0.65794600  0.61451300  0.96744190  1
  N  4157  1  0.67330600  0.58789400  0.94655390  1
  N  4161  1  0.64927000  0.64564500  0.93066690  1
  N  4162  1  0.68431900  0.55827200  0.98321190  1
  N  4164  1  0.92763200  0.35945300  0.96720190  1
  N  4167  1  0.88539800  0.34366100  0.94660790  1
  N  4171  1  0.96715900  0.36812100  0.93018890  1
  N  4172  1  0.84508200  0.33270600  0.98354490  1
  N  4174  1  0.40288300  0.09004000  0.96760390  1
  N  4177  1  0.42921500  0.13201200  0.94664090  1
  N  4181  1  0.37149200  0.05015000  0.93095890  1
  N  4182  1  0.45912400  0.17270800  0.98318490  1
  N  4184  1  0.66771300  0.09563800  0.94536690  1
  N  4187  1  0.65304400  0.12273700  0.96642490  1
  N  4191  1  0.67550200  0.06372500  0.98198490  1
  N  4192  1  0.64276300  0.15304900  0.92990990  1
  N  4194  1  0.39867400  0.34959700  0.94554490  1
  N  4197  1  0.44067000  0.36460300  0.96634290  1
  N  4201  1  0.35924200  0.34189200  0.98237390  1
  N  4202  1  0.48097100  0.37482600  0.92956590  1
  N  4204  1  0.92191100  0.61861800  0.94518290  1
  N  4207  1  0.89504200  0.57688800  0.96635390  1
  N  4211  1  0.95422000  0.65838800  0.98163490  1
  N  4212  1  0.86430500  0.53623800  0.92998590  1
  N  4214  1  0.10594800  0.21625400  0.52089300  1
  N  4217  1  0.07828700  0.20881700  0.48729800  1
  N  4221  1  0.07717900  0.22766900  0.55764500  1
  N  4222  1  0.10919900  0.19996360  0.45039200  1
  N  4224  1  0.08126700  0.91137200  0.52083900  1
  N  4227  1  0.10140000  0.93902200  0.48721500  1
  N  4231  1  0.12152000  0.94021800  0.55753000  1
  N  4232  1  0.06158200  0.90802500  0.45036100  1
  N  4234  1  0.80124100  0.93624800  0.52076100  1
  N  4237  1  0.80864300  0.91602600  0.48714200  1
  N  4241  1  0.78966800  0.89599100  0.55746500  1
  N  4242  1  0.81753600  0.95584300  0.45026900  1
  N  4244  1  0.91071100  0.82645300  0.72533300  1
  N  4247  1  0.88951500  0.83288000  0.75875500  1
  N  4251  1  0.87088500  0.81453200  0.68816000  1
  N  4252  1  0.92909200  0.84246300  0.79603500  1
  N  4254  1  0.19000500  0.13072200  0.72526300  1
  N  4257  1  0.18362400  0.10308900  0.75865300  1
  N  4261  1  0.20206700  0.10295200  0.68807000  1
  N  4262  1  0.17405000  0.13303700  0.79597800  1
  N  4264  1  0.88583900  0.10569800  0.72529400  1
  N  4267  1  0.91344400  0.12704700  0.75867300  1
  N  4271  1  0.91355300  0.14548100  0.68806000  1
  N  4272  1  0.88349800  0.08759400  0.79604400  1
  N  4274  1  0.43991700  0.88321400  0.18770300  1
  N  4277  1  0.41223700  0.87592800  0.15414700  1
  N  4281  1  0.41133000  0.89469200  0.22454700  1
  N  4282  1  0.44306900  0.86710500  0.11714200  1
  N  4284  1  0.41512600  0.57825400  0.18777600  1
  N  4287  1  0.43539500  0.60592100  0.15418500  1
  N  4291  1  0.45522100  0.60707800  0.22457600  1
  N  4292  1  0.39566200  0.57501900  0.11725700  1
  N  4294  1  0.13495400  0.60312100  0.18771300  1
  N  4297  1  0.14234900  0.58283500  0.15413300  1
  N  4301  1  0.12361800  0.56302400  0.22451900  1
  N  4302  1  0.15117800  0.62255000  0.11718200  1
  N  4304  1  0.24547900  0.49482600  0.39055800  1
  N  4307  1  0.22501400  0.50291500  0.42362200  1
  N  4311  1  0.20474800  0.48071000  0.35379300  1
  N  4312  1  0.26532000  0.51426400  0.46067400  1
  N  4314  1  0.52246400  0.79703800  0.39055500  1
  N  4317  1  0.51439900  0.76850400  0.42362800  1
  N  4321  1  0.53668000  0.77051000  0.35381200  1
  N  4322  1  0.50304100  0.79746700  0.46067200  1
  N  4324  1  0.22020600  0.77205200  0.39051000  1
  N  4327  1  0.24883000  0.79245400  0.42356000  1
  N  4331  1  0.24692800  0.81272600  0.35372200  1
  N  4332  1  0.21988900  0.75212700  0.46060500  1
  N  4334  1  0.77166000  0.54814200  0.85591700  1
  N  4337  1  0.74306700  0.53887800  0.82267400  1
  N  4341  1  0.74394300  0.56154300  0.89222100  1
  N  4342  1  0.77298600  0.52817800  0.78607200  1
  N  4344  1  0.74651500  0.24491900  0.85584000  1
  N  4347  1  0.76594900  0.27355900  0.82263700  1
  N  4351  1  0.78755900  0.27252200  0.89221500  1
  N  4352  1  0.72541500  0.24370600  0.78595300  1
  N  4354  1  0.46841800  0.26999500  0.85580400  1
  N  4357  1  0.47749600  0.25054700  0.82254100  1
  N  4361  1  0.45492300  0.22890100  0.89212800  1
  N  4362  1  0.48814700  0.29112600  0.78590900  1
  N  4364  1  0.57911800  0.16145600  0.05689700  1
  N  4367  1  0.55880900  0.16974200  0.08998000  1
  N  4371  1  0.53833000  0.14742700  0.02018900  1
  N  4372  1  0.59927400  0.18128000  0.12693100  1
  N  4374  1  0.85674800  0.46417500  0.05680900  1
  N  4377  1  0.84853900  0.43563600  0.08990300  1
  N  4381  1  0.87082400  0.43743900  0.02011500  1
  N  4382  1  0.83709900  0.46461800  0.12686600  1
  N  4384  1  0.55411600  0.43898100  0.05685600  1
  N  4387  1  0.58264500  0.45924700  0.08996800  1
  N  4391  1  0.58083600  0.47988400  0.02022800  1
  N  4392  1  0.55363300  0.41875800  0.12688100  1
