# generated using pymatgen
data_H12(C4N)5
_symmetry_space_group_name_H-M   'P 1'
_cell_length_a   52.35670000
_cell_length_b   60.97530000
_cell_length_c   69.85180000
_cell_angle_alpha   90.00110000
_cell_angle_beta   90.23280000
_cell_angle_gamma   89.73330000
_symmetry_Int_Tables_number   1
_chemical_formula_structural   H12(C4N)5
_chemical_formula_sum   'H384 C640 N160'
_cell_volume   222995.20428258
_cell_formula_units_Z   32
loop_
 _symmetry_equiv_pos_site_id
 _symmetry_equiv_pos_as_xyz
  1  'x, y, z'
loop_
 _atom_site_type_symbol
 _atom_site_label
 _atom_site_symmetry_multiplicity
 _atom_site_fract_x
 _atom_site_fract_y
 _atom_site_fract_z
 _atom_site_occupancy
  H  7  1  0.91531200  0.88144500  0.89459900  1
  H  8  1  0.86511300  0.82907400  0.90165300  1
  H  15  1  0.94824700  0.92756400  0.82966800  1
  H  16  1  0.91248300  0.86761500  0.84061500  1
  H  19  1  0.86044700  0.88447600  0.84141400  1
  H  20  1  0.84037400  0.86405500  0.84371500  1
  H  21  1  0.89767200  0.93950800  0.88446600  1
  H  22  1  0.88209800  0.91641400  0.88783900  1
  H  27  1  0.93266700  0.87832800  0.80798200  1
  H  28  1  0.83910000  0.82898000  0.85508100  1
  H  29  1  0.90631000  0.83665400  0.92265900  1
  H  30  1  0.91721200  0.96099100  0.85653200  1
  H  37  1  0.09559200  0.16402300  0.89518500  1
  H  38  1  0.14767700  0.21510800  0.90145400  1
  H  45  1  0.05572100  0.11957300  0.83318800  1
  H  46  1  0.09855300  0.17652800  0.84021500  1
  H  49  1  0.14882700  0.15916400  0.84153700  1
  H  50  1  0.16963200  0.17909900  0.84349000  1
  H  51  1  0.11224700  0.10568500  0.88524600  1
  H  52  1  0.12863100  0.12837800  0.88742000  1
  H  57  1  0.07656800  0.16615000  0.80872300  1
  H  58  1  0.17260400  0.21408900  0.85448600  1
  H  59  1  0.10736000  0.20864200  0.92307800  1
  H  60  1  0.07324500  0.09424400  0.87762400  1
  H  67  1  0.91769500  0.16464200  0.60521100  1
  H  68  1  0.86512400  0.21626600  0.60073700  1
  H  75  1  0.96101000  0.11882100  0.66700200  1
  H  76  1  0.92497700  0.17955600  0.65886500  1
  H  79  1  0.87400800  0.16597900  0.66404900  1
  H  80  1  0.85375900  0.18664700  0.66262100  1
  H  81  1  0.90022600  0.10747700  0.61785100  1
  H  82  1  0.88465500  0.13088800  0.61588900  1
  H  87  1  0.97775800  0.15951000  0.67849900  1
  H  88  1  0.85192600  0.22333800  0.64706300  1
  H  89  1  0.90154000  0.20865300  0.57652700  1
  H  90  1  0.92315600  0.08613200  0.64220400  1
  H  97  1  0.09429000  0.87684900  0.60501200  1
  H  98  1  0.14755000  0.82595600  0.60007800  1
  H  105  1  0.05341300  0.92195400  0.66822500  1
  H  106  1  0.09037000  0.86202200  0.65837800  1
  H  109  1  0.14183800  0.87858800  0.66215200  1
  H  110  1  0.16287800  0.85860500  0.66069900  1
  H  111  1  0.11030900  0.93474000  0.61692300  1
  H  112  1  0.12634500  0.91165800  0.61445600  1
  H  117  1  0.04383100  0.87042700  0.67732600  1
  H  118  1  0.16689400  0.82376100  0.64787900  1
  H  119  1  0.10950200  0.83296400  0.57647800  1
  H  120  1  0.08849800  0.95549200  0.64071800  1
  H  127  1  0.09622800  0.16402900  0.10695300  1
  H  128  1  0.14782300  0.21539300  0.09997100  1
  H  135  1  0.06220500  0.11838900  0.17218300  1
  H  136  1  0.09854700  0.17804200  0.16099900  1
  H  139  1  0.15015300  0.16053600  0.16064400  1
  H  140  1  0.17077700  0.18054600  0.15837100  1
  H  141  1  0.11283300  0.10579200  0.11753000  1
  H  142  1  0.12866200  0.12874000  0.11410500  1
  H  147  1  0.07839500  0.16874500  0.19310800  1
  H  148  1  0.17312900  0.21541400  0.14686200  1
  H  149  1  0.10682200  0.20842400  0.07870900  1
  H  150  1  0.09334700  0.08473700  0.14555200  1
  H  157  1  0.91642400  0.88034400  0.10626900  1
  H  158  1  0.86387700  0.82960100  0.10026500  1
  H  165  1  0.95701800  0.92445600  0.16826900  1
  H  166  1  0.91301700  0.86811700  0.16144200  1
  H  169  1  0.86321300  0.88604000  0.15982100  1
  H  170  1  0.84220600  0.86625900  0.15800900  1
  H  171  1  0.90115100  0.93878900  0.11592600  1
  H  172  1  0.88426600  0.91634800  0.11382100  1
  H  177  1  0.93435800  0.87903300  0.19317200  1
  H  178  1  0.83882900  0.83137500  0.14743600  1
  H  179  1  0.90413300  0.83580600  0.07844800  1
  H  180  1  0.94064200  0.94947300  0.12360100  1
  H  187  1  0.10537400  0.88506800  0.39746600  1
  H  188  1  0.16044200  0.83519400  0.40084900  1
  H  195  1  0.04728800  0.92006300  0.33534600  1
  H  196  1  0.08593400  0.86112300  0.34633200  1
  H  199  1  0.13248200  0.87252600  0.33401400  1
  H  200  1  0.15298200  0.85204000  0.33534600  1
  H  201  1  0.11523000  0.93863600  0.37674700  1
  H  202  1  0.13203600  0.91597000  0.37924600  1
  H  207  1  0.03347000  0.87298000  0.32801700  1
  H  208  1  0.15728300  0.81664600  0.35788100  1
  H  209  1  0.14946100  0.85885100  0.42889500  1
  H  210  1  0.08715800  0.95604000  0.35366000  1
  H  217  1  0.90635900  0.15853100  0.39765000  1
  H  218  1  0.85067800  0.20787000  0.40094500  1
  H  225  1  0.96362900  0.12377700  0.33518500  1
  H  226  1  0.92402400  0.18217100  0.34602600  1
  H  229  1  0.87751000  0.16996100  0.33427900  1
  H  230  1  0.85679800  0.19027000  0.33559200  1
  H  231  1  0.89770000  0.10476000  0.37798900  1
  H  232  1  0.88033200  0.12710900  0.38019000  1
  H  237  1  0.97573500  0.17192000  0.32794900  1
  H  238  1  0.85314100  0.22591800  0.35766200  1
  H  239  1  0.86234900  0.18504100  0.42907900  1
  H  240  1  0.92530700  0.08724900  0.35629000  1
  H  247  1  0.41728400  0.37766400  0.89574800  1
  H  248  1  0.36215800  0.32839200  0.90004300  1
  H  255  1  0.45535900  0.42500100  0.83177800  1
  H  256  1  0.41913000  0.36497400  0.84164500  1
  H  259  1  0.36835400  0.38254300  0.83913200  1
  H  260  1  0.34709400  0.36282700  0.84045200  1
  H  261  1  0.40182200  0.43675600  0.88506600  1
  H  262  1  0.38605700  0.41368500  0.88784100  1
  H  267  1  0.44044800  0.37427900  0.81043300  1
  H  268  1  0.34389600  0.32560000  0.85408400  1
  H  269  1  0.40191800  0.33296500  0.92291600  1
  H  270  1  0.42177600  0.45800200  0.85873200  1
  H  277  1  0.59552700  0.66523400  0.89584800  1
  H  278  1  0.65004600  0.71503100  0.90008100  1
  H  285  1  0.55898000  0.61608900  0.83224900  1
  H  286  1  0.59622900  0.67586500  0.84077400  1
  H  289  1  0.64633100  0.65869700  0.84057400  1
  H  290  1  0.66718000  0.67875200  0.84178500  1
  H  291  1  0.60935300  0.60660700  0.88808700  1
  H  292  1  0.62585700  0.62937600  0.89008000  1
  H  297  1  0.57686100  0.66255600  0.80818700  1
  H  298  1  0.66908400  0.71675000  0.85439900  1
  H  299  1  0.60959400  0.71016300  0.92267300  1
  H  300  1  0.58988700  0.58439600  0.86425700  1
  H  307  1  0.41902500  0.66889600  0.60454900  1
  H  308  1  0.36277900  0.71790800  0.60304000  1
  H  315  1  0.46547600  0.62123500  0.66506400  1
  H  316  1  0.42853800  0.68179900  0.65826200  1
  H  319  1  0.37846300  0.66600300  0.66462400  1
  H  320  1  0.35692700  0.68574400  0.66437400  1
  H  321  1  0.40376000  0.61032700  0.61644800  1
  H  322  1  0.38788600  0.63362900  0.61503700  1
  H  327  1  0.48161500  0.66230200  0.67746700  1
  H  328  1  0.35035000  0.72271000  0.64935200  1
  H  329  1  0.39813800  0.71309900  0.57756300  1
  H  330  1  0.42668600  0.58889300  0.64043100  1
  H  337  1  0.59609000  0.37510700  0.60472800  1
  H  338  1  0.65216400  0.32599000  0.60306300  1
  H  345  1  0.55030300  0.42260900  0.66530000  1
  H  346  1  0.58795300  0.36239500  0.65887500  1
  H  349  1  0.63778500  0.37802900  0.66463900  1
  H  350  1  0.65921600  0.35821400  0.66431500  1
  H  351  1  0.61029500  0.43328900  0.61570200  1
  H  352  1  0.62666000  0.41024600  0.61466200  1
  H  357  1  0.53475100  0.38238200  0.67811000  1
  H  358  1  0.66462900  0.32108100  0.64955100  1
  H  359  1  0.61591600  0.33112000  0.57767100  1
  H  360  1  0.58776100  0.45486100  0.63834700  1
  H  367  1  0.59730300  0.66471600  0.10580500  1
  H  368  1  0.65066400  0.71549000  0.10228300  1
  H  375  1  0.56074200  0.61521000  0.16895200  1
  H  376  1  0.59627800  0.67581200  0.16064600  1
  H  379  1  0.64697400  0.65956500  0.16206900  1
  H  380  1  0.66734600  0.67999400  0.16111500  1
  H  381  1  0.61332200  0.60604100  0.11470200  1
  H  382  1  0.62891000  0.62929000  0.11256100  1
  H  387  1  0.57692000  0.66233900  0.19296000  1
  H  388  1  0.66884700  0.71805700  0.14798700  1
  H  389  1  0.61096200  0.71009200  0.07916000  1
  H  390  1  0.59381800  0.58356300  0.14019700  1
  H  397  1  0.41904500  0.37676000  0.10588100  1
  H  398  1  0.36420700  0.32719700  0.10185200  1
  H  405  1  0.45582700  0.42648200  0.16906100  1
  H  406  1  0.41858500  0.36657500  0.16109100  1
  H  409  1  0.36858800  0.38355700  0.16131100  1
  H  410  1  0.34764600  0.36356900  0.16018900  1
  H  411  1  0.40509000  0.43542200  0.11338100  1
  H  412  1  0.38862500  0.41260900  0.11155700  1
  H  417  1  0.43766400  0.38038400  0.19357400  1
  H  418  1  0.34537700  0.32552600  0.14753800  1
  H  419  1  0.40403800  0.33183600  0.07893900  1
  H  420  1  0.42446900  0.45785700  0.13747100  1
  H  427  1  0.59724200  0.37698300  0.39732300  1
  H  428  1  0.65307100  0.32758900  0.39798700  1
  H  435  1  0.54869300  0.42339700  0.33655800  1
  H  436  1  0.58585400  0.36301800  0.34384100  1
  H  439  1  0.63541900  0.37889300  0.33633200  1
  H  440  1  0.65675700  0.35899700  0.33629600  1
  H  441  1  0.61142800  0.43535300  0.38423100  1
  H  442  1  0.62740400  0.41211700  0.38578700  1
  H  447  1  0.53238500  0.38270600  0.32451700  1
  H  448  1  0.66171200  0.32166700  0.35137300  1
  H  449  1  0.61898000  0.33272800  0.42405300  1
  H  450  1  0.58794000  0.45622200  0.36019400  1
  H  457  1  0.41667500  0.66897800  0.39716400  1
  H  458  1  0.35952300  0.71723600  0.39815500  1
  H  465  1  0.46456600  0.62348500  0.33555800  1
  H  466  1  0.42628000  0.68315700  0.34360500  1
  H  469  1  0.37703000  0.66607200  0.33648400  1
  H  470  1  0.35516300  0.68553400  0.33658000  1
  H  471  1  0.40424300  0.61043500  0.38450400  1
  H  472  1  0.38765800  0.63330900  0.38616500  1
  H  477  1  0.47718100  0.67068800  0.32523700  1
  H  478  1  0.34989000  0.72280300  0.35146100  1
  H  479  1  0.39435500  0.71264800  0.42409700  1
  H  480  1  0.42732300  0.58997000  0.36131100  1
  H  487  1  0.87597200  0.89539000  0.04861200  1
  H  492  1  0.92232500  0.83869800  0.04656200  1
  H  497  1  0.86367100  0.91358800  0.98344100  1
  H  498  1  0.86354400  0.91348200  0.01779100  1
  H  499  1  0.87622900  0.89562700  0.95267000  1
  H  500  1  0.92269800  0.83899400  0.95494200  1
  H  509  1  0.13473600  0.14856600  0.04891000  1
  H  514  1  0.08986200  0.20613100  0.04663500  1
  H  519  1  0.14655700  0.13025800  0.98378200  1
  H  520  1  0.14658500  0.13023500  0.01813100  1
  H  521  1  0.13464200  0.14861600  0.95296000  1
  H  522  1  0.08982200  0.20620500  0.95504400  1
  H  531  1  0.87431500  0.14797200  0.45268200  1
  H  536  1  0.92652800  0.20030300  0.45443700  1
  H  541  1  0.85960500  0.13202900  0.51798000  1
  H  542  1  0.85984900  0.13148800  0.48363500  1
  H  543  1  0.87360700  0.14943900  0.54868600  1
  H  544  1  0.92527200  0.20218500  0.54629100  1
  H  553  1  0.13624500  0.89505500  0.45269500  1
  H  558  1  0.08555600  0.84161300  0.45382500  1
  H  563  1  0.15055800  0.91074400  0.51817100  1
  H  564  1  0.15023400  0.91159900  0.48383000  1
  H  565  1  0.13719700  0.89270400  0.54865900  1
  H  566  1  0.08709600  0.83886400  0.54563400  1
  H  575  1  0.37882700  0.39256700  0.04915700  1
  H  580  1  0.42075400  0.33343900  0.04653300  1
  H  585  1  0.36693100  0.41173100  0.98414900  1
  H  586  1  0.36722200  0.41139700  0.01849600  1
  H  587  1  0.37795900  0.39346600  0.95317200  1
  H  588  1  0.42007200  0.33437400  0.95481400  1
  H  597  1  0.63759900  0.65025600  0.04892700  1
  H  602  1  0.59371400  0.70837600  0.04689100  1
  H  607  1  0.64914700  0.63210800  0.98373700  1
  H  608  1  0.64937100  0.63206100  0.01808600  1
  H  609  1  0.63698700  0.65038600  0.95295000  1
  H  610  1  0.59314200  0.70851100  0.95514200  1
  H  619  1  0.37539800  0.65111100  0.45290600  1
  H  624  1  0.41700400  0.71012300  0.45478200  1
  H  629  1  0.36515800  0.63281800  0.51829000  1
  H  630  1  0.36460700  0.63267200  0.48392700  1
  H  631  1  0.37693700  0.65151700  0.54905100  1
  H  632  1  0.41849100  0.71050200  0.54629800  1
  H  641  1  0.63981600  0.39354500  0.45321200  1
  H  646  1  0.59640900  0.33549800  0.45466100  1
  H  651  1  0.65132700  0.41096200  0.51872600  1
  H  652  1  0.65153400  0.41140900  0.48436500  1
  H  653  1  0.63923600  0.39229600  0.54935100  1
  H  654  1  0.59588700  0.33428500  0.54620200  1
  H  663  1  0.06613700  0.05280300  0.87744900  1
  H  668  1  0.01324200  0.07762200  0.83722400  1
  H  673  1  0.03192900  0.98324400  0.89351900  1
  H  674  1  0.05780900  0.01557400  0.89178700  1
  H  675  1  0.99386900  0.96183200  0.88195000  1
  H  676  1  0.94346900  0.99208100  0.84280300  1
  H  685  1  0.07108300  0.98929300  0.62744800  1
  H  690  1  0.00361600  0.95863500  0.64601300  1
  H  695  1  0.04619600  0.06346700  0.61934400  1
  H  696  1  0.06954600  0.02953000  0.62001900  1
  H  697  1  0.00591000  0.08441800  0.62600900  1
  H  698  1  0.94143000  0.04955200  0.64482900  1
  H  707  1  0.94588700  0.99149300  0.12425800  1
  H  712  1  0.99915100  0.96711400  0.16440800  1
  H  717  1  0.97903000  0.06149700  0.10838000  1
  H  718  1  0.95367600  0.02885000  0.10999000  1
  H  719  1  0.01674600  0.08330000  0.12002800  1
  H  720  1  0.06756700  0.05348200  0.15911400  1
  H  729  1  0.94147700  0.05383000  0.37275100  1
  H  734  1  0.00941700  0.08408200  0.35462700  1
  H  739  1  0.96545500  0.97926300  0.38007600  1
  H  740  1  0.94247400  0.01340100  0.37967600  1
  H  741  1  0.00563000  0.95809800  0.37347100  1
  H  742  1  0.07040500  0.99268900  0.35474300  1
  H  751  1  0.56998900  0.55186500  0.87791800  1
  H  756  1  0.50622300  0.58244600  0.85213700  1
  H  761  1  0.54245000  0.47877800  0.88737100  1
  H  762  1  0.56648600  0.51218600  0.88717300  1
  H  763  1  0.50289000  0.45816900  0.87812400  1
  H  764  1  0.44237800  0.49311200  0.85218600  1
  H  773  1  0.57176200  0.48928400  0.62545200  1
  H  778  1  0.50289300  0.45984100  0.64261000  1
  H  783  1  0.54941300  0.56418400  0.61834900  1
  H  784  1  0.57166400  0.52970100  0.61867700  1
  H  785  1  0.50961900  0.58590800  0.62486500  1
  H  786  1  0.44367600  0.55209200  0.64229400  1
  H  795  1  0.44292400  0.49142300  0.12583700  1
  H  800  1  0.50957900  0.45872800  0.14455300  1
  H  805  1  0.46990000  0.56485500  0.11807000  1
  H  806  1  0.44562400  0.53158400  0.11838900  1
  H  807  1  0.51072700  0.58460800  0.12524900  1
  H  808  1  0.57424300  0.54767700  0.14405200  1
  H  817  1  0.44329100  0.55612700  0.37544500  1
  H  822  1  0.51196500  0.58525900  0.35745100  1
  H  827  1  0.46558000  0.48128500  0.38305600  1
  H  828  1  0.44337100  0.51578900  0.38252900  1
  H  829  1  0.50528600  0.45944500  0.37653300  1
  H  830  1  0.57102600  0.49296500  0.35823700  1
  H  839  1  0.82224000  0.78837300  0.90316600  1
  H  844  1  0.79058700  0.81707900  0.85356600  1
  H  849  1  0.76941700  0.72734300  0.91484800  1
  H  850  1  0.80260200  0.75427100  0.91608500  1
  H  851  1  0.72915000  0.71357000  0.90004000  1
  H  852  1  0.70024000  0.74568100  0.85106500  1
  H  861  1  0.19053300  0.25505400  0.90276000  1
  H  866  1  0.22036200  0.22706500  0.85241200  1
  H  871  1  0.24433800  0.31541000  0.91479000  1
  H  872  1  0.21091900  0.28871100  0.91597500  1
  H  873  1  0.28427100  0.32919500  0.89976400  1
  H  874  1  0.31144800  0.29786600  0.85003000  1
  H  883  1  0.82888800  0.25916200  0.61098000  1
  H  888  1  0.78544700  0.21825400  0.64666700  1
  H  893  1  0.77765400  0.32253900  0.60369800  1
  H  894  1  0.81178100  0.29623700  0.60261800  1
  H  895  1  0.73350600  0.33254500  0.61388100  1
  H  896  1  0.69374800  0.28918500  0.64986700  1
  H  905  1  0.18674300  0.78252400  0.60568500  1
  H  910  1  0.22367600  0.82042100  0.64778000  1
  H  915  1  0.24055800  0.72094700  0.59807700  1
  H  916  1  0.20592600  0.74669700  0.59619400  1
  H  917  1  0.28362400  0.71093800  0.61062500  1
  H  918  1  0.31791300  0.75179100  0.65191100  1
  H  927  1  0.19059200  0.25614700  0.09906300  1
  H  932  1  0.22203100  0.22670400  0.14840700  1
  H  937  1  0.24435500  0.31658200  0.08751900  1
  H  938  1  0.21069800  0.29009500  0.08627600  1
  H  939  1  0.28496100  0.32972600  0.10221300  1
  H  940  1  0.31368400  0.29695100  0.15091100  1
  H  949  1  0.82436200  0.78702800  0.10135300  1
  H  954  1  0.79017700  0.81880500  0.14832400  1
  H  959  1  0.77218200  0.72531200  0.09071900  1
  H  960  1  0.80548500  0.75210900  0.08945200  1
  H  961  1  0.73104000  0.71256100  0.10456800  1
  H  962  1  0.69953700  0.74763000  0.15085200  1
  H  971  1  0.18327800  0.78588100  0.37909300  1
  H  976  1  0.23518900  0.82937900  0.35354000  1
  H  981  1  0.23083600  0.72032600  0.38618400  1
  H  982  1  0.19740400  0.74734600  0.38563800  1
  H  983  1  0.27659600  0.71032800  0.38039100  1
  H  984  1  0.32391100  0.75653600  0.35335800  1
  H  993  1  0.82805900  0.25722100  0.37887800  1
  H  998  1  0.77510000  0.21384400  0.35407800  1
  H  1003  1  0.78152500  0.32332300  0.38544200  1
  H  1004  1  0.81457500  0.29596300  0.38504700  1
  H  1005  1  0.73580500  0.33370100  0.37976000  1
  H  1006  1  0.68732800  0.28761800  0.35343300  1
  H  1015  1  0.01200500  0.90506400  0.81018500  1
  H  1020  1  0.95788700  0.86441400  0.78298600  1
  H  1025  1  0.07625600  0.91311500  0.76349900  1
  H  1026  1  0.05243100  0.91373100  0.79275900  1
  H  1027  1  0.07837300  0.90333200  0.72872200  1
  H  1028  1  0.02070900  0.86295700  0.70566400  1
  H  1037  1  0.99614300  0.14200300  0.80971000  1
  H  1042  1  0.05265700  0.18032500  0.78303600  1
  H  1047  1  0.93180900  0.13650100  0.76237900  1
  H  1048  1  0.95548700  0.13482900  0.79181600  1
  H  1049  1  0.93032200  0.14638400  0.72761500  1
  H  1050  1  0.99015100  0.18430500  0.70492100  1
  H  1059  1  0.99957500  0.14063700  0.19409500  1
  H  1064  1  0.05568100  0.18028600  0.22010900  1
  H  1069  1  0.93625200  0.13478200  0.24178300  1
  H  1070  1  0.95943300  0.13303100  0.21226500  1
  H  1071  1  0.93504200  0.14537100  0.27637000  1
  H  1072  1  0.99455500  0.18442100  0.29843300  1
  H  1081  1  0.01538200  0.90126500  0.19340800  1
  H  1086  1  0.95732400  0.86319600  0.21846400  1
  H  1091  1  0.07756600  0.90608200  0.24236700  1
  H  1092  1  0.05529100  0.90800100  0.21233300  1
  H  1093  1  0.07738400  0.89604900  0.27707600  1
  H  1094  1  0.01588800  0.85893300  0.29826100  1
  H  1103  1  0.51805700  0.40458300  0.80871500  1
  H  1108  1  0.46331500  0.36268900  0.78377600  1
  H  1113  1  0.58091200  0.41066900  0.76065300  1
  H  1114  1  0.55779300  0.41275500  0.79018700  1
  H  1115  1  0.58234400  0.39905700  0.72627800  1
  H  1116  1  0.52421500  0.35771100  0.70540500  1
  H  1125  1  0.49639100  0.63953400  0.80891200  1
  H  1130  1  0.55244400  0.68033700  0.78457900  1
  H  1135  1  0.43394300  0.63440000  0.76011700  1
  H  1136  1  0.45658900  0.63214700  0.78998100  1
  H  1137  1  0.43340700  0.64557000  0.72563000  1
  H  1138  1  0.49296800  0.68549000  0.70524900  1
  H  1147  1  0.49742900  0.63704600  0.19213800  1
  H  1152  1  0.55202700  0.67973300  0.21621000  1
  H  1157  1  0.43572200  0.63053700  0.24098100  1
  H  1158  1  0.45810000  0.62870700  0.21111300  1
  H  1159  1  0.43504200  0.64209900  0.27538100  1
  H  1160  1  0.49324900  0.68393200  0.29542400  1
  H  1169  1  0.51862500  0.40241100  0.19284000  1
  H  1174  1  0.46140300  0.36333100  0.21779600  1
  H  1179  1  0.58118500  0.40722600  0.24159100  1
  H  1180  1  0.55863200  0.40932300  0.21167600  1
  H  1181  1  0.58134800  0.39682200  0.27627000  1
  H  1182  1  0.52057000  0.35872500  0.29726800  1
  C  1  1  0.88896000  0.87761700  0.87170200  1
  C  2  1  0.90001600  0.87258700  0.88966100  1
  C  3  1  0.89081600  0.85523000  0.90084900  1
  C  4  1  0.87107900  0.84208900  0.89353300  1
  C  5  1  0.85922200  0.84659600  0.87564700  1
  C  6  1  0.86783200  0.86502700  0.86474400  1
  C  9  1  0.90263500  0.89289900  0.86013500  1
  C  10  1  0.90716600  0.91525100  0.86537600  1
  C  11  1  0.92461100  0.92784200  0.85423200  1
  C  12  1  0.93625400  0.91832300  0.83797600  1
  C  13  1  0.93180300  0.89634400  0.83280300  1
  C  14  1  0.91508500  0.88384200  0.84401400  1
  C  23  1  0.94327400  0.88708400  0.81696900  1
  C  24  1  0.84054000  0.83205600  0.86901100  1
  C  25  1  0.90011900  0.85151800  0.91901800  1
  C  26  1  0.93066000  0.94954500  0.85802800  1
  C  31  1  0.12129700  0.16706000  0.87193100  1
  C  32  1  0.11102400  0.17245500  0.89001400  1
  C  33  1  0.12118200  0.18957000  0.90106400  1
  C  34  1  0.14105600  0.20221900  0.89343600  1
  C  35  1  0.15216200  0.19740300  0.87540000  1
  C  36  1  0.14264400  0.17908600  0.86470300  1
  C  39  1  0.10673900  0.15184800  0.86073200  1
  C  40  1  0.10057300  0.13010300  0.86691200  1
  C  41  1  0.08086200  0.11820000  0.85712800  1
  C  42  1  0.06959000  0.12784000  0.84060300  1
  C  43  1  0.07642000  0.14880700  0.83393700  1
  C  44  1  0.09462300  0.16074600  0.84436200  1
  C  53  1  0.06548100  0.15790100  0.81769100  1
  C  54  1  0.17107500  0.21152000  0.86847500  1
  C  55  1  0.11257700  0.19354500  0.91934600  1
  C  56  1  0.07076300  0.09834900  0.86399800  1
  C  61  1  0.89563900  0.16966200  0.63023800  1
  C  62  1  0.90319900  0.17372300  0.61116200  1
  C  63  1  0.89167300  0.19036300  0.60014600  1
  C  64  1  0.87296100  0.20373500  0.60867100  1
  C  65  1  0.86474600  0.20020000  0.62771700  1
  C  66  1  0.87599500  0.18284800  0.63870800  1
  C  69  1  0.91105200  0.15431800  0.64070600  1
  C  70  1  0.91394100  0.13171000  0.63547400  1
  C  71  1  0.93302600  0.11874200  0.64493100  1
  C  72  1  0.94784400  0.12822300  0.65972700  1
  C  73  1  0.94465800  0.15029200  0.66505400  1
  C  74  1  0.92657700  0.16326400  0.65534000  1
  C  83  1  0.95888500  0.15865200  0.67987800  1
  C  84  1  0.84729100  0.21516100  0.63522200  1
  C  85  1  0.89832800  0.19353600  0.58127100  1
  C  86  1  0.93745300  0.09668400  0.64098100  1
  C  91  1  0.11798100  0.87281800  0.62945900  1
  C  92  1  0.10931900  0.86814300  0.61073500  1
  C  93  1  0.12059300  0.85143000  0.59976300  1
  C  94  1  0.14001500  0.83853100  0.60805500  1
  C  95  1  0.14943700  0.84266900  0.62678200  1
  C  96  1  0.13858400  0.86034700  0.63758800  1
  C  99  1  0.10257900  0.88778900  0.64019800  1
  C  100  1  0.09866500  0.91033100  0.63513700  1
  C  101  1  0.07989500  0.92285600  0.64528700  1
  C  102  1  0.06649000  0.91297100  0.66056600  1
  C  103  1  0.07049500  0.89086000  0.66552500  1
  C  104  1  0.08811400  0.87833200  0.65507800  1
  C  113  1  0.05714600  0.88149000  0.68026000  1
  C  114  1  0.16791700  0.82834700  0.63424100  1
  C  115  1  0.11335400  0.84805900  0.58101200  1
  C  116  1  0.07432300  0.94474400  0.64125900  1
  C  121  1  0.12226200  0.16764000  0.13007600  1
  C  122  1  0.11165200  0.17266600  0.11196800  1
  C  123  1  0.12150100  0.18969900  0.10071400  1
  C  124  1  0.14141300  0.20257600  0.10813400  1
  C  125  1  0.15282800  0.19808500  0.12618500  1
  C  126  1  0.14358700  0.17991400  0.13713600  1
  C  129  1  0.10812400  0.15260600  0.14158800  1
  C  130  1  0.10342400  0.13025300  0.13645600  1
  C  131  1  0.08580800  0.11786100  0.14761900  1
  C  132  1  0.07419700  0.12755400  0.16381500  1
  C  133  1  0.07886200  0.14952500  0.16894900  1
  C  134  1  0.09568900  0.16183600  0.15764100  1
  C  143  1  0.06785800  0.15891800  0.18496000  1
  C  144  1  0.17170600  0.21239900  0.13292100  1
  C  145  1  0.11253400  0.19345100  0.08245000  1
  C  146  1  0.07982300  0.09610700  0.14399600  1
  C  151  1  0.89072500  0.87762800  0.12955700  1
  C  152  1  0.90091700  0.87205700  0.11149300  1
  C  153  1  0.89055000  0.85497600  0.10051900  1
  C  154  1  0.87061300  0.84247900  0.10823700  1
  C  155  1  0.85963000  0.84741300  0.12629800  1
  C  156  1  0.86927100  0.86579600  0.13685500  1
  C  159  1  0.90551500  0.89271900  0.14070900  1
  C  160  1  0.91215000  0.91432500  0.13444100  1
  C  161  1  0.93200800  0.92600900  0.14425100  1
  C  162  1  0.94303400  0.91633200  0.16084900  1
  C  163  1  0.93567200  0.89554900  0.16761800  1
  C  164  1  0.91732500  0.88378800  0.15718800  1
  C  173  1  0.94599700  0.88653300  0.18409800  1
  C  174  1  0.84075300  0.83335300  0.13340500  1
  C  175  1  0.89903100  0.85091700  0.08222500  1
  C  176  1  0.94241500  0.94571200  0.13736900  1
  C  181  1  0.11993500  0.87516900  0.37057800  1
  C  182  1  0.11805100  0.87476300  0.39077500  1
  C  183  1  0.13343200  0.86080300  0.40206200  1
  C  184  1  0.14994100  0.84603600  0.39272800  1
  C  185  1  0.15186200  0.84548200  0.37254600  1
  C  186  1  0.13730300  0.86051600  0.36120100  1
  C  189  1  0.10174200  0.88868200  0.36064200  1
  C  190  1  0.09908100  0.91184000  0.36370000  1
  C  191  1  0.07803700  0.92318400  0.35503000  1
  C  192  1  0.06147900  0.91173500  0.34253700  1
  C  193  1  0.06461100  0.88917300  0.33908700  1
  C  194  1  0.08415300  0.87768600  0.34861500  1
  C  203  1  0.05046200  0.87923400  0.32499900  1
  C  204  1  0.16631700  0.82861000  0.36480300  1
  C  205  1  0.13314900  0.86169300  0.42186100  1
  C  206  1  0.07354700  0.94552700  0.35721800  1
  C  211  1  0.89107500  0.16795300  0.37077200  1
  C  212  1  0.89338500  0.16862100  0.39095800  1
  C  213  1  0.87799200  0.18249000  0.40223900  1
  C  214  1  0.86114500  0.19702900  0.39285900  1
  C  215  1  0.85879500  0.19736100  0.37268700  1
  C  216  1  0.87327000  0.18230700  0.36139100  1
  C  219  1  0.90926800  0.15455600  0.36079700  1
  C  220  1  0.91265800  0.13150600  0.36415000  1
  C  221  1  0.93370800  0.12037100  0.35537500  1
  C  222  1  0.94941900  0.13191800  0.34242400  1
  C  223  1  0.94562000  0.15435800  0.33872300  1
  C  224  1  0.92621000  0.16566200  0.34843100  1
  C  233  1  0.95946700  0.16449200  0.32464700  1
  C  234  1  0.84420000  0.21416500  0.36487100  1
  C  235  1  0.87846900  0.18167900  0.42206400  1
  C  236  1  0.93910500  0.09819600  0.35810700  1
  C  241  1  0.39297600  0.37521200  0.87149100  1
  C  242  1  0.40186800  0.36962800  0.89000500  1
  C  243  1  0.39030300  0.35285700  0.90067900  1
  C  244  1  0.37017700  0.34094300  0.89236200  1
  C  245  1  0.36060500  0.34616000  0.87392400  1
  C  246  1  0.37179700  0.36369000  0.86333000  1
  C  249  1  0.40831100  0.39020900  0.86085700  1
  C  250  1  0.41247700  0.41255700  0.86623700  1
  C  251  1  0.43054000  0.42517300  0.85566500  1
  C  252  1  0.44314900  0.41565300  0.83980100  1
  C  253  1  0.43903300  0.39366200  0.83444200  1
  C  254  1  0.42179500  0.38114300  0.84522500  1
  C  263  1  0.45055000  0.38450400  0.81851400  1
  C  264  1  0.34131300  0.33297100  0.86661500  1
  C  265  1  0.39794600  0.34833600  0.91916000  1
  C  266  1  0.43583200  0.44702800  0.85953200  1
  C  271  1  0.62042300  0.66707200  0.87202600  1
  C  272  1  0.61096500  0.67322900  0.89018900  1
  C  273  1  0.62214600  0.69036500  0.90071200  1
  C  274  1  0.64230000  0.70222700  0.89251300  1
  C  275  1  0.65231900  0.69654800  0.87437700  1
  C  276  1  0.64170300  0.67850800  0.86404000  1
  C  279  1  0.60551300  0.65159600  0.86143800  1
  C  280  1  0.60039600  0.62967100  0.86766200  1
  C  281  1  0.58248400  0.61673600  0.85707500  1
  C  282  1  0.57108900  0.62556000  0.84032100  1
  C  283  1  0.57612900  0.64709600  0.83420200  1
  C  284  1  0.59308700  0.65996100  0.84496500  1
  C  293  1  0.56543500  0.65549200  0.81767100  1
  C  294  1  0.67156100  0.70971000  0.86710000  1
  C  295  1  0.61446900  0.69492800  0.91911900  1
  C  296  1  0.57606800  0.59531000  0.86197000  1
  C  301  1  0.39806700  0.67200600  0.63031700  1
  C  302  1  0.40436000  0.67711200  0.61117300  1
  C  303  1  0.39116700  0.69354200  0.60097000  1
  C  304  1  0.37206300  0.70564300  0.61040800  1
  C  305  1  0.36513400  0.70097300  0.62954500  1
  C  306  1  0.37805000  0.68384400  0.63972600  1
  C  309  1  0.41462700  0.65679500  0.63986200  1
  C  310  1  0.41762400  0.63432400  0.63425800  1
  C  311  1  0.43706500  0.62134500  0.64329200  1
  C  312  1  0.45219900  0.63070500  0.65797200  1
  C  313  1  0.44894200  0.65266800  0.66360200  1
  C  314  1  0.43046100  0.66565000  0.65434100  1
  C  323  1  0.46280300  0.66071500  0.67874100  1
  C  324  1  0.34631000  0.71409100  0.63766700  1
  C  325  1  0.39646600  0.69766800  0.58198600  1
  C  326  1  0.44117600  0.59926100  0.63928600  1
  C  331  1  0.61743200  0.37199200  0.63045600  1
  C  332  1  0.61083300  0.36687100  0.61132700  1
  C  333  1  0.62387600  0.35046500  0.60107300  1
  C  334  1  0.64306100  0.33828700  0.61045500  1
  C  335  1  0.65025300  0.34289500  0.62959000  1
  C  336  1  0.63758200  0.36009500  0.63978700  1
  C  339  1  0.60103900  0.38724700  0.64006200  1
  C  340  1  0.59745500  0.40957900  0.63416900  1
  C  341  1  0.57804100  0.42251300  0.64320300  1
  C  342  1  0.56358400  0.41321900  0.65821900  1
  C  343  1  0.56737400  0.39141000  0.66413600  1
  C  344  1  0.58576700  0.37848400  0.65483100  1
  C  353  1  0.55365700  0.38330500  0.67926400  1
  C  354  1  0.66881800  0.32944800  0.63777600  1
  C  355  1  0.61840800  0.34647800  0.58207000  1
  C  356  1  0.57325100  0.44443600  0.63871900  1
  C  361  1  0.62166400  0.66715900  0.13003400  1
  C  362  1  0.61244100  0.67301800  0.11167500  1
  C  363  1  0.62335600  0.69033500  0.10128000  1
  C  364  1  0.64306300  0.70259200  0.10976800  1
  C  365  1  0.65287800  0.69716600  0.12808200  1
  C  366  1  0.64246900  0.67903700  0.13834400  1
  C  369  1  0.60690900  0.65151700  0.14043600  1
  C  370  1  0.60280600  0.62936800  0.13439100  1
  C  371  1  0.58504400  0.61618000  0.14473500  1
  C  372  1  0.57274400  0.62491700  0.16107100  1
  C  373  1  0.57690000  0.64665300  0.16706700  1
  C  374  1  0.59373300  0.65979400  0.15653700  1
  C  383  1  0.56577900  0.65491600  0.18342400  1
  C  384  1  0.67179300  0.71060400  0.13553800  1
  C  385  1  0.61571800  0.69484500  0.08279900  1
  C  386  1  0.57970300  0.59450600  0.14014900  1
  C  391  1  0.39429000  0.37504100  0.12978600  1
  C  392  1  0.40361300  0.36881400  0.11160200  1
  C  393  1  0.39226400  0.35173100  0.10110900  1
  C  394  1  0.37209800  0.33995700  0.10939300  1
  C  395  1  0.36222800  0.34568600  0.12756400  1
  C  396  1  0.37300100  0.36369500  0.13785400  1
  C  399  1  0.40923900  0.39060700  0.14024100  1
  C  400  1  0.41425800  0.41248900  0.13386600  1
  C  401  1  0.43220700  0.42553000  0.14431100  1
  C  402  1  0.44372400  0.41689500  0.16108800  1
  C  403  1  0.43869300  0.39542800  0.16740000  1
  C  404  1  0.42173000  0.38242700  0.15675600  1
  C  413  1  0.44922100  0.38727500  0.18408400  1
  C  414  1  0.34288500  0.33266400  0.13488000  1
  C  415  1  0.39979300  0.34715400  0.08266000  1
  C  416  1  0.43840700  0.44695000  0.13931600  1
  C  421  1  0.61712300  0.37344700  0.37112600  1
  C  422  1  0.61165400  0.36867600  0.39048300  1
  C  423  1  0.62519000  0.35234000  0.40056600  1
  C  424  1  0.64373800  0.33995200  0.39078400  1
  C  425  1  0.64975500  0.34424400  0.37141200  1
  C  426  1  0.63662100  0.36134800  0.36137400  1
  C  429  1  0.60010500  0.38839100  0.36170600  1
  C  430  1  0.59719300  0.41096000  0.36700200  1
  C  431  1  0.57752100  0.42371900  0.35801700  1
  C  432  1  0.56209400  0.41406500  0.34365900  1
  C  433  1  0.56526400  0.39199900  0.33831200  1
  C  434  1  0.58394700  0.37922700  0.34757300  1
  C  443  1  0.55126900  0.38371300  0.32333000  1
  C  444  1  0.66723200  0.33029800  0.36272100  1
  C  445  1  0.62031400  0.34818700  0.41962100  1
  C  446  1  0.57349300  0.44587500  0.36171300  1
  C  451  1  0.39607900  0.67204500  0.37111200  1
  C  452  1  0.40188700  0.67698500  0.39041300  1
  C  453  1  0.38811000  0.69303800  0.40057100  1
  C  454  1  0.36902400  0.70505000  0.39090200  1
  C  455  1  0.36268400  0.70059500  0.37158000  1
  C  456  1  0.37601000  0.68370600  0.36149000  1
  C  459  1  0.41327100  0.65745300  0.36156000  1
  C  460  1  0.41703200  0.63495700  0.36684100  1
  C  461  1  0.43668500  0.62256400  0.35754700  1
  C  462  1  0.45114400  0.63249800  0.34285000  1
  C  463  1  0.44723800  0.65452900  0.33763300  1
  C  464  1  0.42872700  0.66697400  0.34726700  1
  C  473  1  0.46060400  0.66338200  0.32268000  1
  C  474  1  0.34477600  0.71425300  0.36293300  1
  C  475  1  0.39317700  0.69719400  0.41962100  1
  C  476  1  0.44168000  0.60056400  0.36147100  1
  C  481  1  0.89893200  0.86691000  0.05092500  1
  C  482  1  0.91286200  0.85139300  0.04011700  1
  C  484  1  0.90100500  0.86891300  0.01079700  1
  C  485  1  0.88708900  0.88524000  0.02091700  1
  C  486  1  0.88640500  0.88406700  0.04107600  1
  C  488  1  0.90110600  0.86899400  0.99060800  1
  C  489  1  0.91324500  0.85169200  0.96132900  1
  C  490  1  0.89933100  0.86723500  0.95044700  1
  C  491  1  0.88670500  0.88431600  0.96025200  1
  C  494  1  0.88725600  0.88537600  0.98042100  1
  C  495  1  0.87386300  0.90176900  0.99058100  1
  C  496  1  0.87379800  0.90171300  0.01070000  1
  C  503  1  0.11246400  0.17743900  0.05114000  1
  C  504  1  0.09891800  0.19321700  0.04025400  1
  C  506  1  0.11035200  0.17555100  0.01098000  1
  C  507  1  0.12380300  0.15892700  0.02116600  1
  C  508  1  0.12452400  0.16005600  0.04133400  1
  C  510  1  0.11034900  0.17557400  0.99078900  1
  C  511  1  0.09890400  0.19329800  0.96147000  1
  C  512  1  0.11244100  0.17753300  0.95064900  1
  C  513  1  0.12447600  0.16011700  0.96049600  1
  C  516  1  0.12378500  0.15896100  0.98065800  1
  C  517  1  0.13666600  0.14225000  0.99087600  1
  C  518  1  0.13666800  0.14222900  0.01099800  1
  C  525  1  0.90017000  0.17435000  0.45039500  1
  C  526  1  0.91585600  0.18856400  0.46106200  1
  C  528  1  0.90156900  0.17294800  0.49050300  1
  C  529  1  0.88613000  0.15764600  0.48043600  1
  C  530  1  0.88573000  0.15848500  0.46026100  1
  C  532  1  0.90129700  0.17334500  0.51069400  1
  C  533  1  0.91457600  0.19027300  0.53989300  1
  C  534  1  0.89906200  0.17612000  0.55079100  1
  C  535  1  0.88508300  0.15982000  0.54107000  1
  C  538  1  0.88576700  0.15834200  0.52092300  1
  C  539  1  0.87098700  0.14285200  0.51081400  1
  C  540  1  0.87112700  0.14253500  0.49069900  1
  C  547  1  0.11117000  0.86814100  0.45010000  1
  C  548  1  0.09591000  0.85350800  0.46058300  1
  C  550  1  0.10970600  0.86922000  0.49019300  1
  C  551  1  0.12469400  0.88492900  0.48031500  1
  C  552  1  0.12512100  0.88425500  0.46014000  1
  C  554  1  0.11002800  0.86863700  0.51037800  1
  C  555  1  0.09737400  0.85109600  0.53938100  1
  C  556  1  0.11251200  0.86547300  0.55044200  1
  C  557  1  0.12597000  0.88217700  0.54091700  1
  C  560  1  0.12515200  0.88386500  0.52078600  1
  C  561  1  0.13946100  0.89976300  0.51087000  1
  C  562  1  0.13927000  0.90026700  0.49075700  1
  C  569  1  0.39961900  0.36286700  0.05120000  1
  C  570  1  0.41210200  0.34662500  0.04020800  1
  C  572  1  0.40103000  0.36483300  0.01102200  1
  C  573  1  0.38856200  0.38185900  0.02132400  1
  C  574  1  0.38818200  0.38067700  0.04149200  1
  C  576  1  0.40087300  0.36504100  0.99082400  1
  C  577  1  0.41150300  0.34743200  0.96134600  1
  C  578  1  0.39875700  0.36383500  0.95062300  1
  C  579  1  0.38750000  0.38146300  0.96062800  1
  C  582  1  0.38822400  0.38225700  0.98081100  1
  C  583  1  0.37623400  0.39928800  0.99115500  1
  C  584  1  0.37641300  0.39909600  0.01127700  1
  C  591  1  0.61587400  0.67941700  0.05126600  1
  C  592  1  0.60271100  0.69548000  0.04043700  1
  C  594  1  0.61399500  0.67790600  0.01107600  1
  C  595  1  0.62714400  0.66105900  0.02120600  1
  C  596  1  0.62774900  0.66200100  0.04138200  1
  C  598  1  0.61386400  0.67793500  0.99087800  1
  C  599  1  0.60220700  0.69559100  0.96156300  1
  C  600  1  0.61523600  0.67955700  0.95069300  1
  C  601  1  0.62723200  0.66211400  0.96052700  1
  C  604  1  0.62688500  0.66111500  0.98070100  1
  C  605  1  0.63957900  0.64426300  0.99086900  1
  C  606  1  0.63969700  0.64422900  0.01098900  1
  C  613  1  0.39574000  0.68082500  0.45050600  1
  C  614  1  0.40842100  0.69711400  0.46128300  1
  C  616  1  0.39803800  0.67932800  0.49066600  1
  C  617  1  0.38551300  0.66218000  0.48061200  1
  C  618  1  0.38474100  0.66309700  0.46042400  1
  C  620  1  0.39837000  0.67940900  0.51085300  1
  C  621  1  0.40971700  0.69742900  0.53999400  1
  C  622  1  0.39740400  0.68122400  0.55102800  1
  C  623  1  0.38604300  0.66343900  0.54134900  1
  C  626  1  0.38617200  0.66234800  0.52116400  1
  C  627  1  0.37411700  0.64517900  0.51108100  1
  C  628  1  0.37379400  0.64509300  0.49094800  1
  C  635  1  0.61853500  0.36433300  0.45059200  1
  C  636  1  0.60549300  0.34822500  0.46125800  1
  C  638  1  0.61675700  0.36546600  0.49077200  1
  C  639  1  0.62969100  0.38242100  0.48083900  1
  C  640  1  0.63019300  0.38170000  0.46064300  1
  C  642  1  0.61663400  0.36520100  0.51096000  1
  C  643  1  0.60500800  0.34720300  0.53998500  1
  C  644  1  0.61788900  0.36304700  0.55113000  1
  C  645  1  0.62971300  0.38063800  0.54156800  1
  C  648  1  0.62944500  0.38189100  0.52139000  1
  C  649  1  0.64192500  0.39887100  0.51142900  1
  C  650  1  0.64204300  0.39913600  0.49129700  1
  C  657  1  0.04206900  0.06846400  0.85721100  1
  C  658  1  0.01928100  0.06585600  0.84666400  1
  C  660  1  0.01124100  0.03102600  0.86099300  1
  C  661  1  0.03418400  0.03250800  0.87187400  1
  C  662  1  0.04939200  0.05150700  0.86993400  1
  C  664  1  0.99576600  0.01217100  0.86226400  1
  C  665  1  0.95891000  0.99244400  0.85177600  1
  C  666  1  0.96562800  0.97403100  0.86302400  1
  C  667  1  0.98816400  0.97521900  0.87413900  1
  C  670  1  0.00335700  0.99433900  0.87411700  1
  C  671  1  0.02610600  0.99594500  0.88495500  1
  C  672  1  0.04128200  0.01491200  0.88394700  1
  C  679  1  0.03968700  0.97058500  0.63704300  1
  C  680  1  0.01344000  0.97204800  0.64133500  1
  C  682  1  0.01226800  0.01039400  0.63429700  1
  C  683  1  0.03858200  0.00992800  0.62932900  1
  C  684  1  0.05207600  0.98983400  0.63075100  1
  C  686  1  0.99847400  0.03038000  0.63387000  1
  C  687  1  0.95976700  0.05019200  0.63996800  1
  C  688  1  0.97120600  0.07037300  0.63509600  1
  C  689  1  0.99697200  0.06996800  0.62921900  1
  C  692  1  0.01092200  0.05008400  0.62848500  1
  C  693  1  0.03691100  0.04941600  0.62318300  1
  C  694  1  0.05060600  0.02951300  0.62357400  1
  C  701  1  0.97022500  0.97601000  0.14441600  1
  C  702  1  0.99296300  0.97883400  0.15497800  1
  C  704  1  0.00047500  0.01380400  0.14073900  1
  C  705  1  0.97756200  0.01210400  0.12984900  1
  C  706  1  0.96264600  0.99292800  0.13173600  1
  C  708  1  0.01563700  0.03285400  0.13954400  1
  C  709  1  0.05214400  0.05297800  0.15012800  1
  C  710  1  0.04516400  0.07136700  0.13893200  1
  C  711  1  0.02264200  0.06995600  0.12781600  1
  C  714  1  0.00776500  0.05065200  0.12775400  1
  C  715  1  0.98505100  0.04882500  0.11690100  1
  C  716  1  0.97018000  0.02967800  0.11784500  1
  C  723  1  0.97316100  0.07228900  0.36334500  1
  C  724  1  0.99938100  0.07066200  0.35903300  1
  C  726  1  0.99993000  0.03218400  0.36543400  1
  C  727  1  0.97364100  0.03282400  0.37045500  1
  C  728  1  0.96044700  0.05308000  0.36933400  1
  C  730  1  0.01346600  0.01208300  0.36562900  1
  C  731  1  0.05198200  0.99208900  0.35941400  1
  C  732  1  0.04037800  0.97196200  0.36424000  1
  C  733  1  0.01463500  0.97249100  0.37016500  1
  C  736  1  0.00083200  0.99244000  0.37092800  1
  C  737  1  0.97486600  0.99326600  0.37628300  1
  C  738  1  0.96138700  0.01328100  0.37604200  1
  C  745  1  0.54052300  0.57045500  0.86478100  1
  C  746  1  0.51502400  0.56920400  0.85832200  1
  C  748  1  0.51205300  0.53144300  0.86710200  1
  C  749  1  0.53749200  0.53174000  0.87430200  1
  C  750  1  0.55154000  0.55145100  0.87305800  1
  C  752  1  0.49786100  0.51178600  0.86725300  1
  C  753  1  0.45984600  0.49242300  0.85870600  1
  C  754  1  0.47002100  0.47236100  0.86549700  1
  C  755  1  0.49482000  0.47258000  0.87350400  1
  C  758  1  0.50901700  0.49221000  0.87458000  1
  C  759  1  0.53408100  0.49273700  0.88210600  1
  C  760  1  0.54817600  0.51233100  0.88199600  1
  C  767  1  0.53952700  0.47111600  0.63425100  1
  C  768  1  0.51323700  0.47310000  0.63823800  1
  C  770  1  0.51347100  0.51159700  0.63187300  1
  C  771  1  0.53986900  0.51062200  0.62721900  1
  C  772  1  0.55268200  0.49019000  0.62845700  1
  C  774  1  0.50033900  0.53190200  0.63167100  1
  C  775  1  0.46214100  0.55244000  0.63768800  1
  C  776  1  0.47430300  0.57245700  0.63330800  1
  C  777  1  0.50017600  0.57160000  0.62773200  1
  C  780  1  0.51352200  0.55142700  0.62680700  1
  C  781  1  0.53960100  0.55027200  0.62180900  1
  C  782  1  0.55264900  0.53004700  0.62199200  1
  C  789  1  0.47384800  0.47173100  0.13539200  1
  C  790  1  0.50015700  0.47239500  0.13973600  1
  C  792  1  0.50242100  0.51067900  0.13269100  1
  C  793  1  0.47607900  0.51101700  0.12765300  1
  C  794  1  0.46200500  0.49133900  0.12904600  1
  C  796  1  0.51675800  0.53026000  0.13245700  1
  C  797  1  0.55596500  0.54888400  0.13900500  1
  C  798  1  0.54506600  0.56944500  0.13430000  1
  C  799  1  0.51928700  0.56985800  0.12830300  1
  C  802  1  0.50483000  0.55037700  0.12722200  1
  C  803  1  0.47881900  0.55049900  0.12179700  1
  C  804  1  0.46458100  0.53098900  0.12198800  1
  C  811  1  0.47542600  0.57411700  0.36616400  1
  C  812  1  0.50164500  0.57205300  0.36196800  1
  C  814  1  0.50140000  0.53363500  0.36866100  1
  C  815  1  0.47507400  0.53469800  0.37352000  1
  C  816  1  0.46230300  0.55513400  0.37222300  1
  C  818  1  0.51450100  0.51332400  0.36898400  1
  C  819  1  0.55261300  0.49269400  0.36296200  1
  C  820  1  0.54049800  0.47276100  0.36768600  1
  C  821  1  0.51468900  0.47370200  0.37340900  1
  C  824  1  0.50136300  0.49388800  0.37417700  1
  C  825  1  0.47535400  0.49513300  0.37935500  1
  C  826  1  0.46233000  0.51536600  0.37904400  1
  C  833  1  0.80969100  0.80521000  0.87841200  1
  C  834  1  0.79114100  0.80500800  0.86369700  1
  C  836  1  0.77199100  0.77255000  0.87640200  1
  C  837  1  0.79043300  0.77181800  0.89138900  1
  C  838  1  0.80905000  0.78843700  0.89227900  1
  C  840  1  0.75238500  0.75671100  0.87572400  1
  C  841  1  0.71388400  0.74342900  0.86136200  1
  C  842  1  0.71155300  0.72678000  0.87531700  1
  C  843  1  0.73069000  0.72519700  0.88951000  1
  C  846  1  0.75126700  0.74005800  0.88994100  1
  C  847  1  0.77005400  0.73916500  0.90446300  1
  C  848  1  0.78948200  0.75495400  0.90519900  1
  C  855  1  0.20215500  0.23858100  0.87764200  1
  C  856  1  0.22025100  0.23893500  0.86272700  1
  C  858  1  0.24017600  0.27097300  0.87571700  1
  C  859  1  0.22218400  0.27156100  0.89090100  1
  C  860  1  0.20340000  0.25508500  0.89173500  1
  C  862  1  0.25993500  0.28667800  0.87507300  1
  C  863  1  0.29815200  0.29997900  0.86052100  1
  C  864  1  0.30106500  0.31632200  0.87470300  1
  C  865  1  0.28232800  0.31777700  0.88908900  1
  C  868  1  0.26163100  0.30304500  0.88951800  1
  C  869  1  0.24328600  0.30379100  0.90424700  1
  C  870  1  0.22371600  0.28813700  0.90494900  1
  C  877  1  0.81061400  0.23643200  0.62907600  1
  C  878  1  0.78843000  0.23292300  0.63999200  1
  C  880  1  0.77208100  0.26855300  0.63197500  1
  C  881  1  0.79414200  0.27293100  0.62081800  1
  C  882  1  0.81326000  0.25662000  0.61947100  1
  C  884  1  0.75201100  0.28413800  0.63267900  1
  C  885  1  0.70983400  0.29391400  0.64279600  1
  C  886  1  0.71042800  0.31371300  0.63228800  1
  C  887  1  0.73284200  0.31858600  0.62203800  1
  C  890  1  0.75388700  0.30402200  0.62214700  1
  C  891  1  0.77609900  0.30836900  0.61144800  1
  C  892  1  0.79609800  0.29295200  0.61081300  1
  C  899  1  0.20179500  0.80376000  0.62671700  1
  C  900  1  0.22223400  0.80652100  0.63969400  1
  C  902  1  0.24103600  0.77232000  0.63018700  1
  C  903  1  0.22061200  0.76860300  0.61711500  1
  C  904  1  0.20122400  0.78463000  0.61542500  1
  C  906  1  0.26151900  0.75715400  0.63123000  1
  C  907  1  0.30283700  0.74741400  0.64344900  1
  C  908  1  0.30405800  0.72864100  0.63161700  1
  C  909  1  0.28294200  0.72414800  0.61969400  1
  C  912  1  0.26149200  0.73824100  0.61931500  1
  C  913  1  0.24074500  0.73441200  0.60682400  1
  C  914  1  0.22046400  0.74951100  0.60570600  1
  C  921  1  0.20298800  0.23898600  0.12369000  1
  C  922  1  0.22161500  0.23886100  0.13835100  1
  C  924  1  0.24124700  0.27117100  0.12576000  1
  C  925  1  0.22272500  0.27223700  0.11084300  1
  C  926  1  0.20383000  0.25585100  0.10991900  1
  C  928  1  0.26114100  0.28675200  0.12643700  1
  C  929  1  0.29999900  0.29944000  0.14068300  1
  C  930  1  0.30252500  0.31613400  0.12679100  1
  C  931  1  0.28329900  0.31805700  0.11269700  1
  C  934  1  0.26245300  0.30347300  0.11229200  1
  C  935  1  0.24358000  0.30470700  0.09785100  1
  C  936  1  0.22387500  0.28917500  0.09711200  1
  C  943  1  0.81055000  0.80538300  0.12480100  1
  C  944  1  0.79129300  0.80606700  0.13886500  1
  C  946  1  0.77280900  0.77280600  0.12708300  1
  C  947  1  0.79203000  0.77114600  0.11283000  1
  C  948  1  0.81066200  0.78773000  0.11178300  1
  C  950  1  0.75312700  0.75703900  0.12776900  1
  C  951  1  0.71376200  0.74472400  0.14122200  1
  C  952  1  0.71212200  0.72728400  0.12794900  1
  C  953  1  0.73205500  0.72479200  0.11461100  1
  C  956  1  0.75272700  0.73955000  0.11430400  1
  C  957  1  0.77229700  0.73774400  0.10055900  1
  C  958  1  0.79179900  0.75345300  0.09981100  1
  C  965  1  0.20577800  0.81006700  0.36566300  1
  C  966  1  0.23020200  0.81405600  0.35807700  1
  C  968  1  0.24335700  0.77701700  0.36395100  1
  C  969  1  0.21911100  0.77206900  0.37190200  1
  C  970  1  0.20042700  0.78881300  0.37259200  1
  C  972  1  0.26294100  0.76099900  0.36407200  1
  C  973  1  0.30647700  0.75139200  0.35801100  1
  C  974  1  0.30341600  0.73053200  0.36649900  1
  C  975  1  0.27910800  0.72509100  0.37366100  1
  C  978  1  0.25853600  0.74010100  0.37242200  1
  C  979  1  0.23426500  0.73523000  0.37999600  1
  C  980  1  0.21466500  0.75106400  0.37966600  1
  C  987  1  0.80499000  0.23304600  0.36584600  1
  C  988  1  0.78036100  0.22917900  0.35843600  1
  C  990  1  0.76780700  0.26644100  0.36390800  1
  C  991  1  0.79227200  0.27126500  0.37169000  1
  C  992  1  0.81075300  0.25435500  0.37248500  1
  C  994  1  0.74844200  0.28265800  0.36394100  1
  C  995  1  0.70491900  0.29263500  0.35797100  1
  C  996  1  0.70843400  0.31356600  0.36623600  1
  C  997  1  0.73295600  0.31886900  0.37320600  1
  C  1000  1  0.75329300  0.30363200  0.37203400  1
  C  1001  1  0.77777600  0.30836600  0.37943800  1
  C  1002  1  0.79715500  0.29233600  0.37919000  1
  C  1009  1  0.98239600  0.88506100  0.79939200  1
  C  1010  1  0.97524200  0.87192200  0.78360700  1
  C  1012  1  0.01376300  0.88048200  0.76714800  1
  C  1013  1  0.02255300  0.89311000  0.78292100  1
  C  1014  1  0.00660200  0.89511300  0.79906700  1
  C  1016  1  0.02775100  0.88012800  0.74995800  1
  C  1017  1  0.02957900  0.87052100  0.71687700  1
  C  1018  1  0.05182400  0.88318900  0.71425400  1
  C  1019  1  0.06256300  0.89366800  0.73036500  1
  C  1022  1  0.05063900  0.89240300  0.74840800  1
  C  1023  1  0.05993600  0.90401700  0.76444900  1
  C  1024  1  0.04598700  0.90435700  0.78160700  1
  C  1031  1  0.02691200  0.16075100  0.79922500  1
  C  1032  1  0.03493800  0.17345700  0.78344700  1
  C  1034  1  0.99615600  0.16635600  0.76652900  1
  C  1035  1  0.98657100  0.15413900  0.78223600  1
  C  1036  1  0.00221600  0.15161500  0.79859800  1
  C  1038  1  0.98225800  0.16732400  0.74921700  1
  C  1039  1  0.98103500  0.17698500  0.71610700  1
  C  1040  1  0.95820100  0.16512900  0.71330100  1
  C  1041  1  0.94663000  0.15541100  0.72938300  1
  C  1044  1  0.95863700  0.15610400  0.74749800  1
  C  1045  1  0.94866200  0.14485300  0.76344900  1
  C  1046  1  0.96253100  0.14388800  0.78071000  1
  C  1053  1  0.03006000  0.16011000  0.20420800  1
  C  1054  1  0.03808600  0.17317600  0.21981200  1
  C  1056  1  0.99986300  0.16557200  0.23702400  1
  C  1057  1  0.99026300  0.15297300  0.22149500  1
  C  1058  1  0.00563400  0.15050400  0.20507600  1
  C  1060  1  0.98627300  0.16658700  0.25438600  1
  C  1061  1  0.98531100  0.17688800  0.28736900  1
  C  1062  1  0.96260200  0.16497100  0.29033700  1
  C  1063  1  0.95120400  0.15453100  0.27445800  1
  C  1066  1  0.96292600  0.15503800  0.25631500  1
  C  1067  1  0.95291900  0.14335700  0.24055100  1
  C  1068  1  0.96650900  0.14232100  0.22325300  1
  C  1075  1  0.98392500  0.88276600  0.20305300  1
  C  1076  1  0.97508600  0.87000200  0.21854900  1
  C  1078  1  0.01309500  0.87680400  0.23650100  1
  C  1079  1  0.02354900  0.88895400  0.22107000  1
  C  1080  1  0.00870900  0.89163800  0.20431100  1
  C  1082  1  0.02613100  0.87572200  0.25417900  1
  C  1083  1  0.02570100  0.86604300  0.28731600  1
  C  1084  1  0.04869600  0.87745900  0.29064500  1
  C  1085  1  0.06098200  0.88725400  0.27490300  1
  C  1088  1  0.04980100  0.88671600  0.25650400  1
  C  1089  1  0.06066400  0.89789400  0.24084800  1
  C  1090  1  0.04760900  0.89902100  0.22324500  1
  C  1097  1  0.48822300  0.38402800  0.79915900  1
  C  1098  1  0.48057800  0.37036900  0.78383200  1
  C  1100  1  0.51842300  0.37844900  0.76633200  1
  C  1101  1  0.52763500  0.39175500  0.78153600  1
  C  1102  1  0.51225700  0.39430000  0.79794900  1
  C  1104  1  0.53196800  0.37724800  0.74895900  1
  C  1105  1  0.53309400  0.36597600  0.71624500  1
  C  1106  1  0.55523700  0.37852700  0.71286500  1
  C  1107  1  0.56653900  0.38953900  0.72848100  1
  C  1110  1  0.55490300  0.38931400  0.74667100  1
  C  1111  1  0.56456500  0.40170700  0.76213900  1
  C  1112  1  0.55101600  0.40292700  0.77945300  1
  C  1119  1  0.52694400  0.65929800  0.79955500  1
  C  1120  1  0.53503700  0.67288900  0.78436400  1
  C  1122  1  0.49717500  0.66547500  0.76644600  1
  C  1123  1  0.48741700  0.65246600  0.78159700  1
  C  1124  1  0.50255000  0.64968200  0.79819800  1
  C  1126  1  0.48392000  0.66675600  0.74887500  1
  C  1127  1  0.48367300  0.67756500  0.71602900  1
  C  1128  1  0.46127400  0.66538400  0.71243600  1
  C  1129  1  0.44940600  0.65483100  0.72798500  1
  C  1132  1  0.46071900  0.65509800  0.74635200  1
  C  1133  1  0.45049800  0.64306500  0.76177100  1
  C  1134  1  0.46375900  0.64175800  0.77928200  1
  C  1141  1  0.52727300  0.65777300  0.20136900  1
  C  1142  1  0.53493200  0.67178100  0.21645200  1
  C  1144  1  0.49763400  0.66334200  0.23444500  1
  C  1145  1  0.48822900  0.64994100  0.21937100  1
  C  1146  1  0.50328000  0.64747300  0.20278100  1
  C  1148  1  0.48453700  0.66438200  0.25201300  1
  C  1149  1  0.48410700  0.67562000  0.28475000  1
  C  1150  1  0.46212600  0.66297000  0.28842300  1
  C  1151  1  0.45072700  0.65170300  0.27298200  1
  C  1154  1  0.46184500  0.65208100  0.25461800  1
  C  1155  1  0.45192700  0.63963700  0.23927400  1
  C  1156  1  0.46504600  0.63855900  0.22177000  1
  C  1163  1  0.48748300  0.38352900  0.20248900  1
  C  1164  1  0.47900000  0.37044200  0.21789900  1
  C  1166  1  0.51704400  0.37743600  0.23573000  1
  C  1167  1  0.52719100  0.38989300  0.22037100  1
  C  1168  1  0.51215900  0.39263100  0.20370900  1
  C  1170  1  0.53024100  0.37624800  0.25333300  1
  C  1171  1  0.53012500  0.36617500  0.28635900  1
  C  1172  1  0.55288000  0.37792800  0.28976600  1
  C  1173  1  0.56507100  0.38787500  0.27405300  1
  C  1176  1  0.55378400  0.38743900  0.25567800  1
  C  1177  1  0.56437500  0.39889800  0.24007000  1
  C  1178  1  0.55115200  0.40013600  0.22253600  1
  N  17  1  0.85590700  0.87109200  0.84810900  1
  N  18  1  0.89495900  0.92436300  0.88068600  1
  N  47  1  0.15394500  0.17254000  0.84803600  1
  N  48  1  0.11409400  0.12096100  0.88169600  1
  N  77  1  0.86777800  0.17855800  0.65685300  1
  N  78  1  0.89865700  0.12272600  0.62169000  1
  N  107  1  0.14797400  0.86579700  0.65523300  1
  N  108  1  0.11267000  0.91958600  0.62082100  1
  N  137  1  0.15511400  0.17378100  0.15390900  1
  N  138  1  0.11567500  0.12093800  0.12125200  1
  N  167  1  0.85801100  0.87260000  0.15346200  1
  N  168  1  0.89892000  0.92357700  0.11956400  1
  N  197  1  0.14048500  0.86121700  0.34181100  1
  N  198  1  0.11654900  0.92295700  0.37451800  1
  N  227  1  0.86956700  0.18128400  0.34204400  1
  N  228  1  0.89584400  0.12032100  0.37538900  1
  N  257  1  0.36215500  0.36971600  0.84589000  1
  N  258  1  0.39927700  0.42165800  0.88109500  1
  N  287  1  0.65202700  0.67191800  0.84703600  1
  N  288  1  0.61260000  0.62130600  0.88338700  1
  N  317  1  0.37102600  0.67847300  0.65793900  1
  N  318  1  0.40204200  0.62545500  0.62060200  1
  N  347  1  0.64500300  0.36550400  0.65794600  1
  N  348  1  0.61247200  0.41833200  0.62019100  1
  N  377  1  0.65253700  0.67279800  0.15559400  1
  N  378  1  0.61579900  0.62098500  0.11911900  1
  N  407  1  0.36279400  0.37035200  0.15487800  1
  N  408  1  0.40192200  0.42073500  0.11815100  1
  N  437  1  0.64291400  0.36639100  0.34293500  1
  N  438  1  0.61308500  0.42014500  0.38029100  1
  N  467  1  0.36936000  0.67843200  0.34312900  1
  N  468  1  0.40194600  0.62554000  0.38044400  1
  N  483  1  0.91330200  0.85285300  0.02076000  1
  N  493  1  0.91351400  0.85301900  0.98069600  1
  N  501  1  0.89587900  0.86631000  0.93168700  1
  N  502  1  0.89565100  0.86603300  0.06968000  1
  N  505  1  0.09847000  0.19181600  0.02089300  1
  N  515  1  0.09846900  0.19186200  0.98082900  1
  N  523  1  0.11586300  0.17842400  0.93190200  1
  N  524  1  0.11608200  0.17839600  0.06989300  1
  N  527  1  0.91576300  0.18758400  0.48045700  1
  N  537  1  0.91504900  0.18849500  0.52055500  1
  N  545  1  0.89622100  0.17739100  0.56958400  1
  N  546  1  0.89866100  0.17632400  0.43156000  1
  N  549  1  0.09594800  0.85435600  0.47998200  1
  N  559  1  0.09676900  0.85308200  0.52005700  1
  N  567  1  0.11564900  0.86404000  0.56920000  1
  N  568  1  0.11274400  0.86627800  0.43127500  1
  N  571  1  0.41227800  0.34810500  0.02084300  1
  N  581  1  0.41199400  0.34853100  0.98072700  1
  N  589  1  0.39559100  0.36348600  0.93179600  1
  N  590  1  0.39685200  0.36224000  0.07002200  1
  N  593  1  0.60233300  0.69423500  0.02106000  1
  N  603  1  0.60207700  0.69429300  0.98093800  1
  N  611  1  0.61798100  0.68005900  0.93186800  1
  N  612  1  0.61886600  0.67988700  0.07009300  1
  N  615  1  0.40900000  0.69588200  0.48064500  1
  N  625  1  0.40965600  0.69604300  0.52063700  1
  N  633  1  0.39531000  0.68180200  0.56992400  1
  N  634  1  0.39315100  0.68124200  0.43162900  1
  N  637  1  0.60517200  0.34927100  0.48062900  1
  N  647  1  0.60493400  0.34874600  0.52063400  1
  N  655  1  0.62010500  0.36231000  0.57002600  1
  N  656  1  0.62083000  0.36406300  0.43170100  1
  N  659  1  0.00485300  0.04765500  0.84891700  1
  N  669  1  0.97402000  0.01044400  0.85167500  1
  N  677  1  0.95406700  0.95478800  0.86122300  1
  N  678  1  0.05541700  0.08652100  0.85397400  1
  N  681  1  0.00090900  0.99150800  0.64000600  1
  N  691  1  0.97357300  0.03131000  0.63931500  1
  N  699  1  0.96031500  0.08989300  0.63765400  1
  N  700  1  0.05098000  0.95125000  0.63974800  1
  N  703  1  0.00711500  0.99720200  0.15277000  1
  N  713  1  0.03733200  0.03479800  0.15015900  1
  N  721  1  0.05647700  0.09072500  0.14073100  1
  N  722  1  0.95698500  0.95790500  0.14770300  1
  N  725  1  0.01159700  0.05104300  0.36002400  1
  N  735  1  0.03835300  0.01104800  0.36018000  1
  N  743  1  0.05126900  0.95236800  0.36220600  1
  N  744  1  0.96220400  0.09182600  0.36125600  1
  N  747  1  0.50197300  0.55010700  0.85951700  1
  N  757  1  0.47390500  0.51102800  0.85968900  1
  N  765  1  0.45896700  0.45300700  0.86281100  1
  N  766  1  0.55254000  0.58931200  0.86195500  1
  N  769  1  0.50137100  0.49287400  0.63710100  1
  N  779  1  0.47536300  0.53327100  0.63684500  1
  N  787  1  0.46390800  0.59215900  0.63595500  1
  N  788  1  0.55016400  0.45153600  0.63703700  1
  N  791  1  0.51325100  0.49146500  0.13843100  1
  N  801  1  0.54166200  0.53041000  0.13807100  1
  N  809  1  0.55644000  0.58858100  0.13735600  1
  N  810  1  0.46193000  0.45287900  0.13854700  1
  N  813  1  0.51347600  0.55227300  0.36317500  1
  N  823  1  0.53940900  0.51187600  0.36366000  1
  N  831  1  0.55083500  0.45301600  0.36522800  1
  N  832  1  0.46481300  0.59372300  0.36352800  1
  N  835  1  0.77313900  0.78904200  0.86329600  1
  N  845  1  0.73376300  0.75762000  0.86210800  1
  N  853  1  0.69133700  0.71397400  0.87736200  1
  N  854  1  0.82706100  0.82069400  0.88068700  1
  N  857  1  0.23843300  0.25475500  0.86237800  1
  N  867  1  0.27815100  0.28591800  0.86125500  1
  N  875  1  0.32139600  0.32903100  0.87670600  1
  N  876  1  0.18460500  0.22326500  0.87991000  1
  N  879  1  0.77021500  0.24882800  0.64101100  1
  N  889  1  0.73016600  0.28000900  0.64249700  1
  N  897  1  0.69025400  0.32652000  0.62922900  1
  N  898  1  0.82734500  0.22066100  0.62553000  1
  N  901  1  0.24093700  0.79103300  0.64084400  1
  N  911  1  0.28207700  0.76084000  0.64275100  1
  N  919  1  0.32478100  0.71643700  0.62900700  1
  N  920  1  0.18428100  0.81894400  0.62326100  1
  N  923  1  0.23989100  0.25460100  0.13878100  1
  N  933  1  0.27985600  0.28551800  0.13996500  1
  N  941  1  0.32293700  0.32870200  0.12471100  1
  N  942  1  0.18540500  0.22369100  0.12133500  1
  N  945  1  0.77328100  0.79011300  0.13940200  1
  N  955  1  0.73374700  0.75880800  0.14059500  1
  N  963  1  0.69195400  0.71445000  0.12570600  1
  N  964  1  0.82783900  0.82083200  0.12220700  1
  N  967  1  0.24782000  0.79767800  0.35743600  1
  N  977  1  0.28658600  0.76569800  0.35727900  1
  N  985  1  0.32277100  0.71719500  0.37062500  1
  N  986  1  0.19009500  0.82669600  0.36915900  1
  N  989  1  0.76295100  0.24572400  0.35766700  1
  N  999  1  0.72460000  0.27811500  0.35730000  1
  N  1007  1  0.68935300  0.32716900  0.37030700  1
  N  1008  1  0.82057100  0.21634400  0.36944700  1
  N  1011  1  0.99075600  0.87036000  0.76820700  1
  N  1021  1  0.01833500  0.86969500  0.73427900  1
  N  1029  1  0.06180000  0.88794400  0.69738700  1
  N  1030  1  0.96698300  0.89063300  0.81358800  1
  N  1033  1  0.01968400  0.17554600  0.76784500  1
  N  1043  1  0.99225900  0.17739300  0.73360800  1
  N  1051  1  0.94819900  0.16059900  0.69630400  1
  N  1052  1  0.04172700  0.15499800  0.81384000  1
  N  1055  1  0.02312400  0.17516600  0.23548800  1
  N  1065  1  0.99631300  0.17705000  0.26984800  1
  N  1073  1  0.95276000  0.16058600  0.30730600  1
  N  1074  1  0.04473700  0.15446600  0.18957600  1
  N  1077  1  0.98957100  0.86776200  0.23453700  1
  N  1087  1  0.01525600  0.86580100  0.26953600  1
  N  1095  1  0.05817300  0.88194500  0.30776300  1
  N  1096  1  0.96982200  0.88868700  0.18809000  1
  N  1099  1  0.49552900  0.36830200  0.76816100  1
  N  1109  1  0.52223300  0.36601300  0.73381100  1
  N  1117  1  0.56479300  0.38236800  0.69565600  1
  N  1118  1  0.47347500  0.38955900  0.81381100  1
  N  1121  1  0.52029700  0.67521300  0.76852100  1
  N  1131  1  0.49421500  0.67757900  0.73376800  1
  N  1139  1  0.45189600  0.66141100  0.69515500  1
  N  1140  1  0.54140700  0.65351900  0.81437100  1
  N  1143  1  0.52030100  0.67377200  0.23229400  1
  N  1153  1  0.49453100  0.67566400  0.26703500  1
  N  1161  1  0.45278900  0.65908000  0.30567000  1
  N  1162  1  0.54184900  0.65227300  0.18661400  1
  N  1165  1  0.49365000  0.36815200  0.23379100  1
  N  1175  1  0.51960600  0.36599500  0.26861100  1
  N  1183  1  0.56227500  0.38219600  0.30699100  1
  N  1184  1  0.47322900  0.38918300  0.18751100  1
