# generated using pymatgen
data_H6C10N3O
_symmetry_space_group_name_H-M   'P 1'
_cell_length_a   32.73100000
_cell_length_b   32.73100000
_cell_length_c   32.73100000
_cell_angle_alpha   90.00000000
_cell_angle_beta   90.00000000
_cell_angle_gamma   90.00000000
_symmetry_Int_Tables_number   1
_chemical_formula_structural   H6C10N3O
_chemical_formula_sum   'H288 C480 N144 O48'
_cell_volume   35065.32127389
_cell_formula_units_Z   48
loop_
 _symmetry_equiv_pos_site_id
 _symmetry_equiv_pos_as_xyz
  1  'x, y, z'
loop_
 _atom_site_type_symbol
 _atom_site_label
 _atom_site_symmetry_multiplicity
 _atom_site_fract_x
 _atom_site_fract_y
 _atom_site_fract_z
 _atom_site_occupancy
  H  7  1  0.09019100  0.34812000  0.33568500  1
  H  16  1  0.20018200  0.39559800  0.40406400  1
  H  17  1  0.08749100  0.23376600  0.42928700  1
  H  18  1  0.19129500  0.52984400  0.34591400  1
  H  19  1  0.15119100  0.36412300  0.44807100  1
  H  20  1  0.09431800  0.41719800  0.33395000  1
  H  27  1  0.42661700  0.66883400  0.83564900  1
  H  36  1  0.31655300  0.62135300  0.90377400  1
  H  37  1  0.42933000  0.78294900  0.92968500  1
  H  38  1  0.32585300  0.48690300  0.84628700  1
  H  39  1  0.36558300  0.65257100  0.94797600  1
  H  40  1  0.42248300  0.59971300  0.83379400  1
  H  47  1  0.92666900  0.84805000  0.18111200  1
  H  56  1  0.81648000  0.89536900  0.11323200  1
  H  57  1  0.92955000  0.73385200  0.08719200  1
  H  58  1  0.82635200  0.03010900  0.16994800  1
  H  59  1  0.86551000  0.86412900  0.06883500  1
  H  60  1  0.92267000  0.91717400  0.18275300  1
  H  67  1  0.59023600  0.16884200  0.68108600  1
  H  76  1  0.70029400  0.12136700  0.61291500  1
  H  77  1  0.58749800  0.28306100  0.58724200  1
  H  78  1  0.69113400  0.98701000  0.67075300  1
  H  79  1  0.65130000  0.15271700  0.56874200  1
  H  80  1  0.59429600  0.09971700  0.68281200  1
  H  87  1  0.33570300  0.08997800  0.34811400  1
  H  96  1  0.40397200  0.20005300  0.39557600  1
  H  97  1  0.42931200  0.08738800  0.23376100  1
  H  98  1  0.34579200  0.19114800  0.52981000  1
  H  99  1  0.44802500  0.15110200  0.36411100  1
  H  100  1  0.33393100  0.09414200  0.41718000  1
  H  107  1  0.83572200  0.42649500  0.66883100  1
  H  116  1  0.90363300  0.31637600  0.62142300  1
  H  117  1  0.92974600  0.42918700  0.78297100  1
  H  118  1  0.84675100  0.32612800  0.48675600  1
  H  119  1  0.94804400  0.36545500  0.65256500  1
  H  120  1  0.83403900  0.42252900  0.59966400  1
  H  127  1  0.18117900  0.92676100  0.84806800  1
  H  136  1  0.11315200  0.81660900  0.89542400  1
  H  137  1  0.08728000  0.92960500  0.73386700  1
  H  138  1  0.17043600  0.82604300  0.02996800  1
  H  139  1  0.06889200  0.86561400  0.86415100  1
  H  140  1  0.18298000  0.92261800  0.91714000  1
  H  147  1  0.68106400  0.59039800  0.16889500  1
  H  156  1  0.61275000  0.70036700  0.12131900  1
  H  157  1  0.58712600  0.58755900  0.28303300  1
  H  158  1  0.67091200  0.69140600  0.98708300  1
  H  159  1  0.56867800  0.65135200  0.15267300  1
  H  160  1  0.68285500  0.59448300  0.09977800  1
  H  167  1  0.34813500  0.33573400  0.09015000  1
  H  176  1  0.39555500  0.40396000  0.20021000  1
  H  177  1  0.23378300  0.42936100  0.08758900  1
  H  178  1  0.52991400  0.34612500  0.19111200  1
  H  179  1  0.36417800  0.44809800  0.15118700  1
  H  180  1  0.41725000  0.33405400  0.09422800  1
  H  187  1  0.66884300  0.83567900  0.42672700  1
  H  196  1  0.62143600  0.90359300  0.31655300  1
  H  197  1  0.78300400  0.92966000  0.42940400  1
  H  198  1  0.48679300  0.84666000  0.32627800  1
  H  199  1  0.65265400  0.94794300  0.36556200  1
  H  200  1  0.59970700  0.83393800  0.42267900  1
  H  207  1  0.84804400  0.18113600  0.92668200  1
  H  216  1  0.89541800  0.11309900  0.81653800  1
  H  217  1  0.73381200  0.08727300  0.92958400  1
  H  218  1  0.02999700  0.17027300  0.82609800  1
  H  219  1  0.86406800  0.06885400  0.86551600  1
  H  220  1  0.91710700  0.18289200  0.92257500  1
  H  227  1  0.16880900  0.68106700  0.59033400  1
  H  236  1  0.12119900  0.61263100  0.70023900  1
  H  237  1  0.28293000  0.58712000  0.58753200  1
  H  238  1  0.98713800  0.67125700  0.69165700  1
  H  239  1  0.15253200  0.56864800  0.65121200  1
  H  240  1  0.09969000  0.68293700  0.59447600  1
  H  247  1  0.09883500  0.33490300  0.92558200  1
  H  256  1  0.15183100  0.44870300  0.86750800  1
  H  257  1  0.98647800  0.34321000  0.82933700  1
  H  258  1  0.22936700  0.45205800  0.99153800  1
  H  259  1  0.11974200  0.40400600  0.81898500  1
  H  260  1  0.16872600  0.33607600  0.92751900  1
  H  267  1  0.41793400  0.68213700  0.42560600  1
  H  276  1  0.36481600  0.56832400  0.36759700  1
  H  277  1  0.53009400  0.67403400  0.32905500  1
  H  278  1  0.28872900  0.56438300  0.49211500  1
  H  279  1  0.39691400  0.61294500  0.31909500  1
  H  280  1  0.34801300  0.68093600  0.42762200  1
  H  287  1  0.59894300  0.18204900  0.09130400  1
  H  296  1  0.65173400  0.06811400  0.14925800  1
  H  297  1  0.48671000  0.17424400  0.18785400  1
  H  298  1  0.73124000  0.06527300  0.02599900  1
  H  299  1  0.61975800  0.11280300  0.19782700  1
  H  300  1  0.66879800  0.18076100  0.08929200  1
  H  307  1  0.91799000  0.83479000  0.59135400  1
  H  316  1  0.86490200  0.94862400  0.64927500  1
  H  317  1  0.03013200  0.84287700  0.68792300  1
  H  318  1  0.78770900  0.95213500  0.52514500  1
  H  319  1  0.89696700  0.90402700  0.69785300  1
  H  320  1  0.84807100  0.83596300  0.58932800  1
  H  327  1  0.83472000  0.59129600  0.91804800  1
  H  336  1  0.94842200  0.64932400  0.86468200  1
  H  337  1  0.84285000  0.68785000  0.03015400  1
  H  338  1  0.95244600  0.52447900  0.78937100  1
  H  339  1  0.90387400  0.69783100  0.89692700  1
  H  340  1  0.83579500  0.58926100  0.84813500  1
  H  347  1  0.18204400  0.09132800  0.59895800  1
  H  356  1  0.06814800  0.14926300  0.65181100  1
  H  357  1  0.17423200  0.18794100  0.48677700  1
  H  358  1  0.06510100  0.02573700  0.73060100  1
  H  359  1  0.11284200  0.19786800  0.61985900  1
  H  360  1  0.18081600  0.08935700  0.66885600  1
  H  367  1  0.68215200  0.42556900  0.41790100  1
  H  376  1  0.56827800  0.36758700  0.36487100  1
  H  377  1  0.67402800  0.32909500  0.53012500  1
  H  378  1  0.56453200  0.49187600  0.28811300  1
  H  379  1  0.61288400  0.31909200  0.39697900  1
  H  380  1  0.68088700  0.42762200  0.34801000  1
  H  387  1  0.33496100  0.92551500  0.09886700  1
  H  396  1  0.44883800  0.86747500  0.15168000  1
  H  397  1  0.34319500  0.82922000  0.98651200  1
  H  398  1  0.45189600  0.99101500  0.23049000  1
  H  399  1  0.40410900  0.81893700  0.11971600  1
  H  400  1  0.33622600  0.92746700  0.16876400  1
  H  407  1  0.09131300  0.59891900  0.18195300  1
  H  416  1  0.14927500  0.65184700  0.06809600  1
  H  417  1  0.18771000  0.48665200  0.17382600  1
  H  418  1  0.02576200  0.73067800  0.06510600  1
  H  419  1  0.19787400  0.61985300  0.11278900  1
  H  420  1  0.08933400  0.66880400  0.18076600  1
  H  427  1  0.59126500  0.91797100  0.83462200  1
  H  436  1  0.64918300  0.86488400  0.94847700  1
  H  437  1  0.68792000  0.03007800  0.84254400  1
  H  438  1  0.52489400  0.78817700  0.95216500  1
  H  439  1  0.69774300  0.89698800  0.90389300  1
  H  440  1  0.58924600  0.84805300  0.83581700  1
  H  447  1  0.92560600  0.09886500  0.33481100  1
  H  456  1  0.86758800  0.15159400  0.44873700  1
  H  457  1  0.82921700  0.98652400  0.34275800  1
  H  458  1  0.99096900  0.23080100  0.45166400  1
  H  459  1  0.81904400  0.11961200  0.40400600  1
  H  460  1  0.92755800  0.16873200  0.33610700  1
  H  467  1  0.42546800  0.41794300  0.68198400  1
  H  476  1  0.36746800  0.36475800  0.56820500  1
  H  477  1  0.32897600  0.53011200  0.67370700  1
  H  478  1  0.49196200  0.28854600  0.56437700  1
  H  479  1  0.31895200  0.39685600  0.61281100  1
  H  480  1  0.42749100  0.34801300  0.68082600  1
  H  487  1  0.31211100  0.52265200  0.33856300  1
  H  489  1  0.19908000  0.45179500  0.45427900  1
  H  490  1  0.22581100  0.48421100  0.48246900  1
  H  497  1  0.20550800  0.49351700  0.83803200  1
  H  499  1  0.31661700  0.56612400  0.95447200  1
  H  500  1  0.28960800  0.53399300  0.98271400  1
  H  507  1  0.70608600  0.02374400  0.17920200  1
  H  509  1  0.81580500  0.94996200  0.06220500  1
  H  510  1  0.78861700  0.98192900  0.03395700  1
  H  517  1  0.81184500  0.99395700  0.67851600  1
  H  519  1  0.69962500  0.06564100  0.56251000  1
  H  520  1  0.72640300  0.03328500  0.53430700  1
  H  527  1  0.33838600  0.31192500  0.52265800  1
  H  529  1  0.45420900  0.19906600  0.45169100  1
  H  530  1  0.48239900  0.22587700  0.48404300  1
  H  537  1  0.83768300  0.20590100  0.49305900  1
  H  539  1  0.95459100  0.31580800  0.56672000  1
  H  540  1  0.98283600  0.28856600  0.53479900  1
  H  547  1  0.17901100  0.70580800  0.02342900  1
  H  549  1  0.06231100  0.81629700  0.95031100  1
  H  550  1  0.03406300  0.78924300  0.98239600  1
  H  557  1  0.67825600  0.81215100  0.99411000  1
  H  559  1  0.56250100  0.69936200  0.06531200  1
  H  560  1  0.53431300  0.72598200  0.03280800  1
  H  567  1  0.52283800  0.33834600  0.31190300  1
  H  569  1  0.45147700  0.45431900  0.19943800  1
  H  570  1  0.48379800  0.48250900  0.22627700  1
  H  577  1  0.49320900  0.83761000  0.20598600  1
  H  579  1  0.56658500  0.95450500  0.31606400  1
  H  580  1  0.53468600  0.98274200  0.28878000  1
  H  587  1  0.02347300  0.17899800  0.70583000  1
  H  589  1  0.95035300  0.06224700  0.81623300  1
  H  590  1  0.98243000  0.03401100  0.78916100  1
  H  597  1  0.99452600  0.67804300  0.81253000  1
  H  599  1  0.06476600  0.56261100  0.69876600  1
  H  600  1  0.03205600  0.53446600  0.72518800  1
  H  607  1  0.80668500  0.02511400  0.83262700  1
  H  609  1  0.70206300  0.95073500  0.95390700  1
  H  610  1  0.72981000  0.98320000  0.98099400  1
  H  617  1  0.71061700  0.99126300  0.33255600  1
  H  619  1  0.81434200  0.06628200  0.45420900  1
  H  620  1  0.78624900  0.03413100  0.48132100  1
  H  627  1  0.21042100  0.52516300  0.68417700  1
  H  629  1  0.31404500  0.45010900  0.56251900  1
  H  630  1  0.28615000  0.48243900  0.53541300  1
  H  637  1  0.30666400  0.49173000  0.18411100  1
  H  639  1  0.20234600  0.56633800  0.06264200  1
  H  640  1  0.23013000  0.53391900  0.03554000  1
  H  647  1  0.83262700  0.80674300  0.02509000  1
  H  649  1  0.95396500  0.70223100  0.95060100  1
  H  650  1  0.98105800  0.73002700  0.98301400  1
  H  657  1  0.33259300  0.71063900  0.99129000  1
  H  659  1  0.45439500  0.81405400  0.06641800  1
  H  660  1  0.48147300  0.78599800  0.03420100  1
  H  667  1  0.68425400  0.21059700  0.52529400  1
  H  669  1  0.56260100  0.31420100  0.45014200  1
  H  670  1  0.53546800  0.28629000  0.48243900  1
  H  677  1  0.18408500  0.30681600  0.49179700  1
  H  679  1  0.06283000  0.20209900  0.56617900  1
  H  680  1  0.03573400  0.22974900  0.53364700  1
  H  687  1  0.02513600  0.83273400  0.80673100  1
  H  689  1  0.95067100  0.95409900  0.70227000  1
  H  690  1  0.98313900  0.98117100  0.73002700  1
  H  697  1  0.99134200  0.33245900  0.71066000  1
  H  699  1  0.06651300  0.45432500  0.81401800  1
  H  700  1  0.03437900  0.48140900  0.78586700  1
  H  707  1  0.52520900  0.68431800  0.21054600  1
  H  709  1  0.45017300  0.56269900  0.31423700  1
  H  710  1  0.48248800  0.53558700  0.28633500  1
  H  717  1  0.49168400  0.18403200  0.30671600  1
  H  719  1  0.56616700  0.06275300  0.20208500  1
  H  720  1  0.53373900  0.03562500  0.22982600  1
  H  727  1  0.02088600  0.18573200  0.35409300  1
  H  729  1  0.01473300  0.36116800  0.36617600  1
  H  730  1  0.96562900  0.34861200  0.36881300  1
  H  737  1  0.49521900  0.83128300  0.85450500  1
  H  739  1  0.50229500  0.65588000  0.86653700  1
  H  740  1  0.55137700  0.66859000  0.86896300  1
  H  747  1  0.99568700  0.68578800  0.16204900  1
  H  749  1  0.00218800  0.86119000  0.15077300  1
  H  750  1  0.05133200  0.84870700  0.14845400  1
  H  757  1  0.52157300  0.33132500  0.66280300  1
  H  759  1  0.51459200  0.15594600  0.64996500  1
  H  760  1  0.46552800  0.16866500  0.64724000  1
  H  767  1  0.35407700  0.02088300  0.18564400  1
  H  769  1  0.36647500  0.01448500  0.36108300  1
  H  770  1  0.36921000  0.96539700  0.34847700  1
  H  777  1  0.85429800  0.49477300  0.83133200  1
  H  779  1  0.86694300  0.50231300  0.65604800  1
  H  780  1  0.86946400  0.55134900  0.66892900  1
  H  787  1  0.16217500  0.99566800  0.68577500  1
  H  789  1  0.15069000  0.00232200  0.86117500  1
  H  790  1  0.14830600  0.05145600  0.84865800  1
  H  797  1  0.66260200  0.52151200  0.33131900  1
  H  799  1  0.65022500  0.51480900  0.15588300  1
  H  800  1  0.64763100  0.46571800  0.16851000  1
  H  807  1  0.18559000  0.35388800  0.02133000  1
  H  809  1  0.36095500  0.36669800  0.01453800  1
  H  810  1  0.34821700  0.36943600  0.96548300  1
  H  817  1  0.83127400  0.85460600  0.49543000  1
  H  819  1  0.65585300  0.86653100  0.50233400  1
  H  820  1  0.66851600  0.86896900  0.55142900  1
  H  827  1  0.68582100  0.16205400  0.99581200  1
  H  829  1  0.86123600  0.15086300  0.00216700  1
  H  830  1  0.84879200  0.14853900  0.05132100  1
  H  837  1  0.33131300  0.66278500  0.52178400  1
  H  839  1  0.15594200  0.64999000  0.51460700  1
  H  840  1  0.16870800  0.64731600  0.46555300  1
  H  847  1  0.93693800  0.26625300  0.89890700  1
  H  849  1  0.11306500  0.26400000  0.89275700  1
  H  850  1  0.10147900  0.21467100  0.89149200  1
  H  857  1  0.57973800  0.75059200  0.39829800  1
  H  859  1  0.40360200  0.75312400  0.39312000  1
  H  860  1  0.41518800  0.80246600  0.39215100  1
  H  867  1  0.43721000  0.25053700  0.11851600  1
  H  869  1  0.61327800  0.25308500  0.12389900  1
  H  870  1  0.60173300  0.30243400  0.12505400  1
  H  877  1  0.07988400  0.76649100  0.61827000  1
  H  879  1  0.90374600  0.76380200  0.62433200  1
  H  880  1  0.91539300  0.71448800  0.62575900  1
  H  887  1  0.76632900  0.61821200  0.07996200  1
  H  889  1  0.76374100  0.62418200  0.90381600  1
  H  890  1  0.71443000  0.62555700  0.91547500  1
  H  897  1  0.25032700  0.11839300  0.43713000  1
  H  899  1  0.25316300  0.12414400  0.61320500  1
  H  900  1  0.30248200  0.12528300  0.60151900  1
  H  907  1  0.75058500  0.39825900  0.57966800  1
  H  909  1  0.75313000  0.39312600  0.40357800  1
  H  910  1  0.80248100  0.39205700  0.41511700  1
  H  917  1  0.26640900  0.89881200  0.93699000  1
  H  919  1  0.26403600  0.89272600  0.11311300  1
  H  920  1  0.21470100  0.89149200  0.10153700  1
  H  927  1  0.11801900  0.43703900  0.25048800  1
  H  929  1  0.12432100  0.61314400  0.25291400  1
  H  930  1  0.12568200  0.60150700  0.30223200  1
  H  937  1  0.61857300  0.07978400  0.76628300  1
  H  939  1  0.62395300  0.90365800  0.76357300  1
  H  940  1  0.62509300  0.91529200  0.71424400  1
  H  947  1  0.89841800  0.93716400  0.26611600  1
  H  949  1  0.89319700  0.11324400  0.26385600  1
  H  950  1  0.89215200  0.10177100  0.21449000  1
  H  957  1  0.39851800  0.57983900  0.75037500  1
  H  959  1  0.39276200  0.40369100  0.75292000  1
  H  960  1  0.39157400  0.41529800  0.80224600  1
  C  1  1  0.12478200  0.36255600  0.38886100  1
  C  2  1  0.09639900  0.33958300  0.36504900  1
  C  3  1  0.07619500  0.30438800  0.37984800  1
  C  4  1  0.08543000  0.29099100  0.41998100  1
  C  5  1  0.11246800  0.31277100  0.44623200  1
  C  6  1  0.13210100  0.34791200  0.42944900  1
  C  9  1  0.14379200  0.39967900  0.37236900  1
  C  10  1  0.12319700  0.42466800  0.34310300  1
  C  11  1  0.14004000  0.46110700  0.32692900  1
  C  12  1  0.17929200  0.47326700  0.34074100  1
  C  13  1  0.20210300  0.44943000  0.36895000  1
  C  14  1  0.18365700  0.41302800  0.38411900  1
  C  21  1  0.39199600  0.65429400  0.88877300  1
  C  22  1  0.42039400  0.67731800  0.86502400  1
  C  23  1  0.44058300  0.71248700  0.87991900  1
  C  24  1  0.43135600  0.72577400  0.92009200  1
  C  25  1  0.40430800  0.70392300  0.94626600  1
  C  26  1  0.38468400  0.66882200  0.92940100  1
  C  29  1  0.37300100  0.61718900  0.87221900  1
  C  30  1  0.39361200  0.59222200  0.84294700  1
  C  31  1  0.37682000  0.55572700  0.82684300  1
  C  32  1  0.33762500  0.54348800  0.84075400  1
  C  33  1  0.31472300  0.56738900  0.86884600  1
  C  34  1  0.33312200  0.60385600  0.88392400  1
  C  41  1  0.89199600  0.86249500  0.12800200  1
  C  42  1  0.92042100  0.83951600  0.15175500  1
  C  43  1  0.94063200  0.80435400  0.13688800  1
  C  44  1  0.93142000  0.79104300  0.09671400  1
  C  45  1  0.90430800  0.81282000  0.07053500  1
  C  46  1  0.88463600  0.84790000  0.08740600  1
  C  49  1  0.87306300  0.89964600  0.14450800  1
  C  50  1  0.89379500  0.92468700  0.17362700  1
  C  51  1  0.87709900  0.96125100  0.18966300  1
  C  52  1  0.83790000  0.97351500  0.17579000  1
  C  53  1  0.81483700  0.94951300  0.14790500  1
  C  54  1  0.83314300  0.91296100  0.13291100  1
  C  61  1  0.62485100  0.15435000  0.62793700  1
  C  62  1  0.59645600  0.17734400  0.65171600  1
  C  63  1  0.57624900  0.21250500  0.63684300  1
  C  64  1  0.58548500  0.22585800  0.59669800  1
  C  65  1  0.61255400  0.20405900  0.57050500  1
  C  66  1  0.63218100  0.16893500  0.58733000  1
  C  69  1  0.64383600  0.11724000  0.64448100  1
  C  70  1  0.62319900  0.09226100  0.67372300  1
  C  71  1  0.64000800  0.05580400  0.68989100  1
  C  72  1  0.67923700  0.04359300  0.67606600  1
  C  73  1  0.70210800  0.06745100  0.64791800  1
  C  74  1  0.68372500  0.10390700  0.63279800  1
  C  81  1  0.38884300  0.12463200  0.36254600  1
  C  82  1  0.36506100  0.09621700  0.33957700  1
  C  83  1  0.37988500  0.07602900  0.30438500  1
  C  84  1  0.42000900  0.08530200  0.29098700  1
  C  85  1  0.44623200  0.11236300  0.31277100  1
  C  86  1  0.42942500  0.13198800  0.34790600  1
  C  89  1  0.37232000  0.14363900  0.39966100  1
  C  90  1  0.34306000  0.12303100  0.42464400  1
  C  91  1  0.32685500  0.13988100  0.46106200  1
  C  92  1  0.34064400  0.17913500  0.47323400  1
  C  93  1  0.36885200  0.20195800  0.44940600  1
  C  94  1  0.38404000  0.18351600  0.41300600  1
  C  101  1  0.88884900  0.39187900  0.65429400  1
  C  102  1  0.86509500  0.42026200  0.67732500  1
  C  103  1  0.87998300  0.44041800  0.71251100  1
  C  104  1  0.92015900  0.43120900  0.72579200  1
  C  105  1  0.94633600  0.40417400  0.70392900  1
  C  106  1  0.92947400  0.38455300  0.66882500  1
  C  109  1  0.87231100  0.37294000  0.61716400  1
  C  110  1  0.84314300  0.39364200  0.59216100  1
  C  111  1  0.82708500  0.37692400  0.55561400  1
  C  112  1  0.84096800  0.33773200  0.54334500  1
  C  113  1  0.86889500  0.31469600  0.56732500  1
  C  114  1  0.88391800  0.33302100  0.60385300  1
  C  121  1  0.12806900  0.89208400  0.86251900  1
  C  122  1  0.15182000  0.92051300  0.83954400  1
  C  123  1  0.13695400  0.94072300  0.80438200  1
  C  124  1  0.09678500  0.93150900  0.79106100  1
  C  125  1  0.07060200  0.90440300  0.81284500  1
  C  126  1  0.08746900  0.88473400  0.84792400  1
  C  129  1  0.14459700  0.87310900  0.89964600  1
  C  130  1  0.17381100  0.89375600  0.92465000  1
  C  131  1  0.18991400  0.87698600  0.96115000  1
  C  132  1  0.17602500  0.83777800  0.97338700  1
  C  133  1  0.14798600  0.81483300  0.94945500  1
  C  134  1  0.13293100  0.83321100  0.91296700  1
  C  141  1  0.62789400  0.62496400  0.15435800  1
  C  142  1  0.65167600  0.59658800  0.17737300  1
  C  143  1  0.63679400  0.57635600  0.21251700  1
  C  144  1  0.59663000  0.58556400  0.22584000  1
  C  145  1  0.57043800  0.61261800  0.20402100  1
  C  146  1  0.58727200  0.63225400  0.16890800  1
  C  149  1  0.64444100  0.64397400  0.11726000  1
  C  150  1  0.67373500  0.62337300  0.09231000  1
  C  151  1  0.68992100  0.64020400  0.05587100  1
  C  152  1  0.67608700  0.67943600  0.04366600  1
  C  153  1  0.64785400  0.70224600  0.06747500  1
  C  154  1  0.63270300  0.68383500  0.10390200  1
  C  161  1  0.36258000  0.38889500  0.12476500  1
  C  162  1  0.33959900  0.36509400  0.09637900  1
  C  163  1  0.30438700  0.37990300  0.07621600  1
  C  164  1  0.29100300  0.42003900  0.08545800  1
  C  165  1  0.31282000  0.44628400  0.11246900  1
  C  166  1  0.34795500  0.42948600  0.13209700  1
  C  169  1  0.39970400  0.37238700  0.14376000  1
  C  170  1  0.42471100  0.34317000  0.12312200  1
  C  171  1  0.46116200  0.32701400  0.13994700  1
  C  172  1  0.47333400  0.34081200  0.17919700  1
  C  173  1  0.44945500  0.36893500  0.20207000  1
  C  174  1  0.41302500  0.38408000  0.18365100  1
  C  181  1  0.65434000  0.88877300  0.39205100  1
  C  182  1  0.67734600  0.86504300  0.42047600  1
  C  183  1  0.71251500  0.87994300  0.44066200  1
  C  184  1  0.72582300  0.92010100  0.43139900  1
  C  185  1  0.70400000  0.94625300  0.40430500  1
  C  186  1  0.66889200  0.92938200  0.38469100  1
  C  189  1  0.61720400  0.87223500  0.37310200  1
  C  190  1  0.59220600  0.84305400  0.39379500  1
  C  191  1  0.55566000  0.82699300  0.37707400  1
  C  192  1  0.54338100  0.84088800  0.33788800  1
  C  193  1  0.56735200  0.86883100  0.31486700  1
  C  194  1  0.60387700  0.88386000  0.33319500  1
  C  201  1  0.86247300  0.12802300  0.89200500  1
  C  202  1  0.83950400  0.15178000  0.92043400  1
  C  203  1  0.80434500  0.13692700  0.94065900  1
  C  204  1  0.79100900  0.09676200  0.93143900  1
  C  205  1  0.81276500  0.07057900  0.90431100  1
  C  206  1  0.84785700  0.08743400  0.88464500  1
  C  209  1  0.89962200  0.14452800  0.87305000  1
  C  210  1  0.92463200  0.17372200  0.89371600  1
  C  211  1  0.96116600  0.18979600  0.87698900  1
  C  212  1  0.97341100  0.17591000  0.83778400  1
  C  213  1  0.94947000  0.14790400  0.81480600  1
  C  214  1  0.91296400  0.13286200  0.83315900  1
  C  221  1  0.15424400  0.62788500  0.62486700  1
  C  222  1  0.17727200  0.65167600  0.59651100  1
  C  223  1  0.21242800  0.63679400  0.57630100  1
  C  224  1  0.22573800  0.59662400  0.58548800  1
  C  225  1  0.20389200  0.57041700  0.61250200  1
  C  226  1  0.16877600  0.58724800  0.63213200  1
  C  229  1  0.11718000  0.64446000  0.64391300  1
  C  230  1  0.09225000  0.67381100  0.62337300  1
  C  231  1  0.05586800  0.69005600  0.64027400  1
  C  232  1  0.04370900  0.67623700  0.67952700  1
  C  233  1  0.06747200  0.64789400  0.70224000  1
  C  234  1  0.10383500  0.63267600  0.68376800  1
  C  241  1  0.11584600  0.37302600  0.87570500  1
  C  242  1  0.09127100  0.34365900  0.89658800  1
  C  243  1  0.05600400  0.32556600  0.87933800  1
  C  244  1  0.04334200  0.33914300  0.84021300  1
  C  245  1  0.06634300  0.36801800  0.81722300  1
  C  246  1  0.10244100  0.38408600  0.83565200  1
  C  249  1  0.15230700  0.39021700  0.89534400  1
  C  250  1  0.17538300  0.36632900  0.92358100  1
  C  251  1  0.20797100  0.38252400  0.94672100  1
  C  252  1  0.21724800  0.42458900  0.94220200  1
  C  253  1  0.19941900  0.44916200  0.91096300  1
  C  254  1  0.16675500  0.43094600  0.88836300  1
  C  261  1  0.40085600  0.64399800  0.37576900  1
  C  262  1  0.42544400  0.67339600  0.39659400  1
  C  263  1  0.46065500  0.69152800  0.37927100  1
  C  264  1  0.47326100  0.67794800  0.34012400  1
  C  265  1  0.45027100  0.64899100  0.31722200  1
  C  266  1  0.41420700  0.63291700  0.33570600  1
  C  269  1  0.36446800  0.62676400  0.39550600  1
  C  270  1  0.34144700  0.65064700  0.42378800  1
  C  271  1  0.30909600  0.63435600  0.44718500  1
  C  272  1  0.29995000  0.59225500  0.44280700  1
  C  273  1  0.31747000  0.56776200  0.41132600  1
  C  274  1  0.35001400  0.58602600  0.38858000  1
  C  281  1  0.61591500  0.14386700  0.14114100  1
  C  282  1  0.59138200  0.17329700  0.12029900  1
  C  283  1  0.55617900  0.19146800  0.13760100  1
  C  284  1  0.54355800  0.17795200  0.17676500  1
  C  285  1  0.56646000  0.14892600  0.19965400  1
  C  286  1  0.60251500  0.13280300  0.18119500  1
  C  289  1  0.65237000  0.12665000  0.12151300  1
  C  290  1  0.67549100  0.15052900  0.09330700  1
  C  291  1  0.70828000  0.13439400  0.07040500  1
  C  292  1  0.71780300  0.09241200  0.07517700  1
  C  293  1  0.69958200  0.06773600  0.10610800  1
  C  294  1  0.66676900  0.08591000  0.12851300  1
  C  301  1  0.90089600  0.87294400  0.64118100  1
  C  302  1  0.92549300  0.84354900  0.62036300  1
  C  303  1  0.96069800  0.82543200  0.63771100  1
  C  304  1  0.97328900  0.83899400  0.67686000  1
  C  305  1  0.95029800  0.86795100  0.69975000  1
  C  306  1  0.91424100  0.88402800  0.68125100  1
  C  309  1  0.86449000  0.89014100  0.62144800  1
  C  310  1  0.84146000  0.86623400  0.59319000  1
  C  311  1  0.80897100  0.88245100  0.56992500  1
  C  312  1  0.79966700  0.92450600  0.57441900  1
  C  313  1  0.81739100  0.94907600  0.60572600  1
  C  314  1  0.85003900  0.93087900  0.62836800  1
  C  321  1  0.87281200  0.64115100  0.90088600  1
  C  322  1  0.84346400  0.62031400  0.92552700  1
  C  323  1  0.82537400  0.63764400  0.96075300  1
  C  324  1  0.83891500  0.67681100  0.97331000  1
  C  325  1  0.86782900  0.69971900  0.95028600  1
  C  326  1  0.88390000  0.68122000  0.91422200  1
  C  329  1  0.89000100  0.62137100  0.86450200  1
  C  330  1  0.86608500  0.59305300  0.84155700  1
  C  331  1  0.88236900  0.56953400  0.80929700  1
  C  332  1  0.92447300  0.57382900  0.80016200  1
  C  333  1  0.94897200  0.60541100  0.81750100  1
  C  334  1  0.93071100  0.62829200  0.84995900  1
  C  341  1  0.14389900  0.14117900  0.61597900  1
  C  342  1  0.17331000  0.12033600  0.59142400  1
  C  343  1  0.19147100  0.13765200  0.55622500  1
  C  344  1  0.17795600  0.17681900  0.54361900  1
  C  345  1  0.14895600  0.19970700  0.56655200  1
  C  346  1  0.13284400  0.18124400  0.60260900  1
  C  349  1  0.12667700  0.12151900  0.65240900  1
  C  350  1  0.15056600  0.09330800  0.67551300  1
  C  351  1  0.13440200  0.07028400  0.70820100  1
  C  352  1  0.09239000  0.07495000  0.71763500  1
  C  353  1  0.06774400  0.10599400  0.69956700  1
  C  354  1  0.08592300  0.12846600  0.66679600  1
  C  361  1  0.64396500  0.37575700  0.40087100  1
  C  362  1  0.67338300  0.39657200  0.42543800  1
  C  363  1  0.69150700  0.37926500  0.46066100  1
  C  364  1  0.67792600  0.34012100  0.47328200  1
  C  365  1  0.64894200  0.31722200  0.45032300  1
  C  366  1  0.63286200  0.33570900  0.41425900  1
  C  369  1  0.62673300  0.39547800  0.36447100  1
  C  370  1  0.65061000  0.42375400  0.34142900  1
  C  371  1  0.63433500  0.44705700  0.30900100  1
  C  372  1  0.59226100  0.44258400  0.29977400  1
  C  373  1  0.56773100  0.41121900  0.31744800  1
  C  374  1  0.58600100  0.38851900  0.35001700  1
  C  381  1  0.37311700  0.87565400  0.11584000  1
  C  382  1  0.34371700  0.89652400  0.09129400  1
  C  383  1  0.32558800  0.87924900  0.05605400  1
  C  384  1  0.33918000  0.84013700  0.04336800  1
  C  385  1  0.36809200  0.81716800  0.06634400  1
  C  386  1  0.38416500  0.83559700  0.10243600  1
  C  389  1  0.39033000  0.89525900  0.15230600  1
  C  390  1  0.36646600  0.92347100  0.17543800  1
  C  391  1  0.38263400  0.94643000  0.20817300  1
  C  392  1  0.42466200  0.94175300  0.21756600  1
  C  393  1  0.44927500  0.91070000  0.19946800  1
  C  394  1  0.43107500  0.88826500  0.16668800  1
  C  401  1  0.14116700  0.61595200  0.14381000  1
  C  402  1  0.12031000  0.59137500  0.17319400  1
  C  403  1  0.13760000  0.55613700  0.19130100  1
  C  404  1  0.17674600  0.54351300  0.17775100  1
  C  405  1  0.19967600  0.56648800  0.14881700  1
  C  406  1  0.18123000  0.60257300  0.13274600  1
  C  409  1  0.12151900  0.65240300  0.12662300  1
  C  410  1  0.09330300  0.67549100  0.15052500  1
  C  411  1  0.07029300  0.70819400  0.13437900  1
  C  412  1  0.07497700  0.71766900  0.09237900  1
  C  413  1  0.10600500  0.69959400  0.06771500  1
  C  414  1  0.12849300  0.66683300  0.08588800  1
  C  421  1  0.64108700  0.90089000  0.87278200  1
  C  422  1  0.62027800  0.92547500  0.84336600  1
  C  423  1  0.63762200  0.96066500  0.82521800  1
  C  424  1  0.67678700  0.97324300  0.83876200  1
  C  425  1  0.69965500  0.95028600  0.86776200  1
  C  426  1  0.68115000  0.91424400  0.88386900  1
  C  429  1  0.62133800  0.86450200  0.89000400  1
  C  430  1  0.59307700  0.84147500  0.86610300  1
  C  431  1  0.56973800  0.80905600  0.88235100  1
  C  432  1  0.57417500  0.79981400  0.92442100  1
  C  433  1  0.60555200  0.81744300  0.94896900  1
  C  434  1  0.62824600  0.85004800  0.93074800  1
  C  441  1  0.87575100  0.11578700  0.37298900  1
  C  442  1  0.89661800  0.09127300  0.34356100  1
  C  443  1  0.87935600  0.05604900  0.32539200  1
  C  444  1  0.84021300  0.04337900  0.33893300  1
  C  445  1  0.81726200  0.06629100  0.36791100  1
  C  446  1  0.83570400  0.10235500  0.38404000  1
  C  449  1  0.89534700  0.15225700  0.39020800  1
  C  450  1  0.92354400  0.17540900  0.36634100  1
  C  451  1  0.94645200  0.20818300  0.38250300  1
  C  452  1  0.94172500  0.21762100  0.42451200  1
  C  453  1  0.91074000  0.19944300  0.44914600  1
  C  454  1  0.88833600  0.16664000  0.43095300  1
  C  461  1  0.37563500  0.40083100  0.64385200  1
  C  462  1  0.39645900  0.42544400  0.67322800  1
  C  463  1  0.37912700  0.46066700  0.69133000  1
  C  464  1  0.33999300  0.47327300  0.67772200  1
  C  465  1  0.31708200  0.45024900  0.64880100  1
  C  466  1  0.33556900  0.41416700  0.63276400  1
  C  469  1  0.39537200  0.36442800  0.62665100  1
  C  470  1  0.42365100  0.34142300  0.65054900  1
  C  471  1  0.44702300  0.30904100  0.63428300  1
  C  472  1  0.44263900  0.29986100  0.59218800  1
  C  473  1  0.41117600  0.31739300  0.56767900  1
  C  474  1  0.38843900  0.34995600  0.58591900  1
  C  481  1  0.24060000  0.46569600  0.38322400  1
  C  483  1  0.29656100  0.51053200  0.36271400  1
  C  484  1  0.29921500  0.52813300  0.40204700  1
  C  486  1  0.24564900  0.48007700  0.42380900  1
  C  491  1  0.27615200  0.55124200  0.88310200  1
  C  493  1  0.22042400  0.50617800  0.86230200  1
  C  494  1  0.21755000  0.48884600  0.90173900  1
  C  496  1  0.27050200  0.53736500  0.92376700  1
  C  501  1  0.77615800  0.96559600  0.13384000  1
  C  503  1  0.72076400  0.01096300  0.15484200  1
  C  504  1  0.71753100  0.02798400  0.11531300  1
  C  506  1  0.77014200  0.97920700  0.09313100  1
  C  511  1  0.74065300  0.05121500  0.63373300  1
  C  513  1  0.79644100  0.00620900  0.65433400  1
  C  514  1  0.79921200  0.98874200  0.61495300  1
  C  516  1  0.74586500  0.03696300  0.59312000  1
  C  521  1  0.38309600  0.24046900  0.46566900  1
  C  523  1  0.36254900  0.29641500  0.51050400  1
  C  524  1  0.40190100  0.29913700  0.52805300  1
  C  526  1  0.42369000  0.24559800  0.47998600  1
  C  531  1  0.88297400  0.27602200  0.55124800  1
  C  533  1  0.86200000  0.22053700  0.50596400  1
  C  534  1  0.90152800  0.21736800  0.48891000  1
  C  536  1  0.92370000  0.26997700  0.53771100  1
  C  541  1  0.13379800  0.77621900  0.96556800  1
  C  543  1  0.15468100  0.72066300  0.01079600  1
  C  544  1  0.11521100  0.71763500  0.02799700  1
  C  546  1  0.09312500  0.77044700  0.97938400  1
  C  551  1  0.63358000  0.74073500  0.05118600  1
  C  553  1  0.65410200  0.79661500  0.00624800  1
  C  554  1  0.61477500  0.79921200  0.98862000  1
  C  556  1  0.59301300  0.74573400  0.03674200  1
  C  561  1  0.46568400  0.38312600  0.24061600  1
  C  563  1  0.51061100  0.36252200  0.29646900  1
  C  564  1  0.52810500  0.40188500  0.29921500  1
  C  566  1  0.47990300  0.42374500  0.24585400  1
  C  571  1  0.55127300  0.88291000  0.27619100  1
  C  573  1  0.50608000  0.86193300  0.22064000  1
  C  574  1  0.48905000  0.90146100  0.21735100  1
  C  576  1  0.53769200  0.92362300  0.27015500  1
  C  581  1  0.96558700  0.13374300  0.77618200  1
  C  583  1  0.01082100  0.15465500  0.72064700  1
  C  584  1  0.02797700  0.11517300  0.71750700  1
  C  586  1  0.97939900  0.09307500  0.77037700  1
  C  591  1  0.05114300  0.63350100  0.74065300  1
  C  593  1  0.00642600  0.65393400  0.79674400  1
  C  594  1  0.98849500  0.61472900  0.79900400  1
  C  596  1  0.03638100  0.59301000  0.74532400  1
  C  601  1  0.73873700  0.96651800  0.88073400  1
  C  603  1  0.79290300  0.01227800  0.85749600  1
  C  604  1  0.79674700  0.02988900  0.89661500  1
  C  606  1  0.74619500  0.98038000  0.92121000  1
  C  611  1  0.77816200  0.05002800  0.38086800  1
  C  613  1  0.72394700  0.00445200  0.35747800  1
  C  614  1  0.71992300  0.98697300  0.39665800  1
  C  616  1  0.77039500  0.03651400  0.42137800  1
  C  621  1  0.27797000  0.46640200  0.63582000  1
  C  623  1  0.22382400  0.51216000  0.65919500  1
  C  624  1  0.21984200  0.52969400  0.62004900  1
  C  626  1  0.27030500  0.48017200  0.59536300  1
  C  631  1  0.23876900  0.55021000  0.13589000  1
  C  633  1  0.29288400  0.50456200  0.15923800  1
  C  634  1  0.29673000  0.48694800  0.12011500  1
  C  636  1  0.24623300  0.53640300  0.09540900  1
  C  641  1  0.88074000  0.73882300  0.96653100  1
  C  643  1  0.85749000  0.79296700  0.01224100  1
  C  644  1  0.89661800  0.79682300  0.02983700  1
  C  646  1  0.92124000  0.74629900  0.98030700  1
  C  651  1  0.38103700  0.77804300  0.05015600  1
  C  653  1  0.35754500  0.72389800  0.00449200  1
  C  654  1  0.39671000  0.71982000  0.98700100  1
  C  656  1  0.42150900  0.77020900  0.03656800  1
  C  661  1  0.63589900  0.27813600  0.46653300  1
  C  663  1  0.65928400  0.22401500  0.51228200  1
  C  664  1  0.62012500  0.22009600  0.52981600  1
  C  666  1  0.59543000  0.27047600  0.48024200  1
  C  671  1  0.13600500  0.23877300  0.55025800  1
  C  673  1  0.15923200  0.29295900  0.50458000  1
  C  674  1  0.12013200  0.29666400  0.48689300  1
  C  676  1  0.09553000  0.24609700  0.53632700  1
  C  681  1  0.96651500  0.88089600  0.73884400  1
  C  683  1  0.01229000  0.85761200  0.79297600  1
  C  684  1  0.02990000  0.89672800  0.79684700  1
  C  686  1  0.98037100  0.92136600  0.74633900  1
  C  691  1  0.05013100  0.38090800  0.77807900  1
  C  693  1  0.00454700  0.35740800  0.72392600  1
  C  694  1  0.98707100  0.39657800  0.71982600  1
  C  696  1  0.03663400  0.42140500  0.77021800  1
  C  701  1  0.46644500  0.63599400  0.27812000  1
  C  703  1  0.51220000  0.65934200  0.22396000  1
  C  704  1  0.52972100  0.62018600  0.21998400  1
  C  706  1  0.48020300  0.59553100  0.27046500  1
  C  711  1  0.55014200  0.13593600  0.23871100  1
  C  713  1  0.50450400  0.15918400  0.29288100  1
  C  714  1  0.48688400  0.12005600  0.29665700  1
  C  716  1  0.53631800  0.09544500  0.24609100  1
  C  721  1  0.04380000  0.28427600  0.35802500  1
  C  723  1  0.01494800  0.21633200  0.35229600  1
  C  724  1  0.97517100  0.23148600  0.35904500  1
  C  726  1  0.00341600  0.30020400  0.36004400  1
  C  731  1  0.47300100  0.73259000  0.85810100  1
  C  733  1  0.50131700  0.80076400  0.85214100  1
  C  734  1  0.54112000  0.78565600  0.85881600  1
  C  736  1  0.51343400  0.71684700  0.85997400  1
  C  741  1  0.97316100  0.78440100  0.15866300  1
  C  743  1  0.00182100  0.71631200  0.16436000  1
  C  744  1  0.04162000  0.73152100  0.15789100  1
  C  746  1  0.01356800  0.80022300  0.15696600  1
  C  751  1  0.54387000  0.23265100  0.65867300  1
  C  753  1  0.51551500  0.30074600  0.66454800  1
  C  754  1  0.47571700  0.28573000  0.65780800  1
  C  756  1  0.50343100  0.21692400  0.65639000  1
  C  761  1  0.35809800  0.04362200  0.28425700  1
  C  763  1  0.35230200  0.01492400  0.21624000  1
  C  764  1  0.35911800  0.97520400  0.23141400  1
  C  766  1  0.36026100  0.00320500  0.30011800  1
  C  771  1  0.85815300  0.47280900  0.73263000  1
  C  773  1  0.85204900  0.50097800  0.80082800  1
  C  774  1  0.85887100  0.54086700  0.78599800  1
  C  776  1  0.86018500  0.51326900  0.71702400  1
  C  781  1  0.15872400  0.97324900  0.78442500  1
  C  783  1  0.16446800  0.00182100  0.71629700  1
  C  784  1  0.15794100  0.04159100  0.73150900  1
  C  786  1  0.15693500  0.01367700  0.80020800  1
  C  791  1  0.65863300  0.54398000  0.23267300  1
  C  793  1  0.66441300  0.51550900  0.30073100  1
  C  794  1  0.65782600  0.47571100  0.28560200  1
  C  796  1  0.65652500  0.50356300  0.21686100  1
  C  801  1  0.28422600  0.35809500  0.04385300  1
  C  803  1  0.21617300  0.35216800  0.01529300  1
  C  804  1  0.23116800  0.35902100  0.97551000  1
  C  806  1  0.29998100  0.36032500  0.00340700  1
  C  811  1  0.73259600  0.85814400  0.47311100  1
  C  813  1  0.80074900  0.85222600  0.50150000  1
  C  814  1  0.78559800  0.85891400  0.54128200  1
  C  816  1  0.71681600  0.86000800  0.51352900  1
  C  821  1  0.78441300  0.15870400  0.97320000  1
  C  823  1  0.71634900  0.16437200  0.00192200  1
  C  824  1  0.73159400  0.15789300  0.04170600  1
  C  826  1  0.80027500  0.15701900  0.01359600  1
  C  831  1  0.23261700  0.65865100  0.54396800  1
  C  833  1  0.30074200  0.66454500  0.51569500  1
  C  834  1  0.28576600  0.65786600  0.47587000  1
  C  836  1  0.21693200  0.65641500  0.50351100  1
  C  841  1  0.03499600  0.29170900  0.89786500  1
  C  843  1  0.96764300  0.26122000  0.90142400  1
  C  844  1  0.98413200  0.22174100  0.89644400  1
  C  846  1  0.05208500  0.25174500  0.89742500  1
  C  851  1  0.48163800  0.72539500  0.39784300  1
  C  853  1  0.54910400  0.75567800  0.40142700  1
  C  854  1  0.53256000  0.79517600  0.39659400  1
  C  856  1  0.46459000  0.76535100  0.39778500  1
  C  861  1  0.53531200  0.22540300  0.11906500  1
  C  863  1  0.46784700  0.25575000  0.11560400  1
  C  864  1  0.48433300  0.29526700  0.12044100  1
  C  866  1  0.55229300  0.26538600  0.11935200  1
  C  871  1  0.98174600  0.79159200  0.61919000  1
  C  873  1  0.04918900  0.76138000  0.61575600  1
  C  874  1  0.03276600  0.72188200  0.62079700  1
  C  876  1  0.96475300  0.75160300  0.61978600  1
  C  881  1  0.79156800  0.61913200  0.98183400  1
  C  883  1  0.76124200  0.61567400  0.04926500  1
  C  884  1  0.72176300  0.62070200  0.03280400  1
  C  886  1  0.75156900  0.61962100  0.96482000  1
  C  891  1  0.22531600  0.11906000  0.53524800  1
  C  893  1  0.25548900  0.11538900  0.46776200  1
  C  894  1  0.29504300  0.12037600  0.48412800  1
  C  896  1  0.26529600  0.11933200  0.55221100  1
  C  901  1  0.72544100  0.39779100  0.48155900  1
  C  903  1  0.75578500  0.40123800  0.54903300  1
  C  904  1  0.79528000  0.39645300  0.53251100  1
  C  906  1  0.76542800  0.39760800  0.46457200  1
  C  911  1  0.29172200  0.89780700  0.03505900  1
  C  913  1  0.26135500  0.90134800  0.96769200  1
  C  914  1  0.22184500  0.89643800  0.98414100  1
  C  916  1  0.25176400  0.89735500  0.05212600  1
  C  921  1  0.11908900  0.53511400  0.22514300  1
  C  923  1  0.11554400  0.46774300  0.25556500  1
  C  924  1  0.12057300  0.48415600  0.29508000  1
  C  926  1  0.11962300  0.55215600  0.26511900  1
  C  931  1  0.61906200  0.98165400  0.79135700  1
  C  933  1  0.61550200  0.04915200  0.76115300  1
  C  934  1  0.62047300  0.03265700  0.72165600  1
  C  936  1  0.61927600  0.96465200  0.75138300  1
  C  941  1  0.89790500  0.03521800  0.29143300  1
  C  943  1  0.90137200  0.96780800  0.26095700  1
  C  944  1  0.89661500  0.98436400  0.22145800  1
  C  946  1  0.89772700  0.05227200  0.25147800  1
  C  951  1  0.39766000  0.48173000  0.72516300  1
  C  953  1  0.40111800  0.54914600  0.75544600  1
  C  954  1  0.39627900  0.53267900  0.79495300  1
  C  956  1  0.39729000  0.46469400  0.76514000  1
  N  482  1  0.26708500  0.48197100  0.35512500  1
  N  485  1  0.27377600  0.51008900  0.42968800  1
  N  488  1  0.22148600  0.47098200  0.45618900  1
  N  492  1  0.25004200  0.53461600  0.85483200  1
  N  495  1  0.24241300  0.50730200  0.92962100  1
  N  498  1  0.29423300  0.54691000  0.95632900  1
  N  502  1  0.75033800  0.98246100  0.16223200  1
  N  505  1  0.74201300  0.00924400  0.08728000  1
  N  508  1  0.79345300  0.96921600  0.06039900  1
  N  512  1  0.76698900  0.03479900  0.66189000  1
  N  515  1  0.77400100  0.00696000  0.58722300  1
  N  518  1  0.72196400  0.04637600  0.56063700  1
  N  522  1  0.35497300  0.26691700  0.48196800  1
  N  525  1  0.42956500  0.27374600  0.50998200  1
  N  528  1  0.45610300  0.22149200  0.47085700  1
  N  532  1  0.85460000  0.25017600  0.53439000  1
  N  535  1  0.92954100  0.24188000  0.50764100  1
  N  538  1  0.95640300  0.29339900  0.54753600  1
  N  542  1  0.16211800  0.75021900  0.98228600  1
  N  545  1  0.08725900  0.74232700  0.00941800  1
  N  548  1  0.06047700  0.79395400  0.96957400  1
  N  552  1  0.66168200  0.76720000  0.03487300  1
  N  555  1  0.58711300  0.77384200  0.00671600  1
  N  558  1  0.56060600  0.72167400  0.04601600  1
  N  562  1  0.48205700  0.35496600  0.26698100  1
  N  565  1  0.50992700  0.42962000  0.27397600  1
  N  568  1  0.47065800  0.45620100  0.22184900  1
  N  572  1  0.53446300  0.85453600  0.25032300  1
  N  575  1  0.50768100  0.92944400  0.24199200  1
  N  578  1  0.54743500  0.95631700  0.29362300  1
  N  582  1  0.98232000  0.16208000  0.75021600  1
  N  585  1  0.00941600  0.08723000  0.74223600  1
  N  588  1  0.96960100  0.06041900  0.79387800  1
  N  592  1  0.03506600  0.66153200  0.76733700  1
  N  595  1  0.00634300  0.58712000  0.77340800  1
  N  598  1  0.04541600  0.56071000  0.72102900  1
  N  602  1  0.76365300  0.98322400  0.85147200  1
  N  605  1  0.77394600  0.01105000  0.92602200  1
  N  608  1  0.72420400  0.97027600  0.95480500  1
  N  612  1  0.75343000  0.03328300  0.35148700  1
  N  615  1  0.74256600  0.00590300  0.42613800  1
  N  618  1  0.79217000  0.04677000  0.45506400  1
  N  622  1  0.25319800  0.48321200  0.66515300  1
  N  625  1  0.24249800  0.51079100  0.59057500  1
  N  628  1  0.29201600  0.46978400  0.56167600  1
  N  632  1  0.26362400  0.53361100  0.16524800  1
  N  635  1  0.27403300  0.50577800  0.09062100  1
  N  638  1  0.22440500  0.54670500  0.06176900  1
  N  642  1  0.85145000  0.76371400  0.98319400  1
  N  645  1  0.92604000  0.77405600  0.01097900  1
  N  648  1  0.95485100  0.72435600  0.97016000  1
  N  652  1  0.35163000  0.75337200  0.03334300  1
  N  655  1  0.42622900  0.74240400  0.00593100  1
  N  658  1  0.45522000  0.79193500  0.04684500  1
  N  662  1  0.66525700  0.25337700  0.48332200  1
  N  665  1  0.59063000  0.24268600  0.51087400  1
  N  668  1  0.56174300  0.29216800  0.46980900  1
  N  672  1  0.16527700  0.26373300  0.53365600  1
  N  675  1  0.09069800  0.27386700  0.50568000  1
  N  678  1  0.06193700  0.22415400  0.54654300  1
  N  682  1  0.98323000  0.85160900  0.76372900  1
  N  685  1  0.01105300  0.92615900  0.77408300  1
  N  688  1  0.97024300  0.95497900  0.72438700  1
  N  692  1  0.03337500  0.35147400  0.75341800  1
  N  695  1  0.00601000  0.42611300  0.74239400  1
  N  698  1  0.04694600  0.45513800  0.79189200  1
  N  702  1  0.48325800  0.66531500  0.25333500  1
  N  705  1  0.51081300  0.59072800  0.24265100  1
  N  708  1  0.46982400  0.56184700  0.29219000  1
  N  712  1  0.53355000  0.16524600  0.26363000  1
  N  715  1  0.50570400  0.09061100  0.27389400  1
  N  718  1  0.54657700  0.06184500  0.22418000  1
  N  722  1  0.04691200  0.24284100  0.35406500  1
  N  725  1  0.97201500  0.27291900  0.36177000  1
  N  728  1  0.99399100  0.34000500  0.36640800  1
  N  732  1  0.46955200  0.77402200  0.85426100  1
  N  735  1  0.54471000  0.74428300  0.86160600  1
  N  738  1  0.52300300  0.67708300  0.86631700  1
  N  742  1  0.96994000  0.74292300  0.16236500  1
  N  745  1  0.04496600  0.77293400  0.15536500  1
  N  748  1  0.02298600  0.84007900  0.15095600  1
  N  752  1  0.54732900  0.27405200  0.66273000  1
  N  755  1  0.47215200  0.24435500  0.65479500  1
  N  758  1  0.49389300  0.17715900  0.64996800  1
  N  762  1  0.35406800  0.04682300  0.24282800  1
  N  765  1  0.36198400  0.97181900  0.27281000  1
  N  768  1  0.36672300  0.99375900  0.33990100  1
  N  772  1  0.85418500  0.46925900  0.77403400  1
  N  775  1  0.86181000  0.54441700  0.74459400  1
  N  778  1  0.86670500  0.52295700  0.67731500  1
  N  782  1  0.16247400  0.96998000  0.74295000  1
  N  785  1  0.15533100  0.04506300  0.77290100  1
  N  788  1  0.15086200  0.02310900  0.84004800  1
  N  792  1  0.66258300  0.54736500  0.27409100  1
  N  795  1  0.65495400  0.47222200  0.24422500  1
  N  798  1  0.65024300  0.49407600  0.17706100  1
  N  802  1  0.24281700  0.35398600  0.04714300  1
  N  805  1  0.27257400  0.36200600  0.97210600  1
  N  808  1  0.33972100  0.36690300  0.99386600  1
  N  812  1  0.77403700  0.85432200  0.46970800  1
  N  815  1  0.74421800  0.86166400  0.54483200  1
  N  818  1  0.67703700  0.86632600  0.52306400  1
  N  822  1  0.74293200  0.16239500  0.97002000  1
  N  825  1  0.77301100  0.15540100  0.04501800  1
  N  828  1  0.84014000  0.15103300  0.02298300  1
  N  832  1  0.27401500  0.66269300  0.54747800  1
  N  835  1  0.24439500  0.65485700  0.47225900  1
  N  838  1  0.17717500  0.65001100  0.49392700  1
  N  842  1  0.99336500  0.29382900  0.90007700  1
  N  845  1  0.02568700  0.21960300  0.89566800  1
  N  848  1  0.09228800  0.24291600  0.89298900  1
  N  852  1  0.52328100  0.72315300  0.39980800  1
  N  855  1  0.49102400  0.79746500  0.39605600  1
  N  858  1  0.42436900  0.77421400  0.39361800  1
  N  862  1  0.49365800  0.22320600  0.11706500  1
  N  865  1  0.52586900  0.29749900  0.12107100  1
  N  868  1  0.59253000  0.27419700  0.12348900  1
  N  872  1  0.02336700  0.79391400  0.61700300  1
  N  875  1  0.99122900  0.71953500  0.62157300  1
  N  878  1  0.92454300  0.74273700  0.62407500  1
  N  882  1  0.79378900  0.61695700  0.02346400  1
  N  885  1  0.71947400  0.62145100  0.99126900  1
  N  888  1  0.74268800  0.62403000  0.92462500  1
  N  892  1  0.22299400  0.11697400  0.49362400  1
  N  895  1  0.29732400  0.12108800  0.52568500  1
  N  898  1  0.27422000  0.12367900  0.59239900  1
  N  902  1  0.72324700  0.39975000  0.52322000  1
  N  905  1  0.79755900  0.39590600  0.49097800  1
  N  908  1  0.77424200  0.39355400  0.42432600  1
  N  912  1  0.29394700  0.89999700  0.99343800  1
  N  915  1  0.21964700  0.89567700  0.02569800  1
  N  918  1  0.24294100  0.89308700  0.09234800  1
  N  922  1  0.11685600  0.49349000  0.22297700  1
  N  925  1  0.12141300  0.52571300  0.29721500  1
  N  928  1  0.12412100  0.59234700  0.27398000  1
  N  932  1  0.61704800  0.02329200  0.79365500  1
  N  935  1  0.62107800  0.99112500  0.71930900  1
  N  938  1  0.62352500  0.92444500  0.74249800  1
  N  942  1  0.89987500  0.99355700  0.29354700  1
  N  945  1  0.89604400  0.02590700  0.21931200  1
  N  948  1  0.89364900  0.09252500  0.24271700  1
  N  952  1  0.39977400  0.52335700  0.72289000  1
  N  955  1  0.39560100  0.49113700  0.79724800  1
  N  958  1  0.39311100  0.42446900  0.77399800  1
  O  8  1  0.06722300  0.25568200  0.43297200  1
  O  15  1  0.19596900  0.50841700  0.32533400  1
  O  28  1  0.44959800  0.76101000  0.93321700  1
  O  35  1  0.32111500  0.50817300  0.82555700  1
  O  48  1  0.94974500  0.75585000  0.08359500  1
  O  55  1  0.82156400  0.00898600  0.19081300  1
  O  68  1  0.56724200  0.26112200  0.58364000  1
  O  75  1  0.69581200  0.00836300  0.69140600  1
  O  88  1  0.43300900  0.06711600  0.25567000  1
  O  95  1  0.32520600  0.19579100  0.50838100  1
  O  108  1  0.93327500  0.44945500  0.76103100  1
  O  115  1  0.82590600  0.32137100  0.50790400  1
  O  128  1  0.08368000  0.94981600  0.75585300  1
  O  135  1  0.19119100  0.82129800  0.00872600  1
  O  148  1  0.58354800  0.56730700  0.26108500  1
  O  155  1  0.69149800  0.69608400  0.00850400  1
  O  168  1  0.25567200  0.43302700  0.06729100  1
  O  175  1  0.50855800  0.32547800  0.19579000  1
  O  188  1  0.76105000  0.93322900  0.44965000  1
  O  195  1  0.50794700  0.82582000  0.32151800  1
  O  208  1  0.75581300  0.08365800  0.94977000  1
  O  215  1  0.00877800  0.19104600  0.82133200  1
  O  228  1  0.26100300  0.58355700  0.56725500  1
  O  235  1  0.00865000  0.69175700  0.69629100  1
  O  248  1  0.00817000  0.32299400  0.82431400  1
  O  255  1  0.24527200  0.44046300  0.96882800  1
  O  268  1  0.50833200  0.69419200  0.32411200  1
  O  275  1  0.27240300  0.57631000  0.46988200  1
  O  288  1  0.50855200  0.19431400  0.19281100  1
  O  295  1  0.74652800  0.07670800  0.04920400  1
  O  308  1  0.00835700  0.82273700  0.69288500  1
  O  315  1  0.77172100  0.94033200  0.54768600  1
  O  328  1  0.82269100  0.69282700  0.00839900  1
  O  335  1  0.94041500  0.54651300  0.77284900  1
  O  348  1  0.19431500  0.19287000  0.50861300  1
  O  355  1  0.07665100  0.04873400  0.74611900  1
  O  368  1  0.69417400  0.32411800  0.50835600  1
  O  375  1  0.57636200  0.46944500  0.27198900  1
  O  388  1  0.32299400  0.82421900  0.00822200  1
  O  395  1  0.44046600  0.96796700  0.24601500  1
  O  408  1  0.19272000  0.50840500  0.19397700  1
  O  415  1  0.04877300  0.74617400  0.07665400  1
  O  428  1  0.69284800  0.00826200  0.82244100  1
  O  435  1  0.54728300  0.77203600  0.94027700  1
  O  448  1  0.82424400  0.00831100  0.32263300  1
  O  455  1  0.96781100  0.24620400  0.44029200  1
  O  468  1  0.32400200  0.50839000  0.69390200  1
  O  475  1  0.46967400  0.27226300  0.57626400  1
