# generated using pymatgen
data_H9C13O
_symmetry_space_group_name_H-M   'P 1'
_cell_length_a   26.25940000
_cell_length_b   50.34990000
_cell_length_c   50.34990000
_cell_angle_alpha   120.00000000
_cell_angle_beta   90.00000000
_cell_angle_gamma   90.00000000
_symmetry_Int_Tables_number   1
_chemical_formula_structural   H9C13O
_chemical_formula_sum   'H432 C624 O48'
_cell_volume   57651.77128786
_cell_formula_units_Z   48
loop_
 _symmetry_equiv_pos_site_id
 _symmetry_equiv_pos_as_xyz
  1  'x, y, z'
loop_
 _atom_site_type_symbol
 _atom_site_label
 _atom_site_symmetry_multiplicity
 _atom_site_fract_x
 _atom_site_fract_y
 _atom_site_fract_z
 _atom_site_occupancy
  H  7  1  0.91367100  0.74513300  0.13093000  1
  H  8  1  0.95990300  0.70250800  0.18054600  1
  H  15  1  0.83586500  0.67555600  0.00085000  1
  H  16  1  0.96595200  0.68037400  0.05191300  1
  H  19  1  0.95352500  0.63510200  0.06914900  1
  H  20  1  0.80856900  0.72896100  0.11045300  1
  H  27  1  0.91361200  0.48090400  0.25413000  1
  H  28  1  0.95979300  0.57315900  0.29675500  1
  H  35  1  0.83595200  0.42033100  0.32364600  1
  H  36  1  0.96599000  0.46664700  0.31886600  1
  H  39  1  0.95350100  0.52916700  0.36416500  1
  H  40  1  0.80855600  0.47660300  0.27031400  1
  H  47  1  0.91359300  0.86834800  0.51838500  1
  H  48  1  0.95977900  0.81874100  0.42612800  1
  H  55  1  0.83584600  0.99844900  0.57893800  1
  H  56  1  0.96589300  0.94735600  0.53265100  1
  H  59  1  0.95341000  0.93014200  0.47013900  1
  H  60  1  0.80847700  0.88884000  0.52269000  1
  H  67  1  0.41360900  0.31777600  0.80467300  1
  H  68  1  0.45978600  0.36040200  0.75504400  1
  H  75  1  0.33588400  0.38729600  0.93474700  1
  H  76  1  0.46594800  0.38250300  0.88366700  1
  H  79  1  0.45345700  0.42781200  0.86644500  1
  H  80  1  0.30851900  0.33396600  0.82514200  1
  H  87  1  0.41362000  0.58204500  0.68149200  1
  H  88  1  0.45980200  0.48979700  0.63885500  1
  H  95  1  0.33585700  0.64257100  0.61192500  1
  H  96  1  0.46591700  0.59630200  0.61673700  1
  H  99  1  0.45346500  0.53379100  0.57145800  1
  H  100  1  0.30851900  0.58635500  0.66531500  1
  H  107  1  0.41360900  0.19456900  0.41723000  1
  H  108  1  0.45977100  0.24420300  0.50948600  1
  H  115  1  0.33594100  0.06448000  0.35666900  1
  H  116  1  0.46598600  0.11557700  0.40297300  1
  H  119  1  0.45349500  0.13279600  0.46548800  1
  H  120  1  0.30854900  0.17408200  0.41293000  1
  H  127  1  0.01361500  0.58229600  0.80489900  1
  H  128  1  0.96807200  0.48995200  0.75519900  1
  H  135  1  0.09354400  0.64142700  0.93477400  1
  H  136  1  0.96174000  0.59761500  0.88433400  1
  H  139  1  0.97365300  0.53443100  0.86688700  1
  H  140  1  0.11914700  0.58511400  0.82490700  1
  H  147  1  0.01358800  0.19435300  0.68151600  1
  H  148  1  0.96808200  0.24404900  0.63885900  1
  H  155  1  0.09352500  0.06450900  0.61085600  1
  H  156  1  0.96170000  0.11492700  0.61743900  1
  H  159  1  0.97366300  0.13235000  0.57165800  1
  H  160  1  0.11909700  0.17438000  0.66433900  1
  H  167  1  0.01357700  0.31771900  0.41695200  1
  H  168  1  0.96799000  0.36036800  0.50928600  1
  H  175  1  0.09363600  0.38844000  0.35783300  1
  H  176  1  0.96178100  0.38182100  0.40160900  1
  H  179  1  0.97369100  0.42757800  0.46480600  1
  H  180  1  0.11913900  0.33490200  0.41416800  1
  H  187  1  0.51361500  0.48061300  0.13066800  1
  H  188  1  0.46808800  0.57296200  0.18037000  1
  H  195  1  0.59355900  0.42143500  0.00082700  1
  H  196  1  0.46172500  0.46526500  0.05123700  1
  H  199  1  0.47365900  0.52848000  0.06867400  1
  H  200  1  0.61911600  0.47782200  0.11070000  1
  H  207  1  0.51361100  0.86856000  0.25404000  1
  H  208  1  0.46810700  0.81887200  0.29670800  1
  H  215  1  0.59364300  0.99841600  0.32475300  1
  H  216  1  0.46180500  0.94800900  0.31814900  1
  H  219  1  0.47374700  0.93056700  0.36390700  1
  H  220  1  0.61916900  0.88853900  0.27121700  1
  H  227  1  0.51360300  0.74516000  0.51859700  1
  H  228  1  0.46810700  0.70251500  0.42624400  1
  H  235  1  0.59353600  0.67448900  0.57777100  1
  H  236  1  0.46170900  0.68107600  0.53394100  1
  H  239  1  0.47365900  0.63530200  0.47073100  1
  H  240  1  0.61910400  0.72798600  0.52139600  1
  H  247  1  0.01195900  0.32023300  0.80554800  1
  H  248  1  0.97199200  0.36278100  0.75477400  1
  H  255  1  0.09236000  0.38798200  0.93458600  1
  H  256  1  0.96287000  0.38482300  0.88374600  1
  H  259  1  0.98028200  0.43063400  0.86657500  1
  H  260  1  0.11985100  0.33671800  0.82496300  1
  H  267  1  0.01197400  0.58043800  0.67901300  1
  H  268  1  0.97204400  0.48710900  0.63646400  1
  H  275  1  0.09233300  0.64175300  0.61130600  1
  H  276  1  0.96283700  0.59405200  0.61443500  1
  H  279  1  0.98028100  0.53106200  0.56860700  1
  H  280  1  0.11982100  0.58336000  0.66253400  1
  H  287  1  0.01196600  0.19369200  0.41878900  1
  H  288  1  0.97196100  0.24444100  0.51210500  1
  H  295  1  0.09241000  0.06466100  0.35748100  1
  H  296  1  0.96291400  0.11548900  0.40516200  1
  H  299  1  0.98034100  0.13264400  0.46814800  1
  H  300  1  0.11988500  0.17428800  0.41587000  1
  H  307  1  0.51193900  0.74268000  0.13002500  1
  H  308  1  0.47200700  0.70013300  0.18080600  1
  H  315  1  0.59237500  0.67497200  0.00102000  1
  H  316  1  0.46283700  0.67811600  0.05182700  1
  H  319  1  0.48026700  0.63227300  0.06899400  1
  H  320  1  0.61981400  0.72618500  0.11064200  1
  H  327  1  0.51201900  0.48244200  0.25653500  1
  H  328  1  0.47204500  0.57576700  0.29909500  1
  H  335  1  0.59242100  0.42114900  0.32428900  1
  H  336  1  0.46293200  0.46883000  0.32112900  1
  H  339  1  0.48033500  0.53181000  0.36694100  1
  H  340  1  0.61990800  0.47950700  0.27301800  1
  H  347  1  0.51197700  0.86920200  0.51676200  1
  H  348  1  0.47209800  0.81842400  0.42342400  1
  H  355  1  0.59231400  0.99823100  0.57809800  1
  H  356  1  0.46284000  0.94739200  0.53038000  1
  H  359  1  0.48032000  0.93023500  0.46738600  1
  H  360  1  0.61983700  0.88861200  0.51969400  1
  H  367  1  0.91856000  0.48218100  0.12980300  1
  H  368  1  0.95780500  0.57560100  0.18066500  1
  H  375  1  0.83548500  0.42201700  0.00119800  1
  H  376  1  0.96694200  0.46740500  0.05112300  1
  H  379  1  0.95026100  0.53133800  0.06864700  1
  H  380  1  0.81014100  0.48114300  0.11109000  1
  H  387  1  0.91863300  0.86945600  0.25653500  1
  H  388  1  0.95776300  0.81858800  0.29910500  1
  H  395  1  0.83555700  0.99803300  0.32489500  1
  H  396  1  0.96702100  0.94812200  0.32040400  1
  H  399  1  0.95022700  0.93061600  0.36686200  1
  H  400  1  0.81022300  0.88813900  0.27419300  1
  H  407  1  0.91858100  0.74273700  0.51707300  1
  H  408  1  0.95782400  0.70019100  0.42365600  1
  H  415  1  0.83546900  0.67429800  0.57722700  1
  H  416  1  0.96694000  0.67884000  0.53185000  1
  H  419  1  0.95022900  0.63242000  0.46790400  1
  H  420  1  0.81013900  0.72505100  0.51808700  1
  H  427  1  0.41855200  0.58074100  0.80580700  1
  H  428  1  0.45771100  0.48731100  0.75492700  1
  H  435  1  0.33549600  0.64093500  0.93438100  1
  H  436  1  0.46696100  0.59553500  0.88446300  1
  H  439  1  0.45019000  0.53156400  0.86695300  1
  H  440  1  0.31014500  0.58174600  0.82449300  1
  H  447  1  0.41857800  0.19344700  0.67906200  1
  H  448  1  0.45781000  0.24431100  0.63650900  1
  H  455  1  0.33545800  0.06486200  0.61064500  1
  H  456  1  0.46692300  0.11477100  0.61516400  1
  H  459  1  0.45021300  0.13229400  0.56874600  1
  H  460  1  0.31014100  0.17475300  0.66139100  1
  H  467  1  0.41860900  0.32020600  0.41853700  1
  H  468  1  0.45776000  0.36273700  0.51196600  1
  H  475  1  0.33554900  0.38860000  0.35836000  1
  H  476  1  0.46702600  0.38407900  0.40375100  1
  H  479  1  0.45027700  0.43052500  0.46772500  1
  H  480  1  0.31022500  0.33788200  0.41753200  1
  H  486  1  0.99772100  0.82682200  0.22451000  1
  H  488  1  0.88349400  0.74422600  0.20787300  1
  H  489  1  0.88348100  0.79064100  0.25591900  1
  H  491  1  0.03759100  0.79826000  0.17665200  1
  H  492  1  0.99266900  0.77598600  0.14818800  1
  H  493  1  0.03603800  0.75827200  0.16165000  1
  H  499  1  0.99768600  0.49280200  0.17245300  1
  H  501  1  0.88340100  0.55875000  0.25502100  1
  H  502  1  0.88342500  0.56037800  0.20860300  1
  H  504  1  0.03755700  0.47352500  0.20103100  1
  H  505  1  0.99263300  0.46731900  0.22329300  1
  H  506  1  0.03596100  0.49851400  0.24101900  1
  H  512  1  0.99773300  0.77477300  0.50644900  1
  H  514  1  0.88338600  0.79140400  0.44053300  1
  H  515  1  0.88343400  0.74335200  0.43889300  1
  H  517  1  0.03758400  0.82263700  0.52573300  1
  H  518  1  0.99264500  0.85109900  0.53194000  1
  H  519  1  0.03597300  0.83763700  0.50074600  1
  H  525  1  0.49771200  0.23610400  0.71110300  1
  H  527  1  0.38339500  0.31865800  0.72771900  1
  H  528  1  0.38342900  0.27224100  0.67967300  1
  H  530  1  0.53757600  0.26469000  0.75896200  1
  H  531  1  0.49262400  0.28693400  0.78741900  1
  H  532  1  0.53595700  0.30467900  0.77397200  1
  H  538  1  0.49767000  0.57012800  0.76316500  1
  H  540  1  0.38340600  0.50419400  0.68057900  1
  H  541  1  0.38340200  0.50255600  0.72699100  1
  H  543  1  0.53754100  0.58942600  0.73460800  1
  H  544  1  0.49264700  0.59561500  0.71232000  1
  H  545  1  0.53599100  0.56442600  0.69462200  1
  H  551  1  0.49769700  0.28815400  0.42914700  1
  H  553  1  0.38336800  0.27151900  0.49506400  1
  H  554  1  0.38339900  0.31956900  0.49670200  1
  H  556  1  0.53756400  0.24029600  0.40986600  1
  H  557  1  0.49262000  0.21183400  0.40364600  1
  H  558  1  0.53594600  0.22528200  0.43484100  1
  H  564  1  0.93192900  0.57001100  0.71058400  1
  H  566  1  0.04479200  0.50423800  0.72832300  1
  H  567  1  0.04596900  0.50235900  0.68016200  1
  H  569  1  0.89107300  0.58948500  0.75817900  1
  H  570  1  0.93535600  0.59579500  0.78698400  1
  H  571  1  0.89191700  0.56464000  0.77335600  1
  H  577  1  0.93188800  0.28865400  0.76353800  1
  H  579  1  0.04477700  0.27092700  0.68004000  1
  H  580  1  0.04593900  0.31908600  0.72632600  1
  H  582  1  0.89102800  0.24106500  0.73540800  1
  H  583  1  0.93531000  0.21225700  0.71291900  1
  H  584  1  0.89188900  0.22589100  0.69538800  1
  H  590  1  0.93189400  0.23567100  0.42919700  1
  H  592  1  0.04467800  0.31920800  0.49501800  1
  H  593  1  0.04587000  0.27292100  0.49688700  1
  H  595  1  0.89104100  0.26378700  0.40971600  1
  H  596  1  0.93532700  0.28629300  0.40342400  1
  H  597  1  0.89185700  0.30380900  0.43456400  1
  H  603  1  0.43195600  0.49287300  0.22497300  1
  H  605  1  0.54479200  0.55866400  0.20724200  1
  H  606  1  0.54598400  0.56053000  0.25539700  1
  H  608  1  0.39107600  0.47341400  0.17738800  1
  H  609  1  0.43533800  0.46710200  0.14857400  1
  H  610  1  0.39191700  0.49826500  0.16222000  1
  H  616  1  0.43187300  0.77425700  0.17203700  1
  H  618  1  0.54479600  0.79198800  0.25552300  1
  H  619  1  0.54595000  0.74382800  0.20924100  1
  H  621  1  0.39102600  0.82185100  0.20016500  1
  H  622  1  0.43530700  0.85065800  0.22266000  1
  H  623  1  0.39189100  0.83701900  0.24018600  1
  H  629  1  0.43194500  0.82720100  0.50632900  1
  H  631  1  0.54481500  0.74369100  0.44055600  1
  H  632  1  0.54600300  0.78997900  0.43868800  1
  H  634  1  0.39106400  0.79907300  0.52578300  1
  H  635  1  0.43534600  0.77658700  0.53210700  1
  H  636  1  0.39192500  0.75905100  0.50094300  1
  H  642  1  0.66546500  0.73127200  0.04391500  1
  H  644  1  0.76146200  0.65022100  0.04652600  1
  H  645  1  0.67061100  0.64907600  0.04660100  1
  H  647  1  0.73949900  0.75807000  0.04400300  1
  H  648  1  0.79077000  0.73339200  0.02423300  1
  H  649  1  0.78949200  0.75374300  0.06496700  1
  H  655  1  0.66551800  0.40780800  0.26783800  1
  H  657  1  0.76153700  0.49126100  0.34910800  1
  H  658  1  0.67068200  0.49248600  0.35025700  1
  H  660  1  0.73955900  0.38115400  0.24098000  1
  H  661  1  0.79080500  0.38594700  0.26563800  1
  H  662  1  0.78957800  0.40647200  0.24542800  1
  H  668  1  0.66540500  0.95515000  0.59144300  1
  H  670  1  0.76144900  0.95295300  0.50799200  1
  H  671  1  0.67059500  0.95285200  0.50674700  1
  H  673  1  0.73944100  0.95497400  0.61811700  1
  H  674  1  0.79069100  0.97483400  0.61332100  1
  H  675  1  0.78946500  0.93410100  0.59280700  1
  H  681  1  0.16544600  0.33157300  0.89155900  1
  H  683  1  0.26151500  0.41273500  0.88920200  1
  H  684  1  0.17066300  0.41390000  0.88912800  1
  H  686  1  0.23946500  0.30472400  0.89140000  1
  H  687  1  0.29075000  0.32937200  0.91121400  1
  H  688  1  0.28946700  0.30910800  0.87047900  1
  H  694  1  0.16542000  0.65513600  0.66769400  1
  H  696  1  0.26146100  0.57160000  0.58653100  1
  H  697  1  0.17061000  0.57036600  0.58537800  1
  H  699  1  0.23945000  0.68181900  0.69453700  1
  H  700  1  0.29069700  0.67699000  0.66986700  1
  H  701  1  0.28947800  0.65652400  0.69013600  1
  H  707  1  0.16550000  0.10774000  0.34414100  1
  H  709  1  0.26153000  0.10998100  0.42761700  1
  H  710  1  0.17067900  0.11006500  0.42884800  1
  H  712  1  0.23953400  0.10792200  0.31747200  1
  H  713  1  0.29079600  0.08807700  0.32227900  1
  H  714  1  0.28954300  0.12881000  0.34278600  1
  H  720  1  0.26324000  0.65461600  0.89385200  1
  H  722  1  0.16721700  0.56856400  0.88592000  1
  H  723  1  0.25808700  0.56726300  0.88568800  1
  H  725  1  0.18945700  0.68195100  0.89498100  1
  H  726  1  0.13850400  0.67610500  0.91428600  1
  H  727  1  0.13899900  0.65738800  0.87359000  1
  H  733  1  0.26324000  0.10543900  0.66491600  1
  H  735  1  0.16716400  0.11332100  0.58678300  1
  H  736  1  0.25803000  0.11352400  0.58568200  1
  H  738  1  0.18947200  0.10436100  0.69116300  1
  H  739  1  0.13852300  0.08503300  0.66602200  1
  H  740  1  0.13899100  0.12572900  0.68797600  1
  H  746  1  0.26333100  0.33441000  0.34464500  1
  H  748  1  0.16725100  0.41243800  0.43073700  1
  H  749  1  0.25812200  0.41353400  0.43204600  1
  H  751  1  0.18957100  0.30819900  0.31728800  1
  H  752  1  0.13859500  0.33333333  0.32314833  1
  H  753  1  0.13911300  0.31132300  0.34183100  1
  H  759  1  0.76327000  0.40831800  0.04178100  1
  H  761  1  0.66718200  0.49431700  0.04963400  1
  H  762  1  0.75805300  0.49562900  0.04984700  1
  H  764  1  0.68950400  0.38099000  0.04070000  1
  H  765  1  0.63855500  0.38679700  0.02136700  1
  H  766  1  0.63902000  0.40554400  0.06206400  1
  H  772  1  0.76333300  0.95749600  0.27067200  1
  H  774  1  0.66727000  0.94956600  0.34878100  1
  H  775  1  0.75813900  0.94934700  0.34986700  1
  H  777  1  0.68955800  0.95861700  0.24445100  1
  H  778  1  0.63860200  0.97792400  0.26959700  1
  H  779  1  0.63908800  0.93722900  0.24761600  1
  H  785  1  0.76323500  0.72854500  0.59092800  1
  H  787  1  0.66717600  0.65044200  0.50488300  1
  H  788  1  0.75804700  0.64935000  0.50358200  1
  H  790  1  0.68946500  0.75477300  0.61826100  1
  H  791  1  0.63849400  0.72963800  0.61242200  1
  H  792  1  0.63901200  0.75161100  0.59370000  1
  H  798  1  0.91330500  0.69636400  0.98174900  1
  H  800  1  0.01577000  0.60604300  0.95421000  1
  H  801  1  0.96687600  0.62844100  0.00028300  1
  H  803  1  0.93873800  0.69926100  0.93834100  1
  H  804  1  0.94797300  0.66257300  0.90604400  1
  H  805  1  0.00120000  0.68554400  0.92638700  1
  H  811  1  0.91342800  0.38045900  0.30284500  1
  H  813  1  0.01583900  0.44325900  0.39318800  1
  H  814  1  0.96693800  0.46692600  0.37078200  1
  H  816  1  0.93888300  0.33415600  0.29994800  1
  H  817  1  0.94810200  0.33854800  0.33663800  1
  H  818  1  0.00133800  0.33593500  0.31368000  1
  H  824  1  0.91333000  0.01751800  0.61882300  1
  H  826  1  0.01571300  0.04506700  0.55601700  1
  H  827  1  0.96680900  0.99899600  0.53235200  1
  H  829  1  0.93879700  0.06092400  0.66512600  1
  H  830  1  0.94802800  0.09322300  0.66073600  1
  H  831  1  0.00125800  0.07286800  0.66334000  1
  H  837  1  0.41336500  0.36647900  0.95382500  1
  H  839  1  0.51575500  0.45683300  0.98138400  1
  H  840  1  0.46686200  0.43443000  0.93531200  1
  H  842  1  0.43881900  0.36358000  0.99723100  1
  H  843  1  0.44803400  0.40026800  0.02952900  1
  H  844  1  0.50127200  0.37731300  0.00918600  1
  H  850  1  0.41334600  0.68246100  0.63273900  1
  H  852  1  0.51572400  0.61965300  0.54238100  1
  H  853  1  0.46682800  0.59599000  0.56479400  1
  H  855  1  0.43880700  0.72876400  0.63563100  1
  H  856  1  0.44803800  0.72437500  0.59894500  1
  H  857  1  0.50126900  0.72697400  0.62190200  1
  H  863  1  0.41340300  0.04540100  0.31678700  1
  H  865  1  0.51585800  0.01787200  0.37958200  1
  H  866  1  0.46694900  0.06393900  0.40325200  1
  H  868  1  0.43885300  0.00199700  0.27048400  1
  H  869  1  0.44808000  0.96970200  0.27488100  1
  H  870  1  0.50131400  0.99004400  0.27225500  1
  H  876  1  0.01472300  0.36763400  0.95351200  1
  H  878  1  0.91341000  0.45852800  0.98178400  1
  H  879  1  0.96209100  0.43618800  0.93565500  1
  H  881  1  0.98952000  0.36470700  0.99696300  1
  H  882  1  0.98044100  0.40137200  0.02933500  1
  H  883  1  0.92711700  0.37850600  0.00899900  1
  H  889  1  0.01465500  0.68102600  0.63164300  1
  H  891  1  0.91341500  0.61837700  0.54072400  1
  H  892  1  0.96208200  0.59460100  0.56308100  1
  H  894  1  0.98945000  0.72739700  0.63455500  1
  H  895  1  0.98038900  0.72309700  0.59788700  1
  H  896  1  0.92705400  0.72562000  0.62074000  1
  H  902  1  0.01473100  0.04573900  0.31819800  1
  H  904  1  0.91352300  0.01743900  0.38083700  1
  H  905  1  0.96218500  0.06357500  0.40461900  1
  H  907  1  0.98952000  0.00228300  0.27182300  1
  H  908  1  0.98046700  0.96991000  0.27611600  1
  H  909  1  0.92712700  0.99024100  0.27359800  1
  H  915  1  0.51469600  0.69533800  0.98208700  1
  H  917  1  0.41345600  0.60440800  0.95378000  1
  H  918  1  0.46212500  0.62675200  0.99991500  1
  H  920  1  0.48949000  0.69826600  0.93863400  1
  H  921  1  0.48041900  0.66160200  0.90625700  1
  H  922  1  0.42708900  0.68445800  0.92659900  1
  H  928  1  0.51474200  0.38187000  0.30394000  1
  H  930  1  0.41351000  0.44452600  0.39486300  1
  H  931  1  0.46218200  0.46830000  0.37250400  1
  H  933  1  0.48952000  0.33550200  0.30102800  1
  H  934  1  0.48045300  0.33980100  0.33769800  1
  H  935  1  0.42712400  0.33728300  0.31484300  1
  H  941  1  0.51464700  0.01716300  0.61736300  1
  H  943  1  0.41340300  0.04543400  0.55471400  1
  H  944  1  0.46207100  0.99929800  0.53093800  1
  H  946  1  0.48944000  0.06062400  0.66373400  1
  H  947  1  0.48039200  0.09299200  0.65942900  1
  H  948  1  0.42704800  0.07267000  0.66196100  1
  H  954  1  0.87811200  0.65432600  0.16023300  1
  H  956  1  0.01380900  0.58002600  0.11155400  1
  H  957  1  0.01579000  0.62729700  0.11097200  1
  H  959  1  0.83120500  0.62282100  0.17309000  1
  H  960  1  0.87117000  0.60198500  0.18416400  1
  H  961  1  0.84102500  0.58338200  0.14768600  1
  H  967  1  0.87805000  0.60102800  0.34494100  1
  H  969  1  0.01377900  0.62664300  0.41922100  1
  H  970  1  0.01573200  0.57878400  0.37195600  1
  H  972  1  0.83117000  0.64540900  0.37645400  1
  H  973  1  0.87118500  0.67730300  0.39724800  1
  H  974  1  0.84102500  0.65947700  0.41589600  1
  H  980  1  0.87797800  0.83906000  0.39826600  1
  H  982  1  0.01375200  0.88769400  0.37264800  1
  H  983  1  0.01567900  0.88829500  0.42051100  1
  H  985  1  0.83110900  0.82618900  0.35388000  1
  H  986  1  0.87112600  0.81508700  0.32198700  1
  H  987  1  0.84097600  0.85156200  0.33981200  1
  H  993  1  0.37801000  0.40858900  0.77536500  1
  H  995  1  0.51372500  0.48287800  0.82403500  1
  H  996  1  0.51569400  0.43560800  0.82462000  1
  H  998  1  0.33110900  0.44010000  0.76251100  1
  H  999  1  0.37108300  0.46092600  0.75142900  1
  H  1000  1  0.34094100  0.47953900  0.78790800  1
  H  1006  1  0.37802900  0.46191800  0.59068100  1
  H  1008  1  0.51377500  0.43629600  0.51640800  1
  H  1009  1  0.51571700  0.48415700  0.56366500  1
  H  1011  1  0.33114700  0.41753900  0.55916500  1
  H  1012  1  0.37116300  0.38564400  0.53838500  1
  H  1013  1  0.34101800  0.40346000  0.51972400  1
  H  1019  1  0.37804800  0.22388800  0.53736400  1
  H  1021  1  0.51376300  0.17519600  0.56295400  1
  H  1022  1  0.51570900  0.17461200  0.51510100  1
  H  1024  1  0.33116600  0.23675300  0.58174200  1
  H  1025  1  0.37116300  0.24783300  0.61363900  1
  H  1026  1  0.34100600  0.21136000  0.59578800  1
  H  1032  1  0.04969400  0.46246300  0.77510400  1
  H  1034  1  0.91602500  0.43599500  0.82427800  1
  H  1035  1  0.91281400  0.48393200  0.82508200  1
  H  1037  1  0.09732200  0.41822100  0.76175600  1
  H  1038  1  0.05787000  0.38613500  0.75086300  1
  H  1039  1  0.08865100  0.40406300  0.78714900  1
  H  1045  1  0.04968600  0.22414100  0.59146300  1
  H  1047  1  0.91604800  0.17492900  0.51580800  1
  H  1048  1  0.91283200  0.17414100  0.56295100  1
  H  1050  1  0.09732200  0.23747600  0.56055900  1
  H  1051  1  0.05784300  0.24838000  0.53938600  1
  H  1052  1  0.08864700  0.21210300  0.52100600  1
  H  1058  1  0.04967500  0.40775300  0.53676500  1
  H  1060  1  0.91603000  0.48340900  0.56325000  1
  H  1061  1  0.91279700  0.43627600  0.51531300  1
  H  1063  1  0.09733400  0.43864200  0.58098700  1
  H  1064  1  0.05790400  0.45983400  0.61308400  1
  H  1065  1  0.08866600  0.47819500  0.59515400  1
  H  1071  1  0.54971600  0.60043500  0.16044400  1
  H  1073  1  0.41601200  0.62691900  0.11130500  1
  H  1074  1  0.41280500  0.57898000  0.11049900  1
  H  1076  1  0.59736000  0.64466700  0.17377100  1
  H  1077  1  0.55788800  0.67675400  0.18470200  1
  H  1078  1  0.58864700  0.65885900  0.14840900  1
  H  1084  1  0.54978800  0.83878900  0.34409000  1
  H  1086  1  0.41608800  0.88792300  0.41971500  1
  H  1087  1  0.41288500  0.88873600  0.37258500  1
  H  1089  1  0.59742500  0.82544700  0.37498900  1
  H  1090  1  0.55795700  0.81452400  0.39615200  1
  H  1091  1  0.58872700  0.85081300  0.41454200  1
  H  1097  1  0.54972700  0.65511700  0.39876800  1
  H  1099  1  0.41607200  0.57946800  0.37229800  1
  H  1100  1  0.41284300  0.62660900  0.42023000  1
  H  1102  1  0.59737500  0.62422000  0.35454000  1
  H  1103  1  0.55793400  0.60302300  0.32245000  1
  H  1104  1  0.58871100  0.58466900  0.34038300  1
  C  1  1  0.91973900  0.69689300  0.10446500  1
  C  2  1  0.92423800  0.72578500  0.13140300  1
  C  3  1  0.94053800  0.72829700  0.15931400  1
  C  4  1  0.95043900  0.70110800  0.16012500  1
  C  5  1  0.94549700  0.67196100  0.13363100  1
  C  6  1  0.93082300  0.66991800  0.10559500  1
  C  9  1  0.89793500  0.69467600  0.07763100  1
  C  10  1  0.84492100  0.69884400  0.07607700  1
  C  11  1  0.82210300  0.69209500  0.04786700  1
  C  12  1  0.85281400  0.68177900  0.02149100  1
  C  13  1  0.90586000  0.67760300  0.02262400  1
  C  14  1  0.92778500  0.68403400  0.05088300  1
  C  21  1  0.91969100  0.50268800  0.30237500  1
  C  22  1  0.92422600  0.50071700  0.27347600  1
  C  23  1  0.94043800  0.52613700  0.27097200  1
  C  24  1  0.95032500  0.55413900  0.29815700  1
  C  25  1  0.94542200  0.55678100  0.32730100  1
  C  26  1  0.93077200  0.53079100  0.32935000  1
  C  29  1  0.89794600  0.47804600  0.30457500  1
  C  30  1  0.84493300  0.47231400  0.30040700  1
  C  31  1  0.82216200  0.45082900  0.30713900  1
  C  32  1  0.85289800  0.43474200  0.31741000  1
  C  33  1  0.90592900  0.44009600  0.32161900  1
  C  34  1  0.92782700  0.46194300  0.31520500  1
  C  41  1  0.91964000  0.89482000  0.49661400  1
  C  42  1  0.92414300  0.86787800  0.49856100  1
  C  43  1  0.94041500  0.83997000  0.47315100  1
  C  44  1  0.95032000  0.83916000  0.44515300  1
  C  45  1  0.94536900  0.86566100  0.44251500  1
  C  46  1  0.93070500  0.89369800  0.46851100  1
  C  49  1  0.89785700  0.92165400  0.52124200  1
  C  50  1  0.84484400  0.92321700  0.52696700  1
  C  51  1  0.82206500  0.95143500  0.54843800  1
  C  52  1  0.85278200  0.97780400  0.56450800  1
  C  53  1  0.90582500  0.97665600  0.55918800  1
  C  54  1  0.92772800  0.94839400  0.53735000  1
  C  61  1  0.41967500  0.36602200  0.83113200  1
  C  62  1  0.42421800  0.33712100  0.80420300  1
  C  63  1  0.44043700  0.33461700  0.77628000  1
  C  64  1  0.45031500  0.36180500  0.77546400  1
  C  65  1  0.44540300  0.39094700  0.80196400  1
  C  66  1  0.43074900  0.39299700  0.83000400  1
  C  69  1  0.39791500  0.36821800  0.85796800  1
  C  70  1  0.34489800  0.36405300  0.85952200  1
  C  71  1  0.32211800  0.37079100  0.88774000  1
  C  72  1  0.35283800  0.38105700  0.91410300  1
  C  73  1  0.40587400  0.38525700  0.91296400  1
  C  74  1  0.42778300  0.37884600  0.88470700  1
  C  81  1  0.41967900  0.56027200  0.63325100  1
  C  82  1  0.42417600  0.56222200  0.66214200  1
  C  83  1  0.44046400  0.53681900  0.66465000  1
  C  84  1  0.45035000  0.50882000  0.63745700  1
  C  85  1  0.44541800  0.50616800  0.60830900  1
  C  86  1  0.43075300  0.53216800  0.60627600  1
  C  89  1  0.39789200  0.58489600  0.63103900  1
  C  90  1  0.34487900  0.59062200  0.63520400  1
  C  91  1  0.32207600  0.61208900  0.62845800  1
  C  92  1  0.35279600  0.62814700  0.61814600  1
  C  93  1  0.40583600  0.62282700  0.61396500  1
  C  94  1  0.42775200  0.60099800  0.62039800  1
  C  101  1  0.41968600  0.16810800  0.43901500  1
  C  102  1  0.42421800  0.19503700  0.43704300  1
  C  103  1  0.44042200  0.22296300  0.46246500  1
  C  104  1  0.45030400  0.22378100  0.49046800  1
  C  105  1  0.44541100  0.19727900  0.49311000  1
  C  106  1  0.43076400  0.16923700  0.46711800  1
  C  109  1  0.39794200  0.14126600  0.41437200  1
  C  110  1  0.34492900  0.13970400  0.40864500  1
  C  111  1  0.32215200  0.11148500  0.38716400  1
  C  112  1  0.35289100  0.08512500  0.37107400  1
  C  113  1  0.40592400  0.08627100  0.37642600  1
  C  114  1  0.42782100  0.11453200  0.39827000  1
  C  121  1  0.00704200  0.56061600  0.83142600  1
  C  122  1  0.00284200  0.56251400  0.80444400  1
  C  123  1  0.98696400  0.53703500  0.77647200  1
  C  124  1  0.97712200  0.50903500  0.77566700  1
  C  125  1  0.98189500  0.50639800  0.80218100  1
  C  126  1  0.99617500  0.53246800  0.83026200  1
  C  129  1  0.02952900  0.58503700  0.85811600  1
  C  130  1  0.08287800  0.58976200  0.85946000  1
  C  131  1  0.10653800  0.61067000  0.88760800  1
  C  132  1  0.07640000  0.62711500  0.91416200  1
  C  133  1  0.02309700  0.62310500  0.91293700  1
  C  134  1  0.00005400  0.60179200  0.88493600  1
  C  141  1  0.00702700  0.16782700  0.63330200  1
  C  142  1  0.00275800  0.19479900  0.66219100  1
  C  143  1  0.98694700  0.22277800  0.66467500  1
  C  144  1  0.97714500  0.22358600  0.63747600  1
  C  145  1  0.98190000  0.19706400  0.60833100  1
  C  146  1  0.99616900  0.16898100  0.60631600  1
  C  149  1  0.02948400  0.14114300  0.63106700  1
  C  150  1  0.08284000  0.13981100  0.63445000  1
  C  151  1  0.10651100  0.11166900  0.62723100  1
  C  152  1  0.07637000  0.08512000  0.61715700  1
  C  153  1  0.02307500  0.08633800  0.61435000  1
  C  154  1  0.00002000  0.11432400  0.62100600  1
  C  161  1  0.00703100  0.36592700  0.43863100  1
  C  162  1  0.00280000  0.33704700  0.43673300  1
  C  163  1  0.98687200  0.33454700  0.46220100  1
  C  164  1  0.97705500  0.36175000  0.49020400  1
  C  165  1  0.98186900  0.39089500  0.49283700  1
  C  166  1  0.99617000  0.39291100  0.46677200  1
  C  169  1  0.02954800  0.36818700  0.41421300  1
  C  170  1  0.08290100  0.36480600  0.40950300  1
  C  171  1  0.10659900  0.37203400  0.38859500  1
  C  172  1  0.07647600  0.38214200  0.37214100  1
  C  173  1  0.02317000  0.38492700  0.37613400  1
  C  174  1  0.00010000  0.37824400  0.39744300  1
  C  181  1  0.50704200  0.50230100  0.10414300  1
  C  182  1  0.50277700  0.50038300  0.13111400  1
  C  183  1  0.48695800  0.52587600  0.15909800  1
  C  184  1  0.47715200  0.55388200  0.15990500  1
  C  185  1  0.48190800  0.55650200  0.13338300  1
  C  186  1  0.49617700  0.53044000  0.10529600  1
  C  189  1  0.52950600  0.47785500  0.07745900  1
  C  190  1  0.58286200  0.47314000  0.07612900  1
  C  191  1  0.60653700  0.45222000  0.04798900  1
  C  192  1  0.57640000  0.43574300  0.02143800  1
  C  193  1  0.52310500  0.43976800  0.02265300  1
  C  194  1  0.50004600  0.46109800  0.05063800  1
  C  201  1  0.50707600  0.89509500  0.30225000  1
  C  202  1  0.50284900  0.86810900  0.27337200  1
  C  203  1  0.48696900  0.84014000  0.27088700  1
  C  204  1  0.47715200  0.83933700  0.29808500  1
  C  205  1  0.48196100  0.86585700  0.32722400  1
  C  206  1  0.49623800  0.89394000  0.32924100  1
  C  209  1  0.52957800  0.92177400  0.30450700  1
  C  210  1  0.58292700  0.92310600  0.30111900  1
  C  211  1  0.60661000  0.95124600  0.30835100  1
  C  212  1  0.57648700  0.97780800  0.31845800  1
  C  213  1  0.52318800  0.97659300  0.32124900  1
  C  214  1  0.50011900  0.94860000  0.31456800  1
  C  221  1  0.50703400  0.69694800  0.49690800  1
  C  222  1  0.50277300  0.72583800  0.49882600  1
  C  223  1  0.48696100  0.72832800  0.47333300  1
  C  224  1  0.47716300  0.70113000  0.44532500  1
  C  225  1  0.48191600  0.67198600  0.44270400  1
  C  226  1  0.49617300  0.66996100  0.46876800  1
  C  229  1  0.52949500  0.69470800  0.52135400  1
  C  230  1  0.58284700  0.69809400  0.52607000  1
  C  231  1  0.60651500  0.69087200  0.54699200  1
  C  232  1  0.57638100  0.68079300  0.56346500  1
  C  233  1  0.52308600  0.67798800  0.55944200  1
  C  234  1  0.50003100  0.68464300  0.53810900  1
  C  241  1  0.00957500  0.36866600  0.83135200  1
  C  242  1  0.00352000  0.33968300  0.80471500  1
  C  243  1  0.98946400  0.33720100  0.77648100  1
  C  244  1  0.98115400  0.36431200  0.77528800  1
  C  245  1  0.98742500  0.39352300  0.80153300  1
  C  246  1  0.00124600  0.39563900  0.82973400  1
  C  249  1  0.03102600  0.37072400  0.85817600  1
  C  250  1  0.08402400  0.36656800  0.85978100  1
  C  251  1  0.10654200  0.37263400  0.88784500  1
  C  252  1  0.07558900  0.38227900  0.91402500  1
  C  253  1  0.02263700  0.38682000  0.91292600  1
  C  254  1  0.00096800  0.38101400  0.88479000  1
  C  261  1  0.00957100  0.55780100  0.63057400  1
  C  262  1  0.00345500  0.56017000  0.65956600  1
  C  263  1  0.98950700  0.53439400  0.66203600  1
  C  264  1  0.98121100  0.50608800  0.63492800  1
  C  265  1  0.98743800  0.50312700  0.60571600  1
  C  266  1  0.00124600  0.52921200  0.60360100  1
  C  269  1  0.03099200  0.58258900  0.62853900  1
  C  270  1  0.08399000  0.58834400  0.63269600  1
  C  271  1  0.10649600  0.61035400  0.62664100  1
  C  272  1  0.07554000  0.62692200  0.61703800  1
  C  273  1  0.02259500  0.62125400  0.61246400  1
  C  274  1  0.00093400  0.59891200  0.61825000  1
  C  281  1  0.00960500  0.16788100  0.44141100  1
  C  282  1  0.00353100  0.19451800  0.43906700  1
  C  283  1  0.98944900  0.22274700  0.46482200  1
  C  284  1  0.98113800  0.22393100  0.49312200  1
  C  285  1  0.98742400  0.19768400  0.49608300  1
  C  286  1  0.00127300  0.16949300  0.47000000  1
  C  289  1  0.03106800  0.14106400  0.41664500  1
  C  290  1  0.08406200  0.13946500  0.41088800  1
  C  291  1  0.10657200  0.11140100  0.38888500  1
  C  292  1  0.07563100  0.08521900  0.37233700  1
  C  293  1  0.02267500  0.08631500  0.37796700  1
  C  294  1  0.00101400  0.11444700  0.40031100  1
  C  301  1  0.50954000  0.69424300  0.10422300  1
  C  302  1  0.50341600  0.72323400  0.13084500  1
  C  303  1  0.48945600  0.72570800  0.15909200  1
  C  304  1  0.48116900  0.69859700  0.16029000  1
  C  305  1  0.48740700  0.66938700  0.13403800  1
  C  306  1  0.50121900  0.66727000  0.10583900  1
  C  309  1  0.53098000  0.69220700  0.07740500  1
  C  310  1  0.58398600  0.69635200  0.07581500  1
  C  311  1  0.60651500  0.69029500  0.04775500  1
  C  312  1  0.57557000  0.68070500  0.02158000  1
  C  313  1  0.52262100  0.67613900  0.02266400  1
  C  314  1  0.50093700  0.68192600  0.05078900  1
  C  321  1  0.50963100  0.50506500  0.30497000  1
  C  322  1  0.50358000  0.50272200  0.27598700  1
  C  323  1  0.48953900  0.52848200  0.27351400  1
  C  324  1  0.48121100  0.55678300  0.30062500  1
  C  325  1  0.48748300  0.55974100  0.32983200  1
  C  326  1  0.50130300  0.53365600  0.33194400  1
  C  329  1  0.53108300  0.48029800  0.30702400  1
  C  330  1  0.58407700  0.47453700  0.30286600  1
  C  331  1  0.60658300  0.45254000  0.30893500  1
  C  332  1  0.57564600  0.43600300  0.31858100  1
  C  333  1  0.52268600  0.44163600  0.32311600  1
  C  334  1  0.50102900  0.46397400  0.31731600  1
  C  341  1  0.50958900  0.89500700  0.49412900  1
  C  342  1  0.50347300  0.86838200  0.49649200  1
  C  343  1  0.48952400  0.84013400  0.47071600  1
  C  344  1  0.48125700  0.83893900  0.44240700  1
  C  345  1  0.48749400  0.86519200  0.43945200  1
  C  346  1  0.50128800  0.89339300  0.46553800  1
  C  349  1  0.53100300  0.92183000  0.51892000  1
  C  350  1  0.58399700  0.92343200  0.52468200  1
  C  351  1  0.60648800  0.95149900  0.54669700  1
  C  352  1  0.57552800  0.97766900  0.56326500  1
  C  353  1  0.52258300  0.97657200  0.55759700  1
  C  354  1  0.50093700  0.94843900  0.53524400  1
  C  361  1  0.92138600  0.50473600  0.10393600  1
  C  362  1  0.92720300  0.50242900  0.13061200  1
  C  363  1  0.94086700  0.52824500  0.15890100  1
  C  364  1  0.94908300  0.55655900  0.16010000  1
  C  365  1  0.94293100  0.55950000  0.13383600  1
  C  366  1  0.92946700  0.53336500  0.10559300  1
  C  369  1  0.89911400  0.48018100  0.07729900  1
  C  370  1  0.84575200  0.47552700  0.07596500  1
  C  371  1  0.82225300  0.45400300  0.04802900  1
  C  372  1  0.85253500  0.43683800  0.02168200  1
  C  373  1  0.90576400  0.44119600  0.02279700  1
  C  374  1  0.92868700  0.46310200  0.05059200  1
  C  381  1  0.92143000  0.89531800  0.30496100  1
  C  382  1  0.92734300  0.86865800  0.27597100  1
  C  383  1  0.94090500  0.84035600  0.27350600  1
  C  384  1  0.94904200  0.83915300  0.30062600  1
  C  385  1  0.94289600  0.86542000  0.32982800  1
  C  386  1  0.92946400  0.89366700  0.33193800  1
  C  389  1  0.89919300  0.92194900  0.30700700  1
  C  390  1  0.84582700  0.92327700  0.30368700  1
  C  391  1  0.82232900  0.95121000  0.31008300  1
  C  392  1  0.85261400  0.97754900  0.31922400  1
  C  393  1  0.90583500  0.97643500  0.32249300  1
  C  394  1  0.92876300  0.94865300  0.31663700  1
  C  401  1  0.92138900  0.69431500  0.49451100  1
  C  402  1  0.92722300  0.72330000  0.49682500  1
  C  403  1  0.94090200  0.72578000  0.47101600  1
  C  404  1  0.94910200  0.69866700  0.44269700  1
  C  405  1  0.94293200  0.66946100  0.43975000  1
  C  406  1  0.92946200  0.66734400  0.46588000  1
  C  409  1  0.89911000  0.69222900  0.51906300  1
  C  410  1  0.84574600  0.69554500  0.52371100  1
  C  411  1  0.82223300  0.68913700  0.54523600  1
  C  412  1  0.85251700  0.67995900  0.56240400  1
  C  413  1  0.90574400  0.67671900  0.55804700  1
  C  414  1  0.92868200  0.68260900  0.53614600  1
  C  421  1  0.42136600  0.55816900  0.83166000  1
  C  422  1  0.42727200  0.56050600  0.80500500  1
  C  423  1  0.44083700  0.53467400  0.77670100  1
  C  424  1  0.44898600  0.50634900  0.77549200  1
  C  425  1  0.44285100  0.50341000  0.80175700  1
  C  426  1  0.42941200  0.52954000  0.83000600  1
  C  429  1  0.39912600  0.58275000  0.85829600  1
  C  430  1  0.34575900  0.58739100  0.85962600  1
  C  431  1  0.32225900  0.60892800  0.88756300  1
  C  432  1  0.35255200  0.62612600  0.91389600  1
  C  433  1  0.40577500  0.62175500  0.91278100  1
  C  434  1  0.42870000  0.59983000  0.88499900  1
  C  441  1  0.42138100  0.16758700  0.63064200  1
  C  442  1  0.42721500  0.19425900  0.65962400  1
  C  443  1  0.44090200  0.22254900  0.66210400  1
  C  444  1  0.44908900  0.22374700  0.63498600  1
  C  445  1  0.44292000  0.19748700  0.60577900  1
  C  446  1  0.42945100  0.16924500  0.60367000  1
  C  449  1  0.39910000  0.14095100  0.62855900  1
  C  450  1  0.34574000  0.13962000  0.63188300  1
  C  451  1  0.32222800  0.11169100  0.62548200  1
  C  452  1  0.35251100  0.08534400  0.61630100  1
  C  453  1  0.40573700  0.08645300  0.61305500  1
  C  454  1  0.42866600  0.11424300  0.61893600  1
  C  461  1  0.42144200  0.36863200  0.44111300  1
  C  462  1  0.42733300  0.33963600  0.43877300  1
  C  463  1  0.44089000  0.33715600  0.46460100  1
  C  464  1  0.44904400  0.36426900  0.49292800  1
  C  465  1  0.44292400  0.39347600  0.49587200  1
  C  466  1  0.42949600  0.39560100  0.46974400  1
  C  469  1  0.39919900  0.37069100  0.41653600  1
  C  470  1  0.34583100  0.36738100  0.41189800  1
  C  471  1  0.32232300  0.37378500  0.39036700  1
  C  472  1  0.35261000  0.38292500  0.37316900  1
  C  473  1  0.40583200  0.38618500  0.37754100  1
  C  474  1  0.42876500  0.38032200  0.39946100  1
  C  481  1  0.94091800  0.81294700  0.24452400  1
  C  482  1  0.97345400  0.80930100  0.22058400  1
  C  483  1  0.97464000  0.78167000  0.19190200  1
  C  484  1  0.94128400  0.75724700  0.18696400  1
  C  485  1  0.90807200  0.76130300  0.21084800  1
  C  487  1  0.90807000  0.78860900  0.23921600  1
  C  490  1  0.01232400  0.77845900  0.16837200  1
  C  494  1  0.94087300  0.52668100  0.18631500  1
  C  495  1  0.97338900  0.50638200  0.18996400  1
  C  496  1  0.97456500  0.50534000  0.21760000  1
  C  497  1  0.94119300  0.52482000  0.24201300  1
  C  498  1  0.90799300  0.54465000  0.23795100  1
  C  500  1  0.90801200  0.54571200  0.21064400  1
  C  503  1  0.01227100  0.48503600  0.22082400  1
  C  507  1  0.94090200  0.75475800  0.47257900  1
  C  508  1  0.97341200  0.77870700  0.49288200  1
  C  509  1  0.97459100  0.80738300  0.49391900  1
  C  510  1  0.94119600  0.81232100  0.47445100  1
  C  511  1  0.90799300  0.78842800  0.45462400  1
  C  513  1  0.90803200  0.76005600  0.45355200  1
  C  516  1  0.01229000  0.83091600  0.51422200  1
  C  520  1  0.44089400  0.24996100  0.69108000  1
  C  521  1  0.47342700  0.25361900  0.71502500  1
  C  522  1  0.47458900  0.28125200  0.74370600  1
  C  523  1  0.44119900  0.30565800  0.74864000  1
  C  524  1  0.40799900  0.30159100  0.72474700  1
  C  526  1  0.40802600  0.27428600  0.69637700  1
  C  529  1  0.51227800  0.28447700  0.76724100  1
  C  533  1  0.44084100  0.53625500  0.74929600  1
  C  534  1  0.47335900  0.55656100  0.74565800  1
  C  535  1  0.47456200  0.55760000  0.71802000  1
  C  536  1  0.44121000  0.53811500  0.69359700  1
  C  537  1  0.40799200  0.51829100  0.69765500  1
  C  539  1  0.40798800  0.51722700  0.72495900  1
  C  542  1  0.51227800  0.57790400  0.71480400  1
  C  546  1  0.44087100  0.30817100  0.46302000  1
  C  547  1  0.47340800  0.28422800  0.44273300  1
  C  548  1  0.47457000  0.25554500  0.44167900  1
  C  549  1  0.44117600  0.25060400  0.46114600  1
  C  550  1  0.40796900  0.27449400  0.48097100  1
  C  552  1  0.40799500  0.30286400  0.48203900  1
  C  555  1  0.51226700  0.23201300  0.42137000  1
  C  559  1  0.98876100  0.53608000  0.69106400  1
  C  560  1  0.95591200  0.55646200  0.71475000  1
  C  561  1  0.95398100  0.55763100  0.74347500  1
  C  562  1  0.98693300  0.53820600  0.74874300  1
  C  563  1  0.02047000  0.51829500  0.72511000  1
  C  565  1  0.02116700  0.51708400  0.69667400  1
  C  568  1  0.91597600  0.57802900  0.76670700  1
  C  572  1  0.98872700  0.30817700  0.74913600  1
  C  573  1  0.95589000  0.28448600  0.74583000  1
  C  574  1  0.95395400  0.25576500  0.71827000  1
  C  575  1  0.98690500  0.25050400  0.69357700  1
  C  576  1  0.02045500  0.27413700  0.69730900  1
  C  578  1  0.02114800  0.30257000  0.72453800  1
  C  581  1  0.91594000  0.23253600  0.71542900  1
  C  585  1  0.98869000  0.25009500  0.46315000  1
  C  586  1  0.95584100  0.25339600  0.44276700  1
  C  587  1  0.95391700  0.28094800  0.44159000  1
  C  588  1  0.98684700  0.30565000  0.46103200  1
  C  589  1  0.02037500  0.30193200  0.48094900  1
  C  591  1  0.02108700  0.27470300  0.48215200  1
  C  594  1  0.91593100  0.28377700  0.42118100  1
  C  598  1  0.48878200  0.52680500  0.24449100  1
  C  599  1  0.45593200  0.50642300  0.22080700  1
  C  600  1  0.45400200  0.50525400  0.19208100  1
  C  601  1  0.48693800  0.52469200  0.18681900  1
  C  602  1  0.52048100  0.54460000  0.21045200  1
  C  604  1  0.52118900  0.54580200  0.23888300  1
  C  607  1  0.41597700  0.48486700  0.16885700  1
  C  611  1  0.48872500  0.75473500  0.18643300  1
  C  612  1  0.45588300  0.77842500  0.18974000  1
  C  613  1  0.45395600  0.80714800  0.21730000  1
  C  614  1  0.48691900  0.81241100  0.24198800  1
  C  615  1  0.52046500  0.78877800  0.23825700  1
  C  617  1  0.52114700  0.76034200  0.21103100  1
  C  620  1  0.41593900  0.83037900  0.22014600  1
  C  624  1  0.48878200  0.81279300  0.47240200  1
  C  625  1  0.45591300  0.80948100  0.49276900  1
  C  626  1  0.45399000  0.78192800  0.49394500  1
  C  627  1  0.48694200  0.75723400  0.47451600  1
  C  628  1  0.52049200  0.76096100  0.45461300  1
  C  630  1  0.52120000  0.78819000  0.45341100  1
  C  633  1  0.41597300  0.77909200  0.51433600  1
  C  637  1  0.66020900  0.69004000  0.04494100  1
  C  638  1  0.68621000  0.71397000  0.04375900  1
  C  639  1  0.74017200  0.71523500  0.04400300  1
  C  640  1  0.76823100  0.69160300  0.04510000  1
  C  641  1  0.74194100  0.66727700  0.04544800  1
  C  643  1  0.68857700  0.66654900  0.04548600  1
  C  646  1  0.76623900  0.74162200  0.04431900  1
  C  650  1  0.66027200  0.44995800  0.30918700  1
  C  651  1  0.68626900  0.42492400  0.28516700  1
  C  652  1  0.74022900  0.42388500  0.28391500  1
  C  653  1  0.76829100  0.44854300  0.30762600  1
  C  654  1  0.74200800  0.47316400  0.33201300  1
  C  656  1  0.68864300  0.47392800  0.33274700  1
  C  659  1  0.76629900  0.39787300  0.25747400  1
  C  663  1  0.66017500  0.95433600  0.54928600  1
  C  664  1  0.68616300  0.95538300  0.57434000  1
  C  665  1  0.74012300  0.95516600  0.57538000  1
  C  666  1  0.76819400  0.95422200  0.55072700  1
  C  667  1  0.74191600  0.95395300  0.52608700  1
  C  669  1  0.68855200  0.95390900  0.52531100  1
  C  672  1  0.76618600  0.95474400  0.60139800  1
  C  676  1  0.16022900  0.37288200  0.89068000  1
  C  677  1  0.18620800  0.34890100  0.89177600  1
  C  678  1  0.24016600  0.34762200  0.89152900  1
  C  679  1  0.26824400  0.37129000  0.89051200  1
  C  680  1  0.24197900  0.39566200  0.89024200  1
  C  682  1  0.18861100  0.39640500  0.89021000  1
  C  685  1  0.26621800  0.32119100  0.89113200  1
  C  689  1  0.16018700  0.61293700  0.62639900  1
  C  690  1  0.18617400  0.63800100  0.65038700  1
  C  691  1  0.24013600  0.63904600  0.65164100  1
  C  692  1  0.26820900  0.61437100  0.62796000  1
  C  693  1  0.24192900  0.58972300  0.60359300  1
  C  695  1  0.18856600  0.58893700  0.60287400  1
  C  698  1  0.26619500  0.66508800  0.67806100  1
  C  702  1  0.16026000  0.10856600  0.38630200  1
  C  703  1  0.18625400  0.10751600  0.36125000  1
  C  704  1  0.24021600  0.10774200  0.36021500  1
  C  705  1  0.26828200  0.10871200  0.38488200  1
  C  706  1  0.24200200  0.10897400  0.40951800  1
  C  708  1  0.18863800  0.10900500  0.41028500  1
  C  711  1  0.26627500  0.10816300  0.33419700  1
  C  715  1  0.26849900  0.61106600  0.88999300  1
  C  716  1  0.24249300  0.63689500  0.89281500  1
  C  717  1  0.18855400  0.63798700  0.89265000  1
  C  718  1  0.16046900  0.61258300  0.89002600  1
  C  719  1  0.18675700  0.58713500  0.88802000  1
  C  721  1  0.24012400  0.58631500  0.88787900  1
  C  724  1  0.16262800  0.66489300  0.89395300  1
  C  728  1  0.26846800  0.10926000  0.62520200  1
  C  729  1  0.24247800  0.10650500  0.64825200  1
  C  730  1  0.18853900  0.10665600  0.64951100  1
  C  731  1  0.16044200  0.10926600  0.62672600  1
  C  732  1  0.18671100  0.11124600  0.60326400  1
  C  734  1  0.24007900  0.11136400  0.60256300  1
  C  737  1  0.16262800  0.10536900  0.67512700  1
  C  741  1  0.26856000  0.37406400  0.38822500  1
  C  742  1  0.24256900  0.35107300  0.36237800  1
  C  743  1  0.18863000  0.34980100  0.36127900  1
  C  744  1  0.16053000  0.37254300  0.38670400  1
  C  745  1  0.18680200  0.39597900  0.41216600  1
  C  747  1  0.24017000  0.39667300  0.41299300  1
  C  750  1  0.16272700  0.32420800  0.33435100  1
  C  754  1  0.76849500  0.45185100  0.04559700  1
  C  755  1  0.74250600  0.42604500  0.04284200  1
  C  756  1  0.68856700  0.42493400  0.04298800  1
  C  757  1  0.66046800  0.45032300  0.04558800  1
  C  758  1  0.68673400  0.47576100  0.04755800  1
  C  760  1  0.74010200  0.47658600  0.04768600  1
  C  763  1  0.66266100  0.39803100  0.04170400  1
  C  767  1  0.76856800  0.95364000  0.31036400  1
  C  768  1  0.74257200  0.95644100  0.28734200  1
  C  769  1  0.68863300  0.95628200  0.28608200  1
  C  770  1  0.66054100  0.95364900  0.30885500  1
  C  771  1  0.68681500  0.95165500  0.33230600  1
  C  773  1  0.74018300  0.95153400  0.33300300  1
  C  776  1  0.66271900  0.95759000  0.26047800  1
  C  780  1  0.76847500  0.68884900  0.54738100  1
  C  781  1  0.74247800  0.71186600  0.57320800  1
  C  782  1  0.68853900  0.71313700  0.57430000  1
  C  783  1  0.66044800  0.69036800  0.54889100  1
  C  784  1  0.68672200  0.66691000  0.52344900  1
  C  786  1  0.74009000  0.66621800  0.52262900  1
  C  789  1  0.66262700  0.73874800  0.60120700  1
  C  793  1  0.93566600  0.66467600  0.99533400  1
  C  794  1  0.93483100  0.67720400  0.97568600  1
  C  795  1  0.96369500  0.66429300  0.94824000  1
  C  796  1  0.99376500  0.63782300  0.94020600  1
  C  797  1  0.99463200  0.62522900  0.95975100  1
  C  799  1  0.96606200  0.63850400  0.98694900  1
  C  802  1  0.96269300  0.67880700  0.92875300  1
  C  806  1  0.93576100  0.42573500  0.33453800  1
  C  807  1  0.93493700  0.39355900  0.32201100  1
  C  808  1  0.96380600  0.37902800  0.33492500  1
  C  809  1  0.99385700  0.39747100  0.36140300  1
  C  810  1  0.99470200  0.42961100  0.37400200  1
  C  812  1  0.96614900  0.44352600  0.36071300  1
  C  815  1  0.96282500  0.34502600  0.32040900  1
  C  819  1  0.93564700  0.00393900  0.57354600  1
  C  820  1  0.93482700  0.02358900  0.60572200  1
  C  821  1  0.96371000  0.05102900  0.62025300  1
  C  822  1  0.99375100  0.05906600  0.60180800  1
  C  823  1  0.99458800  0.03952600  0.56966600  1
  C  825  1  0.96604800  0.01231500  0.55575200  1
  C  828  1  0.96274100  0.07051300  0.65425400  1
  C  832  1  0.43570000  0.39817500  0.94024500  1
  C  833  1  0.43488100  0.38564400  0.95989000  1
  C  834  1  0.46374300  0.39855700  0.98733600  1
  C  835  1  0.49378600  0.42503900  0.99538000  1
  C  836  1  0.49462300  0.43764400  0.97584300  1
  C  838  1  0.46608100  0.42435300  0.94863400  1
  C  841  1  0.46276000  0.38404100  0.00682100  1
  C  845  1  0.43565400  0.63718400  0.60103600  1
  C  846  1  0.43483500  0.66936000  0.61356300  1
  C  847  1  0.46371300  0.68388800  0.60065100  1
  C  848  1  0.49375100  0.66544400  0.57416900  1
  C  849  1  0.49458500  0.63330300  0.56156700  1
  C  851  1  0.46602400  0.61938800  0.57485300  1
  C  854  1  0.46274900  0.71789100  0.61517200  1
  C  858  1  0.43575300  0.05899100  0.36206200  1
  C  859  1  0.43493000  0.03934100  0.32988600  1
  C  860  1  0.46380000  0.01189800  0.31535400  1
  C  861  1  0.49386200  0.00386600  0.33379400  1
  C  862  1  0.49471900  0.02340800  0.36593400  1
  C  864  1  0.46616100  0.05061200  0.37985000  1
  C  867  1  0.46280200  0.99241000  0.28135400  1
  C  871  1  0.99275000  0.39959100  0.94020100  1
  C  872  1  0.99340600  0.38689400  0.95970900  1
  C  873  1  0.96469600  0.39979800  0.98721900  1
  C  874  1  0.93496000  0.42643300  0.99547100  1
  C  875  1  0.93429700  0.43921400  0.97608800  1
  C  877  1  0.96268500  0.42594000  0.94882200  1
  C  880  1  0.96564900  0.38519900  0.00662400  1
  C  884  1  0.99271700  0.63575000  0.59968200  1
  C  885  1  0.99336400  0.66795600  0.61237200  1
  C  886  1  0.96465700  0.68255500  0.59946000  1
  C  887  1  0.93494100  0.66416500  0.57281900  1
  C  888  1  0.93428800  0.63200000  0.56004200  1
  C  890  1  0.96268700  0.61801600  0.57331900  1
  C  893  1  0.96559200  0.71655900  0.61405800  1
  C  897  1  0.99280100  0.05903900  0.36347200  1
  C  898  1  0.99342800  0.03953700  0.33126300  1
  C  899  1  0.96473300  0.01202200  0.31666200  1
  C  900  1  0.93502600  0.00376200  0.33505000  1
  C  901  1  0.93437900  0.02314400  0.36721600  1
  C  903  1  0.96279000  0.05040100  0.38120600  1
  C  906  1  0.96566600  0.99262000  0.28265800  1
  C  910  1  0.49275400  0.66336400  0.99538400  1
  C  911  1  0.49339700  0.67606700  0.97587900  1
  C  912  1  0.46469500  0.66316200  0.94836800  1
  C  913  1  0.43497600  0.63651800  0.94010700  1
  C  914  1  0.43433300  0.62372600  0.95948200  1
  C  916  1  0.46273000  0.63699600  0.98674400  1
  C  919  1  0.46562800  0.67777000  0.92897000  1
  C  923  1  0.49281100  0.42714700  0.33590400  1
  C  924  1  0.49345000  0.39494100  0.32321200  1
  C  925  1  0.46473700  0.38034500  0.33612200  1
  C  926  1  0.43502600  0.39873800  0.36276700  1
  C  927  1  0.43438200  0.43090300  0.37554400  1
  C  929  1  0.46277600  0.44488500  0.36226200  1
  C  932  1  0.46566200  0.34634000  0.32152600  1
  C  936  1  0.49269600  0.00384400  0.57208800  1
  C  937  1  0.49333200  0.02335600  0.60429400  1
  C  938  1  0.46464200  0.05087200  0.61889200  1
  C  939  1  0.43492700  0.05912600  0.60050200  1
  C  940  1  0.43427500  0.03973600  0.56833500  1
  C  942  1  0.46266500  0.01247100  0.55435300  1
  C  945  1  0.46558600  0.07028600  0.65289600  1
  C  949  1  0.94763100  0.64526700  0.13631900  1
  C  950  1  0.90728300  0.63883900  0.15078900  1
  C  951  1  0.90484200  0.61085400  0.15098200  1
  C  952  1  0.94473600  0.58903200  0.13665500  1
  C  953  1  0.98536400  0.59569400  0.12247000  1
  C  955  1  0.98665900  0.62341200  0.12211100  1
  C  958  1  0.85952200  0.60450500  0.16475200  1
  C  962  1  0.94756700  0.58616400  0.35399400  1
  C  963  1  0.90719900  0.60705400  0.36044100  1
  C  964  1  0.90479800  0.63524800  0.38841000  1
  C  965  1  0.94472300  0.64275300  0.41021400  1
  C  966  1  0.98533600  0.62189600  0.40355300  1
  C  968  1  0.98661400  0.59381700  0.37583800  1
  C  971  1  0.85950700  0.65538800  0.39475800  1
  C  975  1  0.94748600  0.86297600  0.41313300  1
  C  976  1  0.90714500  0.84851200  0.39222900  1
  C  977  1  0.90474400  0.84830000  0.36404300  1
  C  978  1  0.94467100  0.86260400  0.35654200  1
  C  979  1  0.98528600  0.87678900  0.37740000  1
  C  981  1  0.98655600  0.87715300  0.40547900  1
  C  984  1  0.85945200  0.83451100  0.34390100  1
  C  988  1  0.44753500  0.41764000  0.79927200  1
  C  989  1  0.40718800  0.42407300  0.78480600  1
  C  990  1  0.40474700  0.45205800  0.78461500  1
  C  991  1  0.44464900  0.47387600  0.79893600  1
  C  992  1  0.48528200  0.46720800  0.81311200  1
  C  994  1  0.48657300  0.43949000  0.81346900  1
  C  997  1  0.35943000  0.45841000  0.77084200  1
  C  1001  1  0.44753200  0.47678600  0.58161900  1
  C  1002  1  0.40718000  0.45588900  0.57517900  1
  C  1003  1  0.40478500  0.42769200  0.54721300  1
  C  1004  1  0.44471400  0.42018400  0.52541000  1
  C  1005  1  0.48533900  0.44103500  0.53207900  1
  C  1007  1  0.48658800  0.46912900  0.55977900  1
  C  1010  1  0.35949100  0.40755400  0.54086500  1
  C  1014  1  0.44755500  0.19997000  0.52249300  1
  C  1015  1  0.40720700  0.21442800  0.54339600  1
  C  1016  1  0.40479700  0.21463900  0.57158300  1
  C  1017  1  0.44470600  0.20031600  0.57907200  1
  C  1018  1  0.48531200  0.18611600  0.55821000  1
  C  1020  1  0.48659200  0.18576400  0.53013800  1
  C  1023  1  0.35949500  0.22841800  0.59171700  1
  C  1027  1  0.98046600  0.47696100  0.79941100  1
  C  1028  1  0.02093400  0.45624100  0.78465400  1
  C  1029  1  0.02410700  0.42801500  0.78432400  1
  C  1030  1  0.98482900  0.42027700  0.79881100  1
  C  1031  1  0.94403800  0.44092400  0.81325000  1
  C  1033  1  0.94201400  0.46904800  0.81373400  1
  C  1036  1  0.06953000  0.40809200  0.77023300  1
  C  1040  1  0.98047600  0.19981900  0.58165500  1
  C  1041  1  0.02096900  0.21454600  0.57567100  1
  C  1042  1  0.02412200  0.21489600  0.54778500  1
  C  1043  1  0.98483900  0.20041200  0.52556300  1
  C  1044  1  0.94407200  0.18595100  0.53176100  1
  C  1046  1  0.94204700  0.18547600  0.55940700  1
  C  1049  1  0.06952600  0.22900600  0.54195900  1
  C  1053  1  0.98044500  0.41756600  0.52227300  1
  C  1054  1  0.02092700  0.42352700  0.54298600  1
  C  1055  1  0.02410700  0.45142100  0.57121400  1
  C  1056  1  0.98483600  0.47365400  0.57896400  1
  C  1057  1  0.94405300  0.46745600  0.55831400  1
  C  1059  1  0.94202500  0.43982000  0.53018300  1
  C  1062  1  0.06954500  0.45724900  0.59112600  1
  C  1066  1  0.48047200  0.58593900  0.13615100  1
  C  1067  1  0.52098300  0.60664100  0.15086500  1
  C  1068  1  0.52412900  0.63488200  0.15122600  1
  C  1069  1  0.48482100  0.64263800  0.13676800  1
  C  1070  1  0.44404000  0.62198500  0.12232100  1
  C  1072  1  0.44202500  0.59385400  0.12182700  1
  C  1075  1  0.56954900  0.65480800  0.16531700  1
  C  1079  1  0.48056400  0.86309000  0.35389700  1
  C  1080  1  0.52104400  0.84835000  0.35986800  1
  C  1081  1  0.52420100  0.84800300  0.38775700  1
  C  1082  1  0.48490900  0.86247100  0.40997700  1
  C  1083  1  0.44412300  0.87691400  0.40376800  1
  C  1085  1  0.44209700  0.87739900  0.37612700  1
  C  1088  1  0.56962100  0.83390600  0.39358700  1
  C  1092  1  0.48049100  0.64531600  0.41326500  1
  C  1093  1  0.52097200  0.63934600  0.39254900  1
  C  1094  1  0.52415900  0.61144500  0.36432900  1
  C  1095  1  0.48488200  0.58921700  0.35658600  1
  C  1096  1  0.44408500  0.59542500  0.37722900  1
  C  1098  1  0.44206300  0.62306600  0.40535600  1
  C  1101  1  0.56958700  0.60561300  0.34440900  1
  O  17  1  0.92132300  0.64184600  0.08058900  1
  O  18  1  0.81521300  0.70687000  0.10124400  1
  O  37  1  0.92128300  0.53384100  0.35741600  1
  O  38  1  0.81519100  0.48946400  0.29240800  1
  O  57  1  0.92120400  0.91870700  0.46545100  1
  O  58  1  0.81511100  0.89806600  0.50982200  1
  O  77  1  0.42124800  0.42106100  0.85501600  1
  O  78  1  0.31516800  0.35605900  0.83437400  1
  O  97  1  0.42125500  0.52910800  0.57820700  1
  O  98  1  0.31515600  0.57348100  0.64322100  1
  O  117  1  0.42127800  0.14422000  0.47016700  1
  O  118  1  0.31518700  0.16485200  0.42579400  1
  O  137  1  0.00570600  0.52941700  0.85527200  1
  O  138  1  0.11196800  0.57227000  0.83409500  1
  O  157  1  0.00572100  0.14396000  0.57826600  1
  O  158  1  0.11192300  0.16517200  0.64230400  1
  O  177  1  0.00573200  0.42097200  0.46982700  1
  O  178  1  0.11196500  0.35693400  0.42700500  1
  O  197  1  0.50572400  0.53347500  0.08027900  1
  O  198  1  0.61194100  0.49064900  0.10149200  1
  O  217  1  0.50579600  0.91894900  0.35729800  1
  O  218  1  0.61200200  0.89773700  0.29325100  1
  O  237  1  0.50572000  0.64190900  0.46573100  1
  O  238  1  0.61193000  0.70595200  0.50856600  1
  O  257  1  0.01186700  0.42366000  0.85451900  1
  O  258  1  0.11391400  0.35893200  0.83476600  1
  O  277  1  0.01187100  0.52599200  0.57558700  1
  O  278  1  0.11388400  0.57095600  0.64031900  1
  O  297  1  0.01191700  0.14470900  0.47323400  1
  O  298  1  0.11395200  0.16447700  0.42827400  1
  O  317  1  0.51185500  0.63925400  0.08104800  1
  O  318  1  0.61386100  0.70397100  0.10083300  1
  O  337  1  0.51192400  0.53688900  0.35996600  1
  O  338  1  0.61397500  0.49191800  0.29523300  1
  O  357  1  0.51191600  0.91818900  0.46232100  1
  O  358  1  0.61390200  0.89842700  0.50729400  1
  O  377  1  0.91878000  0.53660200  0.08081400  1
  O  378  1  0.81657800  0.49340400  0.10117900  1
  O  397  1  0.91874500  0.91845200  0.35994300  1
  O  398  1  0.81665200  0.89806700  0.29636700  1
  O  417  1  0.91875800  0.63932800  0.46263400  1
  O  418  1  0.81657900  0.70287700  0.50582800  1
  O  437  1  0.41870800  0.52631500  0.85478700  1
  O  438  1  0.31658400  0.56949700  0.83441800  1
  O  457  1  0.41874200  0.14447000  0.57565500  1
  O  458  1  0.31657300  0.16483800  0.63921800  1
  O  477  1  0.41879200  0.42361100  0.47297400  1
  O  478  1  0.31666400  0.36005500  0.42978600  1
