# generated using pymatgen
data_H17C32(N3O)2
_symmetry_space_group_name_H-M   'P 1'
_cell_length_a   25.72570000
_cell_length_b   25.72570000
_cell_length_c   102.90400000
_cell_angle_alpha   90.00000000
_cell_angle_beta   90.00000000
_cell_angle_gamma   90.00000000
_symmetry_Int_Tables_number   1
_chemical_formula_structural   H17C32(N3O)2
_chemical_formula_sum   'H272 C512 N96 O32'
_cell_volume   68103.06505298
_cell_formula_units_Z   16
loop_
 _symmetry_equiv_pos_site_id
 _symmetry_equiv_pos_as_xyz
  1  'x, y, z'
loop_
 _atom_site_type_symbol
 _atom_site_label
 _atom_site_symmetry_multiplicity
 _atom_site_fract_x
 _atom_site_fract_y
 _atom_site_fract_z
 _atom_site_occupancy
  H  49  1  0.91003800  0.29646100  0.14417700  1
  H  50  1  0.92107000  0.20455000  0.14312300  1
  H  51  1  0.06965700  0.31723800  0.13592600  1
  H  52  1  0.08046700  0.22471600  0.13497000  1
  H  53  1  0.00463200  0.18942400  0.11280100  1
  H  54  1  0.00536300  0.12143400  0.09504800  1
  H  55  1  0.01174500  0.04655300  0.12999500  1
  H  56  1  0.01112300  0.98062500  0.14576500  1
  H  57  1  0.00511400  0.18643700  0.16517500  1
  H  58  1  0.00434800  0.11520900  0.18224100  1
  H  59  1  0.92114000  0.99173800  0.18555400  1
  H  60  1  0.90963700  0.98799900  0.20851100  1
  H  61  1  0.07994000  0.02669800  0.19076000  1
  H  62  1  0.06864400  0.02354800  0.21386500  1
  H  63  1  0.00535500  0.90570000  0.18071300  1
  H  64  1  0.00455400  0.83772500  0.16295600  1
  H  65  1  0.00470600  0.91196200  0.09351600  1
  H  66  1  0.00519200  0.84073800  0.11058300  1
  H  67  1  0.08033500  0.80259300  0.14078700  1
  H  68  1  0.06975400  0.71006300  0.13971700  1
  H  69  1  0.92094900  0.82252600  0.13257800  1
  H  70  1  0.91015400  0.73058300  0.13140900  1
  H  71  1  0.92116300  0.03469200  0.09021800  1
  H  72  1  0.90980500  0.03935400  0.06725800  1
  H  73  1  0.06914600  0.00542100  0.06189000  1
  H  74  1  0.08027500  0.00118800  0.08499500  1
  H  79  1  0.94934900  0.64544700  0.12950700  1
  H  80  1  0.94367700  0.99397300  0.23006500  1
  H  81  1  0.94838900  0.38179300  0.14571500  1
  H  82  1  0.94659300  0.04245400  0.04578100  1
  H  131  1  0.72958800  0.91003400  0.64412200  1
  H  132  1  0.82150000  0.92106200  0.64306900  1
  H  133  1  0.70881500  0.06967900  0.63590600  1
  H  134  1  0.80133700  0.08048800  0.63495100  1
  H  135  1  0.83676100  0.00475600  0.61276600  1
  H  136  1  0.90483700  0.00548700  0.59503600  1
  H  137  1  0.97954800  0.01151200  0.63000800  1
  H  138  1  0.04539400  0.01119300  0.64579700  1
  H  139  1  0.83949400  0.00500900  0.66514300  1
  H  140  1  0.91064400  0.00420800  0.68223000  1
  H  141  1  0.03413100  0.92110500  0.68558400  1
  H  142  1  0.03782100  0.90963000  0.70854000  1
  H  143  1  0.99910400  0.07990200  0.69077300  1
  H  144  1  0.00221000  0.06863200  0.71388000  1
  H  145  1  0.12015600  0.00533100  0.68076500  1
  H  146  1  0.18821800  0.00463600  0.66303000  1
  H  147  1  0.11432000  0.00460800  0.59357000  1
  H  148  1  0.18546100  0.00515700  0.61065800  1
  H  149  1  0.22348400  0.08038800  0.64082400  1
  H  150  1  0.31600800  0.06979000  0.63973800  1
  H  151  1  0.20350200  0.92094500  0.63268800  1
  H  152  1  0.29543800  0.91013500  0.63150200  1
  H  153  1  0.99125200  0.92139600  0.59017200  1
  H  154  1  0.98642800  0.91040700  0.56719800  1
  H  155  1  0.02105400  0.06965800  0.56195800  1
  H  156  1  0.02546300  0.08043500  0.58508000  1
  H  161  1  0.38056200  0.94934500  0.62954500  1
  H  162  1  0.03174000  0.94367700  0.73009100  1
  H  163  1  0.64426900  0.94839200  0.64568100  1
  H  164  1  0.98065600  0.94873100  0.54584500  1
  H  213  1  0.11554900  0.29667200  0.88162500  1
  H  214  1  0.10444200  0.20476800  0.88267000  1
  H  215  1  0.95597600  0.31757300  0.88991100  1
  H  216  1  0.94508800  0.22506100  0.89085800  1
  H  217  1  0.02104000  0.18968400  0.91300900  1
  H  218  1  0.02043400  0.12167400  0.93075700  1
  H  219  1  0.01384000  0.04683400  0.89580700  1
  H  220  1  0.01408200  0.98092400  0.88003100  1
  H  221  1  0.02025900  0.18676200  0.86063400  1
  H  222  1  0.02095700  0.11554900  0.84356200  1
  H  223  1  0.10429200  0.99222000  0.84025700  1
  H  224  1  0.11577900  0.98813100  0.81730600  1
  H  225  1  0.94541900  0.02680500  0.83502600  1
  H  226  1  0.95669900  0.02328200  0.81192100  1
  H  227  1  0.02025200  0.90604200  0.84508000  1
  H  228  1  0.02110400  0.83805200  0.86283100  1
  H  229  1  0.02087900  0.91219900  0.93227500  1
  H  230  1  0.02029700  0.84099000  0.91520200  1
  H  231  1  0.94522800  0.80284600  0.88501000  1
  H  232  1  0.95586000  0.71032300  0.88607500  1
  H  233  1  0.10462900  0.82285700  0.89319300  1
  H  234  1  0.11547300  0.73092500  0.89435600  1
  H  235  1  0.10457200  0.03486000  0.93556400  1
  H  236  1  0.11600400  0.03946300  0.95852300  1
  H  237  1  0.95664900  0.00565800  0.96391600  1
  H  238  1  0.94544600  0.00147900  0.94081300  1
  H  243  1  0.07632500  0.64576600  0.89626300  1
  H  244  1  0.08143000  0.99250000  0.79576400  1
  H  245  1  0.07730800  0.38204500  0.88012200  1
  H  246  1  0.07927900  0.04254100  0.98000500  1
  H  295  1  0.29652200  0.91000300  0.38160500  1
  H  296  1  0.20461000  0.92099200  0.38266100  1
  H  297  1  0.31724400  0.06953500  0.38996500  1
  H  298  1  0.22471700  0.08030600  0.39092200  1
  H  299  1  0.18928700  0.00433600  0.41304200  1
  H  300  1  0.12119600  0.00499700  0.43076800  1
  H  301  1  0.04652000  0.01147300  0.39579600  1
  H  302  1  0.98069100  0.01132500  0.38000300  1
  H  303  1  0.18662000  0.00532000  0.36066400  1
  H  304  1  0.11548500  0.00469000  0.34357100  1
  H  305  1  0.99218500  0.92127200  0.34021600  1
  H  306  1  0.98815400  0.90986700  0.31726200  1
  H  307  1  0.02672400  0.08017500  0.33502600  1
  H  308  1  0.02325800  0.06897700  0.31191700  1
  H  309  1  0.90597200  0.00540100  0.34502800  1
  H  310  1  0.83789600  0.00454600  0.36275800  1
  H  311  1  0.91169800  0.00430900  0.43222300  1
  H  312  1  0.84057800  0.00492300  0.41512800  1
  H  313  1  0.80260800  0.08030900  0.38501000  1
  H  314  1  0.71008200  0.06971600  0.38609200  1
  H  315  1  0.82256900  0.92078600  0.39304900  1
  H  316  1  0.73063000  0.90997600  0.39422900  1
  H  317  1  0.03473500  0.92111600  0.43566100  1
  H  318  1  0.03976500  0.91032200  0.45864400  1
  H  319  1  0.00523400  0.06962500  0.46381500  1
  H  320  1  0.00062400  0.08021100  0.44069000  1
  H  325  1  0.64552500  0.94921600  0.39623200  1
  H  326  1  0.99259700  0.94427200  0.29573100  1
  H  327  1  0.38183000  0.94838500  0.38009200  1
  H  328  1  0.04673800  0.94937600  0.47996100  1
  H  341  1  0.89489300  0.89561300  0.26270700  1
  H  342  1  0.12727500  0.12675700  0.26304900  1
  H  357  1  0.13017100  0.89492500  0.76272900  1
  H  358  1  0.89901000  0.12729200  0.76306500  1
  H  373  1  0.17664700  0.01126700  0.01445800  1
  H  374  1  0.84920800  0.01119700  0.01133500  1
  H  389  1  0.01219600  0.17363700  0.51306600  1
  H  390  1  0.01373400  0.84587600  0.51270600  1
  H  405  1  0.17362600  0.51286400  0.13806100  1
  H  406  1  0.84586900  0.51448100  0.13761000  1
  H  421  1  0.51317100  0.17364400  0.63806100  1
  H  422  1  0.51156100  0.84588400  0.63761000  1
  H  437  1  0.85202600  0.51315500  0.88773400  1
  H  438  1  0.17978400  0.51477600  0.88818200  1
  H  453  1  0.51293400  0.17355700  0.38774300  1
  H  454  1  0.51449200  0.84579900  0.38818400  1
  H  505  1  0.22101100  0.60743400  0.18304800  1
  H  506  1  0.23204300  0.51552300  0.18199400  1
  H  507  1  0.38063000  0.62821100  0.17479700  1
  H  508  1  0.39144000  0.53568900  0.17384100  1
  H  509  1  0.31560500  0.50039700  0.15167200  1
  H  510  1  0.31633600  0.43240700  0.13391900  1
  H  511  1  0.32271800  0.35752600  0.16886600  1
  H  512  1  0.32209600  0.29159800  0.18463600  1
  H  513  1  0.31608700  0.49741000  0.20404600  1
  H  514  1  0.31532100  0.42618200  0.22111200  1
  H  515  1  0.23211300  0.30271100  0.22442500  1
  H  516  1  0.22061000  0.29897200  0.24738200  1
  H  517  1  0.39091300  0.33767100  0.22963100  1
  H  518  1  0.37961700  0.33452100  0.25273600  1
  H  519  1  0.31632800  0.21667300  0.21958400  1
  H  520  1  0.31552700  0.14869800  0.20182700  1
  H  521  1  0.31567900  0.22293500  0.13238700  1
  H  522  1  0.31616500  0.15171100  0.14945400  1
  H  523  1  0.39130800  0.11356600  0.17965800  1
  H  524  1  0.38072700  0.02103610  0.17858800  1
  H  525  1  0.23192200  0.13349900  0.17144900  1
  H  526  1  0.22112700  0.04155610  0.17028000  1
  H  527  1  0.23213600  0.34566500  0.12908900  1
  H  528  1  0.22077800  0.35032700  0.10612900  1
  H  529  1  0.38011900  0.31639400  0.10076100  1
  H  530  1  0.39124800  0.31216100  0.12386600  1
  H  535  1  0.26032200  0.95642000  0.16837800  1
  H  536  1  0.25465000  0.30494600  0.26893600  1
  H  537  1  0.25936200  0.69276600  0.18458600  1
  H  538  1  0.25756600  0.35342700  0.08465230  1
  H  587  1  0.04056110  0.22100700  0.68299300  1
  H  588  1  0.13247300  0.23203500  0.68194000  1
  H  589  1  0.01978810  0.38065200  0.67477700  1
  H  590  1  0.11231000  0.39146100  0.67382200  1
  H  591  1  0.14773400  0.31572900  0.65163700  1
  H  592  1  0.21581000  0.31646000  0.63390700  1
  H  593  1  0.29052100  0.32248500  0.66887900  1
  H  594  1  0.35636700  0.32216600  0.68466800  1
  H  595  1  0.15046700  0.31598200  0.70401400  1
  H  596  1  0.22161700  0.31518100  0.72110100  1
  H  597  1  0.34510400  0.23207800  0.72445500  1
  H  598  1  0.34879400  0.22060300  0.74741100  1
  H  599  1  0.31007700  0.39087500  0.72964400  1
  H  600  1  0.31318300  0.37960500  0.75275100  1
  H  601  1  0.43112900  0.31630400  0.71963600  1
  H  602  1  0.49919100  0.31560900  0.70190100  1
  H  603  1  0.42529300  0.31558100  0.63244100  1
  H  604  1  0.49643400  0.31613000  0.64952900  1
  H  605  1  0.53445700  0.39136100  0.67969500  1
  H  606  1  0.62698100  0.38076300  0.67860900  1
  H  607  1  0.51447500  0.23191800  0.67155900  1
  H  608  1  0.60641100  0.22110800  0.67037300  1
  H  609  1  0.30222500  0.23236900  0.62904300  1
  H  610  1  0.29740100  0.22138000  0.60606900  1
  H  611  1  0.33202700  0.38063100  0.60082900  1
  H  612  1  0.33643600  0.39140800  0.62395100  1
  H  617  1  0.69153500  0.26031800  0.66841600  1
  H  618  1  0.34271300  0.25465000  0.76896200  1
  H  619  1  0.95524200  0.25936500  0.68455200  1
  H  620  1  0.29162900  0.25970400  0.58471600  1
  H  669  1  0.42652200  0.60764500  0.92049600  1
  H  670  1  0.41541500  0.51574100  0.92154100  1
  H  671  1  0.26694900  0.62854600  0.92878200  1
  H  672  1  0.25606100  0.53603400  0.92972900  1
  H  673  1  0.33201300  0.50065700  0.95188000  1
  H  674  1  0.33140700  0.43264700  0.96962800  1
  H  675  1  0.32481300  0.35780700  0.93467800  1
  H  676  1  0.32505500  0.29189700  0.91890200  1
  H  677  1  0.33123200  0.49773500  0.89950500  1
  H  678  1  0.33193000  0.42652200  0.88243300  1
  H  679  1  0.41526500  0.30319300  0.87912800  1
  H  680  1  0.42675200  0.29910400  0.85617700  1
  H  681  1  0.25639200  0.33777800  0.87389700  1
  H  682  1  0.26767200  0.33425500  0.85079200  1
  H  683  1  0.33122500  0.21701500  0.88395100  1
  H  684  1  0.33207700  0.14902500  0.90170200  1
  H  685  1  0.33185200  0.22317200  0.97114600  1
  H  686  1  0.33127000  0.15196300  0.95407300  1
  H  687  1  0.25620100  0.11381900  0.92388100  1
  H  688  1  0.26683300  0.02129610  0.92494600  1
  H  689  1  0.41560200  0.13383000  0.93206400  1
  H  690  1  0.42644600  0.04189810  0.93322700  1
  H  691  1  0.41554500  0.34583300  0.97443500  1
  H  692  1  0.42697700  0.35043600  0.99739400  1
  H  693  1  0.26762200  0.31663100  0.00278733  1
  H  694  1  0.25641900  0.31245200  0.97968400  1
  H  699  1  0.38729800  0.95673900  0.93513400  1
  H  700  1  0.39240300  0.30347300  0.83463500  1
  H  701  1  0.38828100  0.69301800  0.91899300  1
  H  702  1  0.39025200  0.35351400  0.01887630  1
  H  751  1  0.60749500  0.22097600  0.42047600  1
  H  752  1  0.51558300  0.23196500  0.42153200  1
  H  753  1  0.62821700  0.38050800  0.42883600  1
  H  754  1  0.53569000  0.39127900  0.42979300  1
  H  755  1  0.50026000  0.31530900  0.45191300  1
  H  756  1  0.43216900  0.31597000  0.46963900  1
  H  757  1  0.35749300  0.32244600  0.43466700  1
  H  758  1  0.29166400  0.32229800  0.41887400  1
  H  759  1  0.49759300  0.31629300  0.39953500  1
  H  760  1  0.42645800  0.31566300  0.38244200  1
  H  761  1  0.30315800  0.23224500  0.37908700  1
  H  762  1  0.29912700  0.22084000  0.35613300  1
  H  763  1  0.33769700  0.39114800  0.37389700  1
  H  764  1  0.33423100  0.37995000  0.35078800  1
  H  765  1  0.21694500  0.31637400  0.38389900  1
  H  766  1  0.14886900  0.31551900  0.40162900  1
  H  767  1  0.22267100  0.31528200  0.47109400  1
  H  768  1  0.15155100  0.31589600  0.45399900  1
  H  769  1  0.11358100  0.39128200  0.42388100  1
  H  770  1  0.02105510  0.38068900  0.42496300  1
  H  771  1  0.13354200  0.23175900  0.43192000  1
  H  772  1  0.04160310  0.22094900  0.43310000  1
  H  773  1  0.34570800  0.23208900  0.47453200  1
  H  774  1  0.35073800  0.22129500  0.49751500  1
  H  775  1  0.31620700  0.38059800  0.50268600  1
  H  776  1  0.31159700  0.39118400  0.47956100  1
  H  781  1  0.95649800  0.26018900  0.43510300  1
  H  782  1  0.30357000  0.25524500  0.33460200  1
  H  783  1  0.69280300  0.25935800  0.41896300  1
  H  784  1  0.35771100  0.26034900  0.51883200  1
  H  797  1  0.20586600  0.20658600  0.30157800  1
  H  798  1  0.43824800  0.43773000  0.30192000  1
  H  813  1  0.44114400  0.20589800  0.80160000  1
  H  814  1  0.20998300  0.43826500  0.80193600  1
  H  829  1  0.48762000  0.32224000  0.05332930  1
  H  830  1  0.16018100  0.32217000  0.05020630  1
  H  845  1  0.32316900  0.48461000  0.55193700  1
  H  846  1  0.32470700  0.15684900  0.55157700  1
  H  861  1  0.48459900  0.82383700  0.17693200  1
  H  862  1  0.15684200  0.82545400  0.17648100  1
  H  877  1  0.82414400  0.48461700  0.67693200  1
  H  878  1  0.82253400  0.15685700  0.67648100  1
  H  893  1  0.16299900  0.82412800  0.92660500  1
  H  894  1  0.49075700  0.82574900  0.92705300  1
  H  909  1  0.82390700  0.48453000  0.42661400  1
  H  910  1  0.82546500  0.15677200  0.42705500  1
  C  1  1  0.00661800  0.15029100  0.11444600  1
  C  2  1  0.00691000  0.11316100  0.10475600  1
  C  3  1  0.00855800  0.06406100  0.11056000  1
  C  5  1  0.00863200  0.12498000  0.12645000  1
  C  6  1  0.00772600  0.15038500  0.13876400  1
  C  7  1  0.00823100  0.12404600  0.15093300  1
  C  9  1  0.00825100  0.06095200  0.16606100  1
  C  10  1  0.00622600  0.10881200  0.17245000  1
  C  11  1  0.00660300  0.14755400  0.16316400  1
  C  12  1  0.00760900  0.01119300  0.17209800  1
  C  13  1  0.00836000  0.96309000  0.16520100  1
  C  15  1  0.00843300  0.90218600  0.14931000  1
  C  16  1  0.00656800  0.87685700  0.16131400  1
  C  17  1  0.00684400  0.91398300  0.17100400  1
  C  18  1  0.00750400  0.87679900  0.13699500  1
  C  19  1  0.00821600  0.90313000  0.12482900  1
  C  21  1  0.00849600  0.96620700  0.10970000  1
  C  22  1  0.00652500  0.91835200  0.10330900  1
  C  23  1  0.00672300  0.87961700  0.11259600  1
  C  24  1  0.00779600  0.01595500  0.10366200  1
  C  25  1  0.00184100  0.01765100  0.08981400  1
  C  26  1  0.04414800  0.00901300  0.08131200  1
  C  27  1  0.03744000  0.01142300  0.06770600  1
  C  28  1  0.98829800  0.02281200  0.06214600  1
  C  29  1  0.94612200  0.03104200  0.07077500  1
  C  30  1  0.95264500  0.02832000  0.08433700  1
  C  31  1  0.00168900  0.82137600  0.13677900  1
  C  32  1  0.04422900  0.78763500  0.13891700  1
  C  33  1  0.03786300  0.73316800  0.13831200  1
  C  34  1  0.98884200  0.71069300  0.13547900  1
  C  35  1  0.94637100  0.74490400  0.13349200  1
  C  36  1  0.95255600  0.79918800  0.13418400  1
  C  37  1  0.00166600  0.00947500  0.18594800  1
  C  38  1  0.95254800  0.99851000  0.19143100  1
  C  39  1  0.94594700  0.99634800  0.20499600  1
  C  40  1  0.98793300  0.00551400  0.21363000  1
  C  41  1  0.03708800  0.01673800  0.20805600  1
  C  42  1  0.04387700  0.01861300  0.19444700  1
  C  43  1  0.00184900  0.20580700  0.13897300  1
  C  44  1  0.95264500  0.22792900  0.14151900  1
  C  45  1  0.04432100  0.23962000  0.13681700  1
  C  46  1  0.03781400  0.29408500  0.13735100  1
  C  47  1  0.98871400  0.31650700  0.14013200  1
  C  48  1  0.94632100  0.28220900  0.14213700  1
  C  75  1  0.98113000  0.65715500  0.13416500  1
  C  76  1  0.97932600  0.00283200  0.22704800  1
  C  77  1  0.98077600  0.37007300  0.14133100  1
  C  78  1  0.98003000  0.02715900  0.04874700  1
  C  83  1  0.87587700  0.00691400  0.61442300  1
  C  84  1  0.91305800  0.00723600  0.60474500  1
  C  85  1  0.96213300  0.00870600  0.61056500  1
  C  87  1  0.90112800  0.00880300  0.62643600  1
  C  88  1  0.87567100  0.00774900  0.63874300  1
  C  89  1  0.90195300  0.00820800  0.65091900  1
  C  91  1  0.96497500  0.00819200  0.66606600  1
  C  92  1  0.91708500  0.00611700  0.67244000  1
  C  93  1  0.87838900  0.00647000  0.66314300  1
  C  94  1  0.01470400  0.00753900  0.67211900  1
  C  95  1  0.06284000  0.00838300  0.66523700  1
  C  97  1  0.12381800  0.00848400  0.64936500  1
  C  98  1  0.14909000  0.00661800  0.66137600  1
  C  99  1  0.11192200  0.00696000  0.67105500  1
  C  100  1  0.14926400  0.00758200  0.63705800  1
  C  101  1  0.12299400  0.00815000  0.62488300  1
  C  103  1  0.05999600  0.00838700  0.60973800  1
  C  104  1  0.10787900  0.00635800  0.60336100  1
  C  105  1  0.14656800  0.00657500  0.61265900  1
  C  106  1  0.01028000  0.00780800  0.60368500  1
  C  107  1  0.00865900  0.00200400  0.58983300  1
  C  108  1  0.01752600  0.04438500  0.58136700  1
  C  109  1  0.01505700  0.03789300  0.56775400  1
  C  110  1  0.00335700  0.98890000  0.56216400  1
  C  111  1  0.99498000  0.94661600  0.57075100  1
  C  112  1  0.99781800  0.95291300  0.58431800  1
  C  113  1  0.20467900  0.00171300  0.63685800  1
  C  114  1  0.23843200  0.04426500  0.63896900  1
  C  115  1  0.29289200  0.03788900  0.63835400  1
  C  116  1  0.31534900  0.98885000  0.63553200  1
  C  117  1  0.28113000  0.94635900  0.63357800  1
  C  118  1  0.22684900  0.95255900  0.63427700  1
  C  119  1  0.01636400  0.00162700  0.68596900  1
  C  120  1  0.02733600  0.95252100  0.69145700  1
  C  121  1  0.02946300  0.94593200  0.70502200  1
  C  122  1  0.02027300  0.98792500  0.71365200  1
  C  123  1  0.00903600  0.03707000  0.70807300  1
  C  124  1  0.00719000  0.04384600  0.69446400  1
  C  125  1  0.82024800  0.00185200  0.63893300  1
  C  126  1  0.79812300  0.95264500  0.64146900  1
  C  127  1  0.78643400  0.04433600  0.63679000  1
  C  128  1  0.73196700  0.03782900  0.63732400  1
  C  129  1  0.70954200  0.98872200  0.64009400  1
  C  130  1  0.74384200  0.94632100  0.64208900  1
  C  157  1  0.36887800  0.98113000  0.63420400  1
  C  158  1  0.02292700  0.97933000  0.72707100  1
  C  159  1  0.65598100  0.98078800  0.64130100  1
  C  160  1  0.99844700  0.98097800  0.54877500  1
  C  165  1  0.01897200  0.15055600  0.91136300  1
  C  166  1  0.01865100  0.11341800  0.92105100  1
  C  167  1  0.01704600  0.06432400  0.91524300  1
  C  169  1  0.01687200  0.12526000  0.89935600  1
  C  170  1  0.01773700  0.15067300  0.88704400  1
  C  171  1  0.01719900  0.12435400  0.87487300  1
  C  173  1  0.01709900  0.06127900  0.85973900  1
  C  174  1  0.01912900  0.10914400  0.85335300  1
  C  175  1  0.01882400  0.14787500  0.86264200  1
  C  176  1  0.01777300  0.01152400  0.85369900  1
  C  177  1  0.01709400  0.96341600  0.86059400  1
  C  179  1  0.01711600  0.90249700  0.87648100  1
  C  180  1  0.01907100  0.87718400  0.86447600  1
  C  181  1  0.01869400  0.91431400  0.85478900  1
  C  182  1  0.01801600  0.87708600  0.88879300  1
  C  183  1  0.01743300  0.90340600  0.90096200  1
  C  185  1  0.01725700  0.96646400  0.91609300  1
  C  186  1  0.01920000  0.91860500  0.92248100  1
  C  187  1  0.01894500  0.87987700  0.91319300  1
  C  188  1  0.01787500  0.01620600  0.92213500  1
  C  189  1  0.02388100  0.01789100  0.93598200  1
  C  190  1  0.98159300  0.00926900  0.94449000  1
  C  191  1  0.98834100  0.01165200  0.95809500  1
  C  192  1  0.03751200  0.02298200  0.96364800  1
  C  193  1  0.07966900  0.03119500  0.95501100  1
  C  194  1  0.07310500  0.02850000  0.94145000  1
  C  195  1  0.02387700  0.82167100  0.88900400  1
  C  196  1  0.98134800  0.78790700  0.88687100  1
  C  197  1  0.98775400  0.73344400  0.88746600  1
  C  198  1  0.03678900  0.71099200  0.89029500  1
  C  199  1  0.07924600  0.74522600  0.89227600  1
  C  200  1  0.07303400  0.79950700  0.89158500  1
  C  201  1  0.02373500  0.00981700  0.83985000  1
  C  202  1  0.07287200  0.99887900  0.83437600  1
  C  203  1  0.07946300  0.99650800  0.82081300  1
  C  204  1  0.03744600  0.00542500  0.81217300  1
  C  205  1  0.98828600  0.01670000  0.81773700  1
  C  206  1  0.98150300  0.01877700  0.83134500  1
  C  207  1  0.02367800  0.20609000  0.88683800  1
  C  208  1  0.07289000  0.22817300  0.88428300  1
  C  209  1  0.98124300  0.23993600  0.88900600  1
  C  210  1  0.98778900  0.29439600  0.88846900  1
  C  211  1  0.03690400  0.31678300  0.88568800  1
  C  212  1  0.07925800  0.28244900  0.88366700  1
  C  239  1  0.04452500  0.65745800  0.89161000  1
  C  240  1  0.04601600  0.00231900  0.79875900  1
  C  241  1  0.04488000  0.37034400  0.88448900  1
  C  242  1  0.04581400  0.02729700  0.97704100  1
  C  247  1  0.15016600  0.00637300  0.41138300  1
  C  248  1  0.11297800  0.00666100  0.42105900  1
  C  249  1  0.06390900  0.00826200  0.41523700  1
  C  251  1  0.12492900  0.00843700  0.39936900  1
  C  252  1  0.15040900  0.00759000  0.38706400  1
  C  253  1  0.12414400  0.00820400  0.37488700  1
  C  255  1  0.06114000  0.00837500  0.35973500  1
  C  256  1  0.10903600  0.00645500  0.35336200  1
  C  257  1  0.14772200  0.00666500  0.36266200  1
  C  258  1  0.01141500  0.00772200  0.35368000  1
  C  259  1  0.96327200  0.00845300  0.36056000  1
  C  261  1  0.90227500  0.00843700  0.37642800  1
  C  262  1  0.87702000  0.00654000  0.36441500  1
  C  263  1  0.91420100  0.00692900  0.35473900  1
  C  264  1  0.87681400  0.00745800  0.38873200  1
  C  265  1  0.90306400  0.00797900  0.40090900  1
  C  267  1  0.96604400  0.00809500  0.41605900  1
  C  268  1  0.91815000  0.00608200  0.42243200  1
  C  269  1  0.87947300  0.00638900  0.41313100  1
  C  270  1  0.01575400  0.00750800  0.42211600  1
  C  271  1  0.01735500  0.00173200  0.43596900  1
  C  272  1  0.00854600  0.04418100  0.44441800  1
  C  273  1  0.01115400  0.03780800  0.45803100  1
  C  274  1  0.02290700  0.98886500  0.46363800  1
  C  275  1  0.03117400  0.94649200  0.45507400  1
  C  276  1  0.02822000  0.95268000  0.44150400  1
  C  277  1  0.82139900  0.00159200  0.38892500  1
  C  278  1  0.78765500  0.04416500  0.38683500  1
  C  279  1  0.73319200  0.03779100  0.38744700  1
  C  280  1  0.71073200  0.98872900  0.39024600  1
  C  281  1  0.74494600  0.94621900  0.39217500  1
  C  282  1  0.79922700  0.95241200  0.39147400  1
  C  283  1  0.00976700  0.00183300  0.33982900  1
  C  284  1  0.99885900  0.95271100  0.33434300  1
  C  285  1  0.99651200  0.94616900  0.32077900  1
  C  286  1  0.00542900  0.98822400  0.31214900  1
  C  287  1  0.01667200  0.03736900  0.31772600  1
  C  288  1  0.01872600  0.04410100  0.33133500  1
  C  289  1  0.20583500  0.00172000  0.38687200  1
  C  290  1  0.22797700  0.95255200  0.38429700  1
  C  291  1  0.23963400  0.04418000  0.38905700  1
  C  292  1  0.29410300  0.03769700  0.38852100  1
  C  293  1  0.31654400  0.98863600  0.38570900  1
  C  294  1  0.28225900  0.94625400  0.38367000  1
  C  321  1  0.65720500  0.98101700  0.39157800  1
  C  322  1  0.00235400  0.97969200  0.29873400  1
  C  323  1  0.37011100  0.98073700  0.38449300  1
  C  324  1  0.02807700  0.98112600  0.47702400  1
  C  329  1  0.01132200  0.01103400  0.24874900  1
  C  330  1  0.97829200  0.97792300  0.25604600  1
  C  331  1  0.97823000  0.97859200  0.26966400  1
  C  332  1  0.01124000  0.01148500  0.27701900  1
  C  333  1  0.04400300  0.04450900  0.26971700  1
  C  334  1  0.04421100  0.04369400  0.25610700  1
  C  337  1  0.92296700  0.92367000  0.26259400  1
  C  340  1  0.09915100  0.09874800  0.26316200  1
  C  345  1  0.01475000  0.01134900  0.74876900  1
  C  346  1  0.04785900  0.97832000  0.75606600  1
  C  347  1  0.04718200  0.97825400  0.76968400  1
  C  348  1  0.01428300  0.01126300  0.77703700  1
  C  349  1  0.98126200  0.04402600  0.76973500  1
  C  350  1  0.98208600  0.04423500  0.75612500  1
  C  353  1  0.10211200  0.92299800  0.76261600  1
  C  356  1  0.92702100  0.09917000  0.76317900  1
  C  361  1  0.01145400  0.01464400  0.02703200  1
  C  362  1  0.05879800  0.01419400  0.02007800  1
  C  363  1  0.06011500  0.01424700  0.00645700  1
  C  364  1  0.01440100  0.01479300  0.99876000  1
  C  365  1  0.96705900  0.01423800  0.00571800  1
  C  366  1  0.96573700  0.01420700  0.01933400  1
  C  369  1  0.13698100  0.01241400  0.01423300  1
  C  372  1  0.88887600  0.01235900  0.01155900  1
  C  377  1  0.01342000  0.01007000  0.52702900  1
  C  378  1  0.01332300  0.05659200  0.51972700  1
  C  379  1  0.01230100  0.05617100  0.50611700  1
  C  380  1  0.01237500  0.00982900  0.49875300  1
  C  381  1  0.01250700  0.96306300  0.50605200  1
  C  382  1  0.01336800  0.96348200  0.51966900  1
  C  385  1  0.01235900  0.13394500  0.51317700  1
  C  388  1  0.01354900  0.88556400  0.51259600  1
  C  393  1  0.01003100  0.45707900  0.13768300  1
  C  394  1  0.05656700  0.48627200  0.13773700  1
  C  395  1  0.05617400  0.54071500  0.13802600  1
  C  396  1  0.00984800  0.57019500  0.13801900  1
  C  397  1  0.96307000  0.54102200  0.13795600  1
  C  398  1  0.96345900  0.48655500  0.13770400  1
  C  401  1  0.13393300  0.51244000  0.13801100  1
  C  404  1  0.88555700  0.51489700  0.13766300  1
  C  409  1  0.56896300  0.01005000  0.63767000  1
  C  410  1  0.53977100  0.05658600  0.63773000  1
  C  411  1  0.48532700  0.05619100  0.63803000  1
  C  412  1  0.45584700  0.00986400  0.63803000  1
  C  413  1  0.48502400  0.96308600  0.63796000  1
  C  414  1  0.53948700  0.96347800  0.63769600  1
  C  417  1  0.51359800  0.13395100  0.63801000  1
  C  420  1  0.51114600  0.88557200  0.63766200  1
  C  425  1  0.01561900  0.45737100  0.88811600  1
  C  426  1  0.96908400  0.48656300  0.88806000  1
  C  427  1  0.96947600  0.54100700  0.88776800  1
  C  428  1  0.01580100  0.57048700  0.88777300  1
  C  429  1  0.06257900  0.54131400  0.88783700  1
  C  430  1  0.06219100  0.48684700  0.88809300  1
  C  433  1  0.89171800  0.51273200  0.88778500  1
  C  436  1  0.14009500  0.51518800  0.88813000  1
  C  441  1  0.45712200  0.00997300  0.38813300  1
  C  442  1  0.48631800  0.05650300  0.38807300  1
  C  443  1  0.54076200  0.05610000  0.38776600  1
  C  444  1  0.57023400  0.00977100  0.38776200  1
  C  445  1  0.54104900  0.96299600  0.38783300  1
  C  446  1  0.48658700  0.96339700  0.38810300  1
  C  449  1  0.51250200  0.13386500  0.38779300  1
  C  452  1  0.51491200  0.88548700  0.38813300  1
  C  457  1  0.31759100  0.46126400  0.15331700  1
  C  458  1  0.31788300  0.42413400  0.14362700  1
  C  459  1  0.31953100  0.37503400  0.14943100  1
  C  461  1  0.31960500  0.43595300  0.16532100  1
  C  462  1  0.31869900  0.46135800  0.17763500  1
  C  463  1  0.31920400  0.43501900  0.18980400  1
  C  465  1  0.31922400  0.37192500  0.20493200  1
  C  466  1  0.31719900  0.41978500  0.21132100  1
  C  467  1  0.31757600  0.45852700  0.20203500  1
  C  468  1  0.31858200  0.32216600  0.21096900  1
  C  469  1  0.31933300  0.27406300  0.20407200  1
  C  471  1  0.31940600  0.21315900  0.18818100  1
  C  472  1  0.31754100  0.18783000  0.20018500  1
  C  473  1  0.31781700  0.22495600  0.20987500  1
  C  474  1  0.31847700  0.18777200  0.17586600  1
  C  475  1  0.31918900  0.21410300  0.16370000  1
  C  477  1  0.31946900  0.27718000  0.14857100  1
  C  478  1  0.31749800  0.22932500  0.14218000  1
  C  479  1  0.31769600  0.19059000  0.15146700  1
  C  480  1  0.31876900  0.32692800  0.14253300  1
  C  481  1  0.31281400  0.32862400  0.12868500  1
  C  482  1  0.35512100  0.31998600  0.12018300  1
  C  483  1  0.34841300  0.32239600  0.10657700  1
  C  484  1  0.29927100  0.33378500  0.10101700  1
  C  485  1  0.25709500  0.34201500  0.10964600  1
  C  486  1  0.26361800  0.33929300  0.12320800  1
  C  487  1  0.31266200  0.13234900  0.17565000  1
  C  488  1  0.35520200  0.09860810  0.17778800  1
  C  489  1  0.34883600  0.04414110  0.17718300  1
  C  490  1  0.29981500  0.02166610  0.17435000  1
  C  491  1  0.25734400  0.05587710  0.17236300  1
  C  492  1  0.26352900  0.11016100  0.17305500  1
  C  493  1  0.31263900  0.32044800  0.22481900  1
  C  494  1  0.26352100  0.30948300  0.23030200  1
  C  495  1  0.25692000  0.30732100  0.24386700  1
  C  496  1  0.29890600  0.31648700  0.25250100  1
  C  497  1  0.34806100  0.32771100  0.24692700  1
  C  498  1  0.35485000  0.32958600  0.23331800  1
  C  499  1  0.31282200  0.51678000  0.17784400  1
  C  500  1  0.26361800  0.53890200  0.18039000  1
  C  501  1  0.35529400  0.55059300  0.17568800  1
  C  502  1  0.34878700  0.60505800  0.17622200  1
  C  503  1  0.29968700  0.62748000  0.17900300  1
  C  504  1  0.25729400  0.59318200  0.18100800  1
  C  531  1  0.29210300  0.96812800  0.17303600  1
  C  532  1  0.29029900  0.31380500  0.26591900  1
  C  533  1  0.29174900  0.68104600  0.18020200  1
  C  534  1  0.29100300  0.33813200  0.08761830  1
  C  539  1  0.18685000  0.31788700  0.65329400  1
  C  540  1  0.22403100  0.31820900  0.64361600  1
  C  541  1  0.27310600  0.31967900  0.64943600  1
  C  543  1  0.21210100  0.31977600  0.66530700  1
  C  544  1  0.18664400  0.31872200  0.67761400  1
  C  545  1  0.21292600  0.31918100  0.68979000  1
  C  547  1  0.27594800  0.31916500  0.70493700  1
  C  548  1  0.22805800  0.31709000  0.71131100  1
  C  549  1  0.18936200  0.31744300  0.70201400  1
  C  550  1  0.32567700  0.31851200  0.71099000  1
  C  551  1  0.37381300  0.31935600  0.70410800  1
  C  553  1  0.43479100  0.31945700  0.68823600  1
  C  554  1  0.46006300  0.31759100  0.70024700  1
  C  555  1  0.42289500  0.31793300  0.70992600  1
  C  556  1  0.46023700  0.31855500  0.67592900  1
  C  557  1  0.43396700  0.31912300  0.66375400  1
  C  559  1  0.37096900  0.31936000  0.64860900  1
  C  560  1  0.41885200  0.31733100  0.64223200  1
  C  561  1  0.45754100  0.31754800  0.65153000  1
  C  562  1  0.32125300  0.31878100  0.64255600  1
  C  563  1  0.31963200  0.31297700  0.62870400  1
  C  564  1  0.32849900  0.35535800  0.62023800  1
  C  565  1  0.32603000  0.34886600  0.60662500  1
  C  566  1  0.31433000  0.29987300  0.60103500  1
  C  567  1  0.30595300  0.25758900  0.60962200  1
  C  568  1  0.30879100  0.26388600  0.62318900  1
  C  569  1  0.51565200  0.31268600  0.67572900  1
  C  570  1  0.54940500  0.35523800  0.67784000  1
  C  571  1  0.60386500  0.34886200  0.67722500  1
  C  572  1  0.62632200  0.29982300  0.67440300  1
  C  573  1  0.59210300  0.25733200  0.67244900  1
  C  574  1  0.53782200  0.26353200  0.67314800  1
  C  575  1  0.32733700  0.31260000  0.72484000  1
  C  576  1  0.33830900  0.26349400  0.73032800  1
  C  577  1  0.34043600  0.25690500  0.74389300  1
  C  578  1  0.33124600  0.29889800  0.75252300  1
  C  579  1  0.32000900  0.34804300  0.74694400  1
  C  580  1  0.31816300  0.35481900  0.73333500  1
  C  581  1  0.13122100  0.31282500  0.67780400  1
  C  582  1  0.10909600  0.26361800  0.68034000  1
  C  583  1  0.09740710  0.35530900  0.67566100  1
  C  584  1  0.04294010  0.34880200  0.67619500  1
  C  585  1  0.02051510  0.29969500  0.67896500  1
  C  586  1  0.05481510  0.25729400  0.68096000  1
  C  613  1  0.67985100  0.29210300  0.67307500  1
  C  614  1  0.33390000  0.29030300  0.76594200  1
  C  615  1  0.96695400  0.29176100  0.68017200  1
  C  616  1  0.30942000  0.29195100  0.58764600  1
  C  621  1  0.32994500  0.46152900  0.95023400  1
  C  622  1  0.32962400  0.42439100  0.95992200  1
  C  623  1  0.32801900  0.37529700  0.95411400  1
  C  625  1  0.32784500  0.43623300  0.93822700  1
  C  626  1  0.32871000  0.46164600  0.92591500  1
  C  627  1  0.32817200  0.43532700  0.91374400  1
  C  629  1  0.32807200  0.37225200  0.89861000  1
  C  630  1  0.33010200  0.42011700  0.89222400  1
  C  631  1  0.32979700  0.45884800  0.90151300  1
  C  632  1  0.32874600  0.32249700  0.89257000  1
  C  633  1  0.32806700  0.27438900  0.89946500  1
  C  635  1  0.32808900  0.21347000  0.91535200  1
  C  636  1  0.33004400  0.18815700  0.90334700  1
  C  637  1  0.32966700  0.22528700  0.89366000  1
  C  638  1  0.32898900  0.18805900  0.92766400  1
  C  639  1  0.32840600  0.21437900  0.93983300  1
  C  641  1  0.32823000  0.27743700  0.95496400  1
  C  642  1  0.33017300  0.22957800  0.96135200  1
  C  643  1  0.32991800  0.19085000  0.95206400  1
  C  644  1  0.32884800  0.32717900  0.96100600  1
  C  645  1  0.33485400  0.32886400  0.97485300  1
  C  646  1  0.29256600  0.32024200  0.98336100  1
  C  647  1  0.29931400  0.32262500  0.99696600  1
  C  648  1  0.34848500  0.33395500  0.00251933  1
  C  649  1  0.39064200  0.34216800  0.99388200  1
  C  650  1  0.38407800  0.33947300  0.98032100  1
  C  651  1  0.33485000  0.13264400  0.92787500  1
  C  652  1  0.29232100  0.09888010  0.92574200  1
  C  653  1  0.29872700  0.04441710  0.92633700  1
  C  654  1  0.34776200  0.02196510  0.92916600  1
  C  655  1  0.39021900  0.05619910  0.93114700  1
  C  656  1  0.38400700  0.11048000  0.93045600  1
  C  657  1  0.33470800  0.32079000  0.87872100  1
  C  658  1  0.38384500  0.30985200  0.87324700  1
  C  659  1  0.39043600  0.30748100  0.85968400  1
  C  660  1  0.34841900  0.31639800  0.85104400  1
  C  661  1  0.29925900  0.32767300  0.85660800  1
  C  662  1  0.29247600  0.32975000  0.87021600  1
  C  663  1  0.33465100  0.51706300  0.92570900  1
  C  664  1  0.38386300  0.53914600  0.92315400  1
  C  665  1  0.29221600  0.55090900  0.92787700  1
  C  666  1  0.29876200  0.60536900  0.92734000  1
  C  667  1  0.34787700  0.62775600  0.92455900  1
  C  668  1  0.39023100  0.59342200  0.92253800  1
  C  695  1  0.35549800  0.96843100  0.93048100  1
  C  696  1  0.35698900  0.31329200  0.83763000  1
  C  697  1  0.35585300  0.68131700  0.92336000  1
  C  698  1  0.35678700  0.33827000  0.01591230  1
  C  703  1  0.46113900  0.31734600  0.45025400  1
  C  704  1  0.42395100  0.31763400  0.45993000  1
  C  705  1  0.37488200  0.31923500  0.45410800  1
  C  707  1  0.43590200  0.31941000  0.43824000  1
  C  708  1  0.46138200  0.31856300  0.42593500  1
  C  709  1  0.43511700  0.31917700  0.41375800  1
  C  711  1  0.37211300  0.31934800  0.39860600  1
  C  712  1  0.42000900  0.31742800  0.39223300  1
  C  713  1  0.45869500  0.31763800  0.40153300  1
  C  714  1  0.32238800  0.31869500  0.39255100  1
  C  715  1  0.27424500  0.31942600  0.39943100  1
  C  717  1  0.21324800  0.31941000  0.41529900  1
  C  718  1  0.18799300  0.31751300  0.40328600  1
  C  719  1  0.22517400  0.31790200  0.39361000  1
  C  720  1  0.18778700  0.31843100  0.42760300  1
  C  721  1  0.21403700  0.31895200  0.43978000  1
  C  723  1  0.27701700  0.31906800  0.45493000  1
  C  724  1  0.22912300  0.31705500  0.46130300  1
  C  725  1  0.19044600  0.31736200  0.45200200  1
  C  726  1  0.32672700  0.31848100  0.46098700  1
  C  727  1  0.32832800  0.31270500  0.47484000  1
  C  728  1  0.31951900  0.35515400  0.48328900  1
  C  729  1  0.32212700  0.34878100  0.49690200  1
  C  730  1  0.33388000  0.29983800  0.50250900  1
  C  731  1  0.34214700  0.25746500  0.49394500  1
  C  732  1  0.33919300  0.26365300  0.48037500  1
  C  733  1  0.13237200  0.31256500  0.42779600  1
  C  734  1  0.09862810  0.35513800  0.42570600  1
  C  735  1  0.04416510  0.34876400  0.42631800  1
  C  736  1  0.02170510  0.29970200  0.42911700  1
  C  737  1  0.05591910  0.25719200  0.43104600  1
  C  738  1  0.11020000  0.26338500  0.43034500  1
  C  739  1  0.32074000  0.31280600  0.37870000  1
  C  740  1  0.30983200  0.26368400  0.37321400  1
  C  741  1  0.30748500  0.25714200  0.35965000  1
  C  742  1  0.31640200  0.29919700  0.35102000  1
  C  743  1  0.32764500  0.34834200  0.35659700  1
  C  744  1  0.32969900  0.35507400  0.37020600  1
  C  745  1  0.51680800  0.31269300  0.42574300  1
  C  746  1  0.53895000  0.26352500  0.42316800  1
  C  747  1  0.55060700  0.35515300  0.42792800  1
  C  748  1  0.60507600  0.34867000  0.42739200  1
  C  749  1  0.62751700  0.29960900  0.42458000  1
  C  750  1  0.59323200  0.25722700  0.42254100  1
  C  777  1  0.96817800  0.29199000  0.43044900  1
  C  778  1  0.31332700  0.29066500  0.33760500  1
  C  779  1  0.68108400  0.29171000  0.42336400  1
  C  780  1  0.33905000  0.29209900  0.51589500  1
  C  785  1  0.32229500  0.32200700  0.28762000  1
  C  786  1  0.28926500  0.28889600  0.29491700  1
  C  787  1  0.28920300  0.28956500  0.30853500  1
  C  788  1  0.32221300  0.32245800  0.31589000  1
  C  789  1  0.35497600  0.35548200  0.30858800  1
  C  790  1  0.35518400  0.35466700  0.29497800  1
  C  793  1  0.23394000  0.23464300  0.30146500  1
  C  796  1  0.41012400  0.40972100  0.30203300  1
  C  801  1  0.32572300  0.32232200  0.78764000  1
  C  802  1  0.35883200  0.28929300  0.79493700  1
  C  803  1  0.35815500  0.28922700  0.80855500  1
  C  804  1  0.32525600  0.32223600  0.81590800  1
  C  805  1  0.29223500  0.35499900  0.80860600  1
  C  806  1  0.29305900  0.35520800  0.79499600  1
  C  809  1  0.41308500  0.23397100  0.80148700  1
  C  812  1  0.23799400  0.41014300  0.80205000  1
  C  817  1  0.32242700  0.32561700  0.06590330  1
  C  818  1  0.36977100  0.32516700  0.05894930  1
  C  819  1  0.37108800  0.32522000  0.04532830  1
  C  820  1  0.32537400  0.32576600  0.03763130  1
  C  821  1  0.27803200  0.32521100  0.04458930  1
  C  822  1  0.27671000  0.32518000  0.05820530  1
  C  825  1  0.44795400  0.32338700  0.05310430  1
  C  828  1  0.19984900  0.32333200  0.05043030  1
  C  833  1  0.32439300  0.32104300  0.56590000  1
  C  834  1  0.32429600  0.36756500  0.55859800  1
  C  835  1  0.32327400  0.36714400  0.54498800  1
  C  836  1  0.32334800  0.32080200  0.53762400  1
  C  837  1  0.32348000  0.27403600  0.54492300  1
  C  838  1  0.32434100  0.27445500  0.55854000  1
  C  841  1  0.32333200  0.44491800  0.55204800  1
  C  844  1  0.32452200  0.19653700  0.55146700  1
  C  849  1  0.32100400  0.76805200  0.17655400  1
  C  850  1  0.36754000  0.79724500  0.17660800  1
  C  851  1  0.36714700  0.85168800  0.17689700  1
  C  852  1  0.32082100  0.88116800  0.17689000  1
  C  853  1  0.27404300  0.85199500  0.17682700  1
  C  854  1  0.27443200  0.79752800  0.17657500  1
  C  857  1  0.44490600  0.82341300  0.17688200  1
  C  860  1  0.19653000  0.82587000  0.17653400  1
  C  865  1  0.87993600  0.32102300  0.67654100  1
  C  866  1  0.85074400  0.36755900  0.67660100  1
  C  867  1  0.79630000  0.36716400  0.67690100  1
  C  868  1  0.76682000  0.32083700  0.67690100  1
  C  869  1  0.79599700  0.27405900  0.67683100  1
  C  870  1  0.85046000  0.27445100  0.67656700  1
  C  873  1  0.82457100  0.44492400  0.67688100  1
  C  876  1  0.82211900  0.19654500  0.67653300  1
  C  881  1  0.32659200  0.76834400  0.92698700  1
  C  882  1  0.28005700  0.79753600  0.92693100  1
  C  883  1  0.28044900  0.85198000  0.92663900  1
  C  884  1  0.32677400  0.88146000  0.92664400  1
  C  885  1  0.37355200  0.85228700  0.92670800  1
  C  886  1  0.37316400  0.79782000  0.92696400  1
  C  889  1  0.20269100  0.82370500  0.92665600  1
  C  892  1  0.45106800  0.82616100  0.92700100  1
  C  897  1  0.76809500  0.32094600  0.42700400  1
  C  898  1  0.79729100  0.36747600  0.42694400  1
  C  899  1  0.85173500  0.36707300  0.42663700  1
  C  900  1  0.88120700  0.32074400  0.42663300  1
  C  901  1  0.85202200  0.27396900  0.42670400  1
  C  902  1  0.79756000  0.27437000  0.42697400  1
  C  905  1  0.82347500  0.44483800  0.42666400  1
  C  908  1  0.82588500  0.19646000  0.42700400  1
  N  4  1  0.01039300  0.07349200  0.12354200  1
  N  8  1  0.00955700  0.07221900  0.15320900  1
  N  14  1  0.01014400  0.95367500  0.15221900  1
  N  20  1  0.00959600  0.95495400  0.12255300  1
  N  86  1  0.95263300  0.01052900  0.62354400  1
  N  90  1  0.95376400  0.00954900  0.65321100  1
  N  96  1  0.07231500  0.01015500  0.65225800  1
  N  102  1  0.07118400  0.00955700  0.62259300  1
  N  168  1  0.01512600  0.07376900  0.90226200  1
  N  172  1  0.01587400  0.07253000  0.87259300  1
  N  178  1  0.01535700  0.95398600  0.87357600  1
  N  184  1  0.01608600  0.95522600  0.90324000  1
  N  250  1  0.07342000  0.01012800  0.40225900  1
  N  254  1  0.07233100  0.00953300  0.37259200  1
  N  260  1  0.95378000  0.01014000  0.37354000  1
  N  266  1  0.95487200  0.00932000  0.40320400  1
  N  335  1  0.94268600  0.94424900  0.27350200  1
  N  338  1  0.07929800  0.07839500  0.25222200  1
  N  343  1  0.01407300  0.01227400  0.23576400  1
  N  344  1  0.01259700  0.01416100  0.29000400  1
  N  351  1  0.08152600  0.94270900  0.77352200  1
  N  354  1  0.94738600  0.07932000  0.75223800  1
  N  359  1  0.01352100  0.01409900  0.73578400  1
  N  360  1  0.01159400  0.01262000  0.79002400  1
  N  367  1  0.11003300  0.01278700  0.00306500  1
  N  370  1  0.91582200  0.01266300  0.02272600  1
  N  375  1  0.01323900  0.01339600  0.04002400  1
  N  376  1  0.01260400  0.01356200  0.98576700  1
  N  383  1  0.01180700  0.10552200  0.50223500  1
  N  386  1  0.01444200  0.91406100  0.52350100  1
  N  391  1  0.01486900  0.01284500  0.54001700  1
  N  392  1  0.01080100  0.01260000  0.48576800  1
  N  399  1  0.10553200  0.55621700  0.13816900  1
  N  402  1  0.91402600  0.47126700  0.13741600  1
  N  407  1  0.01280300  0.40511900  0.13730900  1
  N  408  1  0.01264300  0.62213900  0.13844600  1
  N  415  1  0.46982100  0.10554800  0.63817700  1
  N  418  1  0.55477500  0.91404500  0.63740500  1
  N  423  1  0.62092300  0.01282200  0.63728800  1
  N  424  1  0.40390700  0.01265500  0.63847100  1
  N  431  1  0.92011700  0.55650900  0.88762400  1
  N  434  1  0.11162400  0.47156300  0.88838100  1
  N  439  1  0.01284100  0.40541100  0.88849200  1
  N  440  1  0.01300200  0.62243100  0.88734100  1
  N  447  1  0.55627200  0.10545500  0.38762000  1
  N  450  1  0.47129100  0.91396400  0.38839500  1
  N  455  1  0.40516200  0.01274000  0.38852300  1
  N  456  1  0.62217400  0.01255400  0.38731700  1
  N  460  1  0.32136600  0.38446500  0.16241300  1
  N  464  1  0.32053000  0.38319200  0.19208000  1
  N  470  1  0.32111700  0.26464800  0.19109000  1
  N  476  1  0.32056900  0.26592700  0.16142400  1
  N  542  1  0.26360600  0.32150200  0.66241500  1
  N  546  1  0.26473700  0.32052200  0.69208200  1
  N  552  1  0.38328800  0.32112800  0.69112900  1
  N  558  1  0.38215700  0.32053000  0.66146400  1
  N  624  1  0.32609900  0.38474200  0.94113300  1
  N  628  1  0.32684700  0.38350300  0.91146400  1
  N  634  1  0.32633000  0.26495900  0.91244700  1
  N  640  1  0.32705900  0.26619900  0.94211100  1
  N  706  1  0.38439300  0.32110100  0.44113000  1
  N  710  1  0.38330400  0.32050600  0.41146300  1
  N  716  1  0.26475300  0.32111300  0.41241100  1
  N  722  1  0.26584500  0.32029300  0.44207500  1
  N  791  1  0.25365900  0.25522200  0.31237300  1
  N  794  1  0.39027100  0.38936800  0.29109300  1
  N  799  1  0.32504600  0.32324700  0.27463500  1
  N  800  1  0.32357000  0.32513400  0.32887500  1
  N  807  1  0.39249900  0.25368200  0.81239300  1
  N  810  1  0.25835900  0.39029300  0.79110900  1
  N  815  1  0.32449400  0.32507200  0.77465500  1
  N  816  1  0.32256700  0.32359300  0.82889500  1
  N  823  1  0.42100600  0.32376000  0.04193630  1
  N  826  1  0.22679500  0.32363600  0.06159730  1
  N  831  1  0.32421200  0.32436900  0.07889530  1
  N  832  1  0.32357700  0.32453500  0.02463830  1
  N  839  1  0.32278000  0.41649500  0.54110600  1
  N  842  1  0.32541500  0.22503400  0.56237200  1
  N  847  1  0.32584200  0.32381800  0.57888800  1
  N  848  1  0.32177400  0.32357300  0.52463900  1
  N  855  1  0.41650500  0.86719000  0.17704000  1
  N  858  1  0.22499900  0.78224000  0.17628700  1
  N  863  1  0.32377600  0.71609200  0.17618000  1
  N  864  1  0.32361600  0.93311200  0.17731700  1
  N  871  1  0.78079400  0.41652100  0.67704800  1
  N  874  1  0.86574800  0.22501800  0.67627600  1
  N  879  1  0.93189600  0.32379500  0.67615900  1
  N  880  1  0.71488000  0.32362800  0.67734200  1
  N  887  1  0.23109000  0.86748200  0.92649500  1
  N  890  1  0.42259700  0.78253600  0.92725200  1
  N  895  1  0.32381400  0.71638400  0.92736300  1
  N  896  1  0.32397500  0.93340400  0.92621200  1
  N  903  1  0.86724500  0.41642800  0.42649100  1
  N  906  1  0.78226400  0.22493700  0.42726600  1
  N  911  1  0.71613500  0.32371300  0.42739400  1
  N  912  1  0.93314700  0.32352700  0.42618800  1
  O  336  1  0.94394200  0.94232800  0.25132400  1
  O  339  1  0.07894800  0.07939500  0.27448100  1
  O  352  1  0.08345600  0.94397300  0.75134400  1
  O  355  1  0.94637100  0.07896800  0.77449800  1
  O  368  1  0.10746200  0.01325300  0.02528400  1
  O  371  1  0.91839500  0.01332100  0.00050900  1
  O  384  1  0.01331600  0.10596900  0.52449300  1
  O  387  1  0.01156600  0.91359800  0.50133100  1
  O  400  1  0.10593500  0.46718600  0.13774100  1
  O  403  1  0.91361800  0.55992500  0.13819600  1
  O  416  1  0.55885300  0.10595500  0.63772900  1
  O  419  1  0.46612100  0.91363300  0.63820500  1
  O  432  1  0.91971700  0.46748100  0.88805900  1
  O  435  1  0.11203300  0.56021700  0.88759500  1
  O  448  1  0.46724400  0.10587600  0.38807700  1
  O  451  1  0.55994500  0.91354000  0.38758400  1
  O  792  1  0.25491500  0.25330100  0.29019500  1
  O  795  1  0.38992100  0.39036800  0.31335200  1
  O  808  1  0.39442900  0.25494600  0.79021500  1
  O  811  1  0.25734400  0.38994100  0.81336900  1
  O  824  1  0.41843500  0.32422600  0.06415530  1
  O  827  1  0.22936800  0.32429400  0.03938030  1
  O  840  1  0.32428900  0.41694200  0.56336400  1
  O  843  1  0.32253900  0.22457100  0.54020200  1
  O  856  1  0.41690800  0.77815900  0.17661200  1
  O  859  1  0.22459100  0.87089800  0.17706700  1
  O  872  1  0.86982600  0.41692800  0.67660000  1
  O  875  1  0.77709400  0.22460600  0.67707600  1
  O  888  1  0.23069000  0.77845400  0.92693000  1
  O  891  1  0.42300600  0.87119000  0.92646600  1
  O  904  1  0.77821700  0.41684900  0.42694800  1
  O  907  1  0.87091800  0.22451300  0.42645500  1
