# generated using pymatgen
data_H8C12N5
_symmetry_space_group_name_H-M   'P 1'
_cell_length_a   38.01720000
_cell_length_b   38.01720000
_cell_length_c   58.42770000
_cell_angle_alpha   90.00000000
_cell_angle_beta   90.00000000
_cell_angle_gamma   90.00000000
_symmetry_Int_Tables_number   1
_chemical_formula_structural   H8C12N5
_chemical_formula_sum   'H512 C768 N320'
_cell_volume   84445.99277469
_cell_formula_units_Z   64
loop_
 _symmetry_equiv_pos_site_id
 _symmetry_equiv_pos_as_xyz
  1  'x, y, z'
loop_
 _atom_site_type_symbol
 _atom_site_label
 _atom_site_symmetry_multiplicity
 _atom_site_fract_x
 _atom_site_fract_y
 _atom_site_fract_z
 _atom_site_occupancy
  H  7  1  0.12182300  0.44079300  0.87540700  1
  H  8  1  0.22271500  0.42250100  0.84798700  1
  H  9  1  0.13816200  0.44775600  0.80449700  1
  H  16  1  0.17485600  0.46859100  0.90459000  1
  H  17  1  0.20405200  0.38474700  0.94768600  1
  H  18  1  0.19624500  0.36851500  0.87691700  1
  H  29  1  0.38067500  0.55094300  0.37540900  1
  H  30  1  0.27978700  0.56929000  0.34801000  1
  H  31  1  0.36429600  0.54395900  0.30450100  1
  H  38  1  0.32769700  0.52317700  0.40459800  1
  H  39  1  0.29849100  0.60701000  0.44770200  1
  H  40  1  0.30623000  0.62324500  0.37693100  1
  H  51  1  0.80530400  0.86985700  0.12750100  1
  H  52  1  0.82343300  0.96924300  0.09787200  1
  H  53  1  0.79185300  0.88411900  0.05671900  1
  H  60  1  0.77868800  0.92415600  0.15551700  1
  H  61  1  0.86345700  0.95348700  0.19776400  1
  H  62  1  0.87858400  0.94347100  0.12696000  1
  H  73  1  0.69704300  0.12186200  0.62753000  1
  H  74  1  0.67903300  0.02247300  0.59787100  1
  H  75  1  0.71054200  0.10765800  0.55674700  1
  H  82  1  0.72373600  0.06755300  0.65552300  1
  H  83  1  0.63899300  0.03817400  0.69777400  1
  H  84  1  0.62384400  0.04820000  0.62697400  1
  H  95  1  0.37910500  0.44032500  0.62706100  1
  H  96  1  0.27873700  0.42003400  0.65464200  1
  H  97  1  0.36281200  0.44822900  0.69782900  1
  H  104  1  0.32532900  0.46733600  0.59805400  1
  H  105  1  0.29910200  0.38299500  0.55463400  1
  H  106  1  0.30608500  0.36666800  0.62554100  1
  H  117  1  0.12340900  0.55132700  0.12706600  1
  H  118  1  0.22376000  0.57169200  0.15463900  1
  H  119  1  0.13970500  0.54347800  0.19783800  1
  H  126  1  0.17718100  0.52433700  0.09805700  1
  H  127  1  0.20342500  0.60868300  0.05464200  1
  H  128  1  0.19643100  0.62500400  0.12555000  1
  H  139  1  0.69670600  0.87228700  0.37470400  1
  H  140  1  0.67543900  0.97036700  0.40521600  1
  H  141  1  0.71084200  0.88542100  0.44530400  1
  H  148  1  0.72218100  0.92751800  0.34733500  1
  H  149  1  0.63702500  0.95366600  0.30463000  1
  H  150  1  0.62152700  0.94411500  0.37554500  1
  H  161  1  0.80575200  0.11938800  0.87469000  1
  H  162  1  0.82703400  0.02131600  0.90520300  1
  H  163  1  0.79167400  0.10627100  0.94529900  1
  H  170  1  0.78025800  0.06417400  0.84732600  1
  H  171  1  0.86538500  0.03799200  0.80461000  1
  H  172  1  0.88091800  0.04754100  0.87551800  1
  H  183  1  0.87763200  0.55077200  0.12519800  1
  H  184  1  0.77801900  0.56818800  0.15468600  1
  H  185  1  0.86331200  0.53751500  0.19598900  1
  H  192  1  0.82292300  0.52339000  0.09723700  1
  H  193  1  0.79435700  0.60805900  0.05469400  1
  H  194  1  0.80436500  0.62365500  0.12545100  1
  H  205  1  0.62487300  0.44107200  0.62520600  1
  H  206  1  0.72446200  0.42356400  0.65470500  1
  H  207  1  0.63919000  0.45432600  0.69599900  1
  H  214  1  0.67955900  0.46837800  0.59724600  1
  H  215  1  0.70814600  0.38368700  0.55472300  1
  H  216  1  0.69815300  0.36813100  0.62548600  1
  H  227  1  0.20005400  0.12246700  0.87534700  1
  H  228  1  0.18480300  0.02281300  0.90525800  1
  H  229  1  0.21565000  0.10857200  0.94602400  1
  H  236  1  0.22608500  0.06764700  0.84667400  1
  H  237  1  0.14057600  0.03233600  0.80711600  1
  H  238  1  0.12817900  0.04763100  0.87774900  1
  H  249  1  0.30242100  0.86928600  0.37541600  1
  H  250  1  0.31749100  0.96900900  0.40526700  1
  H  251  1  0.28673400  0.88327400  0.44607800  1
  H  258  1  0.27632200  0.92411100  0.34669200  1
  H  259  1  0.36190200  0.95932200  0.30715900  1
  H  260  1  0.37420700  0.94409700  0.37780400  1
  H  271  1  0.62707700  0.55114000  0.37785900  1
  H  272  1  0.72534600  0.57154400  0.34735900  1
  H  273  1  0.63997400  0.53727000  0.30722900  1
  H  280  1  0.68257800  0.52487900  0.40512800  1
  H  281  1  0.70839600  0.60987400  0.44805000  1
  H  282  1  0.69883700  0.62576200  0.37718900  1
  H  293  1  0.87543300  0.44055900  0.87783200  1
  H  294  1  0.77713300  0.42012600  0.84738600  1
  H  295  1  0.86245200  0.45438700  0.80720300  1
  H  302  1  0.81992900  0.46682100  0.90512400  1
  H  303  1  0.79410900  0.38182700  0.94805400  1
  H  304  1  0.80366300  0.36592400  0.87719100  1
  H  315  1  0.30319700  0.11989600  0.62738300  1
  H  316  1  0.32183900  0.02156800  0.59652600  1
  H  317  1  0.28783800  0.10735700  0.55675000  1
  H  324  1  0.27772700  0.06347900  0.65509000  1
  H  325  1  0.36329400  0.03150800  0.69567000  1
  H  326  1  0.37708500  0.04715200  0.62498800  1
  H  337  1  0.19924800  0.87184800  0.12747700  1
  H  338  1  0.18041600  0.97005400  0.09650300  1
  H  339  1  0.21448900  0.88416400  0.05683900  1
  H  346  1  0.22467900  0.92828300  0.15510800  1
  H  347  1  0.13912900  0.96021900  0.19571000  1
  H  348  1  0.12528700  0.94452600  0.12503900  1
  H  359  1  0.21667800  0.36716300  0.75495900  1
  H  361  1  0.30600900  0.48613300  0.73662200  1
  H  362  1  0.28416400  0.50024200  0.75954300  1
  H  364  1  0.32499800  0.41482300  0.72254500  1
  H  366  1  0.17986900  0.40193100  0.78434600  1
  H  373  1  0.28582300  0.62458300  0.25497000  1
  H  375  1  0.19642900  0.50566100  0.23663800  1
  H  376  1  0.21826000  0.49154400  0.25956200  1
  H  378  1  0.17748400  0.57686600  0.22255600  1
  H  380  1  0.32262500  0.58978100  0.28434600  1
  H  387  1  0.86979900  0.95913800  0.00265700  1
  H  389  1  0.75201500  0.05226700  0.98973700  1
  H  390  1  0.73994700  0.03099400  0.01335500  1
  H  392  1  0.81432400  0.07043100  0.97352200  1
  H  394  1  0.83770800  0.92420600  0.03424700  1
  H  401  1  0.63294000  0.03281800  0.50249700  1
  H  403  1  0.75045800  0.93922500  0.48994900  1
  H  404  1  0.76242600  0.96045500  0.51360400  1
  H  406  1  0.68840700  0.92129100  0.47355000  1
  H  408  1  0.66487800  0.06758700  0.53420900  1
  H  415  1  0.78890700  0.61337300  0.25086400  1
  H  417  1  0.69354200  0.49690200  0.26175300  1
  H  418  1  0.71461900  0.48542500  0.23794200  1
  H  420  1  0.67634200  0.55764800  0.27888200  1
  H  422  1  0.82306200  0.58220800  0.21865700  1
  H  429  1  0.71378800  0.37802700  0.75066000  1
  H  431  1  0.80872100  0.49475300  0.76199500  1
  H  432  1  0.78757800  0.50639200  0.73824100  1
  H  434  1  0.82610300  0.43369600  0.77889500  1
  H  436  1  0.67943500  0.40943300  0.71861700  1
  H  443  1  0.13521900  0.02877000  0.99766400  1
  H  445  1  0.25706400  0.94281300  0.01487700  1
  H  446  1  0.27027000  0.96552400  0.99209000  1
  H  448  1  0.19180900  0.92051300  0.02838700  1
  H  450  1  0.16824600  0.06662900  0.96785700  1
  H  457  1  0.36839700  0.96424800  0.49667900  1
  H  459  1  0.24556300  0.04767400  0.51601800  1
  H  460  1  0.23186700  0.02469000  0.49346800  1
  H  462  1  0.31284300  0.07112300  0.52858300  1
  H  464  1  0.33479900  0.92552600  0.46756600  1
  H  471  1  0.71694400  0.87295800  0.25502100  1
  H  473  1  0.80570700  0.99250700  0.23707600  1
  H  474  1  0.78309100  0.00672500  0.25964800  1
  H  476  1  0.82576900  0.92184400  0.22342300  1
  H  478  1  0.67933500  0.90748500  0.28411700  1
  H  485  1  0.78528500  0.11890300  0.75516400  1
  H  487  1  0.69688800  0.99918800  0.73692800  1
  H  488  1  0.71956200  0.98490000  0.75945700  1
  H  490  1  0.67667300  0.06999700  0.72339900  1
  H  492  1  0.82306500  0.08426200  0.78413700  1
  H  499  1  0.37986500  0.46082600  0.50472000  1
  H  501  1  0.26133600  0.55101700  0.48695800  1
  H  502  1  0.24737300  0.52933200  0.50998100  1
  H  504  1  0.33174700  0.56962100  0.47260300  1
  H  506  1  0.34516200  0.42431900  0.53432700  1
  H  513  1  0.12253700  0.53073900  0.00480500  1
  H  515  1  0.24124800  0.44087400  0.98684900  1
  H  516  1  0.25523000  0.46258300  0.00985800  1
  H  518  1  0.17053700  0.42217000  0.97252600  1
  H  520  1  0.15728800  0.56734600  0.03435500  1
  H  527  1  0.28420600  0.11277300  0.74742200  1
  H  529  1  0.19864400  0.99087300  0.76527400  1
  H  530  1  0.22111800  0.97760000  0.74240500  1
  H  532  1  0.17634800  0.05657000  0.77874200  1
  H  534  1  0.32187000  0.07952400  0.71757100  1
  H  541  1  0.21812200  0.87907400  0.24751800  1
  H  543  1  0.30402300  0.00080800  0.26516700  1
  H  544  1  0.28157500  0.01405800  0.24228100  1
  H  546  1  0.32611800  0.93535600  0.27875300  1
  H  548  1  0.18055400  0.91227400  0.21760900  1
  H  555  1  0.62718800  0.52938400  0.49697700  1
  H  557  1  0.74733900  0.44212100  0.51626400  1
  H  558  1  0.76179300  0.46475000  0.49375800  1
  H  560  1  0.67533400  0.42172000  0.52953300  1
  H  562  1  0.66205100  0.56739600  0.46825400  1
  H  569  1  0.87528900  0.46230200  0.99700200  1
  H  571  1  0.75516100  0.54963300  0.01622300  1
  H  572  1  0.74072000  0.52700400  0.99371400  1
  H  574  1  0.82723700  0.56998400  0.02953400  1
  H  576  1  0.84044100  0.42430300  0.96826700  1
  H  583  1  0.17550000  0.27301100  0.91410500  1
  H  585  1  0.30267100  0.19171200  0.92273200  1
  H  586  1  0.31894500  0.23156100  0.91758200  1
  H  588  1  0.24729200  0.16428200  0.93825800  1
  H  590  1  0.24780300  0.32634500  0.89569400  1
  H  597  1  0.32703100  0.71875700  0.41414100  1
  H  599  1  0.19986300  0.80004400  0.42283900  1
  H  600  1  0.18359000  0.76020100  0.41766900  1
  H  602  1  0.25520500  0.82746800  0.43833900  1
  H  604  1  0.25474300  0.66545400  0.39569800  1
  H  611  1  0.97428100  0.92227800  0.16353600  1
  H  613  1  0.05730700  0.04833000  0.17218600  1
  H  614  1  0.01770500  0.06514300  0.16697000  1
  H  616  1  0.08394900  0.99275700  0.18770000  1
  H  618  1  0.92193900  0.99497400  0.14493700  1
  H  625  1  0.52812200  0.06940400  0.66345500  1
  H  627  1  0.44512000  0.94335800  0.67223100  1
  H  628  1  0.48473600  0.92654200  0.66707100  1
  H  630  1  0.41845300  0.99900600  0.68767900  1
  H  632  1  0.58046700  0.99669700  0.64495000  1
  H  639  1  0.32721800  0.27096700  0.58912000  1
  H  641  1  0.20013900  0.18980500  0.57939200  1
  H  642  1  0.18381200  0.22979100  0.58398900  1
  H  644  1  0.25585600  0.16222500  0.56460200  1
  H  646  1  0.25426100  0.32477400  0.60603300  1
  H  653  1  0.17530100  0.72067400  0.08913100  1
  H  655  1  0.30235500  0.80191100  0.07952500  1
  H  656  1  0.31869800  0.76192700  0.08410200  1
  H  658  1  0.24666900  0.82948600  0.06475200  1
  H  660  1  0.24826200  0.66687800  0.10605600  1
  H  667  1  0.52585200  0.92256200  0.33967600  1
  H  669  1  0.44270800  0.04837000  0.33001500  1
  H  670  1  0.48242400  0.06531700  0.33464800  1
  H  672  1  0.41602200  0.99233800  0.31522200  1
  H  674  1  0.57852300  0.99608400  0.35675200  1
  H  681  1  0.97659800  0.06912000  0.83970300  1
  H  683  1  0.05971600  0.94332600  0.82985700  1
  H  684  1  0.01999600  0.92637300  0.83447100  1
  H  686  1  0.08641200  0.99940600  0.81513300  1
  H  688  1  0.92395600  0.99558700  0.85672300  1
  H  695  1  0.82677400  0.71868800  0.08887900  1
  H  697  1  0.70201200  0.80345500  0.07953200  1
  H  698  1  0.68457700  0.76409100  0.08465300  1
  H  700  1  0.75826000  0.82936200  0.06433300  1
  H  702  1  0.75311700  0.66738500  0.10710200  1
  H  709  1  0.67567400  0.27311600  0.58880800  1
  H  711  1  0.80039600  0.18821500  0.57975300  1
  H  712  1  0.81784100  0.22755800  0.58492200  1
  H  714  1  0.74424300  0.16236500  0.56444300  1
  H  716  1  0.74928000  0.32433500  0.60722100  1
  H  723  1  0.67636000  0.72082200  0.41294800  1
  H  725  1  0.80101400  0.80546500  0.42339500  1
  H  726  1  0.81850100  0.76594300  0.41890900  1
  H  728  1  0.74451100  0.83160300  0.43765700  1
  H  730  1  0.75076100  0.66901300  0.39637900  1
  H  737  1  0.82614200  0.27085100  0.91292900  1
  H  739  1  0.70147200  0.18624500  0.92341200  1
  H  740  1  0.68399100  0.22577300  0.91894000  1
  H  742  1  0.75801300  0.16008700  0.93767200  1
  H  744  1  0.75176000  0.32267000  0.89637800  1
  H  751  1  0.47399900  0.41799500  0.66428500  1
  H  753  1  0.55768700  0.54355700  0.67317800  1
  H  754  1  0.51815000  0.56061200  0.66807700  1
  H  756  1  0.58415400  0.48752200  0.68849900  1
  H  758  1  0.42200900  0.49135200  0.64603100  1
  H  765  1  0.02855900  0.57375600  0.16439500  1
  H  767  1  0.94471000  0.44825800  0.17301600  1
  H  768  1  0.98422600  0.43117900  0.16787900  1
  H  770  1  0.91829500  0.50416900  0.18841400  1
  H  772  1  0.08043600  0.50043700  0.14596500  1
  H  779  1  0.02667900  0.41824000  0.83914200  1
  H  781  1  0.94335800  0.54386200  0.82913800  1
  H  782  1  0.98309500  0.56089600  0.83355700  1
  H  784  1  0.91654100  0.48764500  0.81478500  1
  H  786  1  0.07936200  0.49220600  0.85566100  1
  H  793  1  0.47581900  0.57343000  0.33918200  1
  H  795  1  0.55908200  0.44777100  0.32917500  1
  H  796  1  0.51932600  0.43075500  0.33355800  1
  H  798  1  0.58594300  0.50397500  0.31485100  1
  H  800  1  0.42309800  0.49949300  0.35566000  1
  H  807  1  0.35855800  0.67752800  0.21771000  1
  H  808  1  0.45945000  0.65923600  0.19029000  1
  H  809  1  0.37489700  0.68449100  0.14680000  1
  H  816  1  0.41159100  0.70532600  0.24689300  1
  H  817  1  0.44078700  0.62148200  0.28998900  1
  H  818  1  0.43298000  0.60525000  0.21922000  1
  H  829  1  0.61741000  0.78767800  0.71771200  1
  H  830  1  0.51652200  0.80602500  0.69031300  1
  H  831  1  0.60103100  0.78069400  0.64680400  1
  H  838  1  0.56443200  0.75991200  0.74690100  1
  H  839  1  0.53522600  0.84374500  0.79000500  1
  H  840  1  0.54296500  0.85998000  0.71923400  1
  H  851  1  0.04203900  0.10659200  0.46980400  1
  H  852  1  0.06016800  0.20597800  0.44017500  1
  H  853  1  0.02858800  0.12085400  0.39902200  1
  H  860  1  0.01542300  0.16089100  0.49782000  1
  H  861  1  0.10019200  0.19022200  0.54006700  1
  H  862  1  0.11531900  0.18020600  0.46926300  1
  H  873  1  0.93377800  0.35859700  0.96983300  1
  H  874  1  0.91576800  0.25920800  0.94017400  1
  H  875  1  0.94727700  0.34439300  0.89905000  1
  H  882  1  0.96047100  0.30428800  0.99782600  1
  H  883  1  0.87572800  0.27490900  0.04007740  1
  H  884  1  0.86057900  0.28493500  0.96927700  1
  H  895  1  0.61584000  0.67706000  0.96936400  1
  H  896  1  0.51547200  0.65676900  0.99694500  1
  H  897  1  0.59954700  0.68496400  0.04013240  1
  H  904  1  0.56206400  0.70407100  0.94035700  1
  H  905  1  0.53583700  0.61973000  0.89693700  1
  H  906  1  0.54282000  0.60340300  0.96784400  1
  H  917  1  0.36014400  0.78806200  0.46936900  1
  H  918  1  0.46049500  0.80842700  0.49694200  1
  H  919  1  0.37644000  0.78021300  0.54014100  1
  H  926  1  0.41391600  0.76107200  0.44036000  1
  H  927  1  0.44016000  0.84541800  0.39694500  1
  H  928  1  0.43316600  0.86173900  0.46785300  1
  H  939  1  0.93344100  0.10902200  0.71700700  1
  H  940  1  0.91217400  0.20710200  0.74751900  1
  H  941  1  0.94757700  0.12215600  0.78760700  1
  H  948  1  0.95891600  0.16425300  0.68963800  1
  H  949  1  0.87376000  0.19040100  0.64693300  1
  H  950  1  0.85826200  0.18085000  0.71784800  1
  H  961  1  0.04248700  0.35612300  0.21699300  1
  H  962  1  0.06376900  0.25805100  0.24750600  1
  H  963  1  0.02840900  0.34300600  0.28760200  1
  H  970  1  0.01699300  0.30090900  0.18962900  1
  H  971  1  0.10212000  0.27472700  0.14691300  1
  H  972  1  0.11765300  0.28427600  0.21782100  1
  H  983  1  0.11436700  0.78750700  0.46750100  1
  H  984  1  0.01475400  0.80492300  0.49698900  1
  H  985  1  0.10004700  0.77425000  0.53829200  1
  H  992  1  0.05965800  0.76012500  0.43954000  1
  H  993  1  0.03109200  0.84479400  0.39699700  1
  H  994  1  0.04110000  0.86039000  0.46775400  1
  H  1005  1  0.86160800  0.67780700  0.96750900  1
  H  1006  1  0.96119700  0.66029900  0.99700800  1
  H  1007  1  0.87592500  0.69106100  0.03830240  1
  H  1014  1  0.91629400  0.70511300  0.93954900  1
  H  1015  1  0.94488100  0.62042200  0.89702600  1
  H  1016  1  0.93488800  0.60486600  0.96778900  1
  H  1027  1  0.43678900  0.35920200  0.21765000  1
  H  1028  1  0.42153800  0.25954800  0.24756100  1
  H  1029  1  0.45238500  0.34530700  0.28832700  1
  H  1036  1  0.46282000  0.30438200  0.18897700  1
  H  1037  1  0.37731100  0.26907100  0.14941900  1
  H  1038  1  0.36491400  0.28436600  0.22005200  1
  H  1049  1  0.53915600  0.10602100  0.71771900  1
  H  1050  1  0.55422600  0.20574400  0.74757000  1
  H  1051  1  0.52346900  0.12000900  0.78838100  1
  H  1058  1  0.51305700  0.16084600  0.68899500  1
  H  1059  1  0.59863700  0.19605700  0.64946200  1
  H  1060  1  0.61094200  0.18083200  0.72010700  1
  H  1071  1  0.86381200  0.78787500  0.72016200  1
  H  1072  1  0.96208100  0.80827900  0.68966200  1
  H  1073  1  0.87670900  0.77400500  0.64953200  1
  H  1080  1  0.91931300  0.76161400  0.74743100  1
  H  1081  1  0.94513100  0.84660900  0.79035300  1
  H  1082  1  0.93557200  0.86249700  0.71949200  1
  H  1093  1  0.11216800  0.67729400  0.22013500  1
  H  1094  1  0.01386800  0.65686100  0.18968900  1
  H  1095  1  0.09918700  0.69112200  0.14950600  1
  H  1102  1  0.05666400  0.70355600  0.24742700  1
  H  1103  1  0.03084400  0.61856200  0.29035700  1
  H  1104  1  0.04039800  0.60265900  0.21949400  1
  H  1115  1  0.53993200  0.35663100  0.96968600  1
  H  1116  1  0.55857400  0.25830300  0.93882900  1
  H  1117  1  0.52457300  0.34409200  0.89905300  1
  H  1124  1  0.51446200  0.30021400  0.99739300  1
  H  1125  1  0.60002900  0.26824300  0.03797340  1
  H  1126  1  0.61382000  0.28388700  0.96729100  1
  H  1137  1  0.43598300  0.10858300  0.46978000  1
  H  1138  1  0.41715100  0.20678900  0.43880600  1
  H  1139  1  0.45122400  0.12089900  0.39914200  1
  H  1146  1  0.46141400  0.16501800  0.49741100  1
  H  1147  1  0.37586400  0.19695400  0.53801300  1
  H  1148  1  0.36202200  0.18126100  0.46734200  1
  H  1159  1  0.45341300  0.60389800  0.09726240  1
  H  1161  1  0.54274400  0.72286800  0.07892540  1
  H  1162  1  0.52089900  0.73697700  0.10184600  1
  H  1164  1  0.56173300  0.65155800  0.06484840  1
  H  1166  1  0.41660400  0.63866600  0.12664900  1
  H  1173  1  0.52255800  0.86131800  0.59727300  1
  H  1175  1  0.43316400  0.74239600  0.57894100  1
  H  1176  1  0.45499500  0.72827900  0.60186500  1
  H  1178  1  0.41421900  0.81360100  0.56485900  1
  H  1180  1  0.55936000  0.82651600  0.62664900  1
  H  1187  1  0.10653400  0.19587300  0.34496000  1
  H  1189  1  0.98875000  0.28900200  0.33204000  1
  H  1190  1  0.97668200  0.26772900  0.35565800  1
  H  1192  1  0.05105900  0.30716600  0.31582500  1
  H  1194  1  0.07444300  0.16094100  0.37655000  1
  H  1201  1  0.86967500  0.26955300  0.84480000  1
  H  1203  1  0.98719300  0.17596000  0.83225200  1
  H  1204  1  0.99916100  0.19719000  0.85590700  1
  H  1206  1  0.92514200  0.15802600  0.81585300  1
  H  1208  1  0.90161300  0.30432200  0.87651200  1
  H  1215  1  0.02564200  0.85010800  0.59316700  1
  H  1217  1  0.93027700  0.73363700  0.60405600  1
  H  1218  1  0.95135400  0.72216000  0.58024500  1
  H  1220  1  0.91307700  0.79438300  0.62118500  1
  H  1222  1  0.05979700  0.81894300  0.56096000  1
  H  1229  1  0.95052300  0.61476200  0.09296340  1
  H  1231  1  0.04545600  0.73148800  0.10429800  1
  H  1232  1  0.02431300  0.74312700  0.08054440  1
  H  1234  1  0.06283800  0.67043100  0.12119800  1
  H  1236  1  0.91617000  0.64616800  0.06092040  1
  H  1243  1  0.37195400  0.26550500  0.33996700  1
  H  1245  1  0.49379900  0.17954800  0.35718000  1
  H  1246  1  0.50700500  0.20225900  0.33439300  1
  H  1248  1  0.42854400  0.15724800  0.37069000  1
  H  1250  1  0.40498100  0.30336400  0.31016000  1
  H  1257  1  0.60513200  0.20098300  0.83898200  1
  H  1259  1  0.48229800  0.28440900  0.85832100  1
  H  1260  1  0.46860200  0.26142500  0.83577100  1
  H  1262  1  0.54957800  0.30785800  0.87088600  1
  H  1264  1  0.57153400  0.16226100  0.80986900  1
  H  1271  1  0.95367900  0.10969300  0.59732400  1
  H  1273  1  0.04244200  0.22924200  0.57937900  1
  H  1274  1  0.01982600  0.24346000  0.60195100  1
  H  1276  1  0.06250400  0.15857900  0.56572600  1
  H  1278  1  0.91607000  0.14422000  0.62642000  1
  H  1285  1  0.02202000  0.35563800  0.09746740  1
  H  1287  1  0.93362300  0.23592300  0.07923140  1
  H  1288  1  0.95629700  0.22163500  0.10176000  1
  H  1290  1  0.91340800  0.30673200  0.06570240  1
  H  1292  1  0.05980000  0.32099700  0.12644000  1
  H  1299  1  0.61660000  0.69756100  0.84702300  1
  H  1301  1  0.49807100  0.78775200  0.82926100  1
  H  1302  1  0.48410800  0.76606700  0.85228400  1
  H  1304  1  0.56848200  0.80635600  0.81490600  1
  H  1306  1  0.58189700  0.66105400  0.87663000  1
  H  1313  1  0.35927200  0.76747400  0.34710800  1
  H  1315  1  0.47798300  0.67760900  0.32915200  1
  H  1316  1  0.49196500  0.69931800  0.35216100  1
  H  1318  1  0.40727200  0.65890500  0.31482900  1
  H  1320  1  0.39402300  0.80408100  0.37665800  1
  H  1327  1  0.52094100  0.34950800  0.08972540  1
  H  1329  1  0.43537900  0.22760800  0.10757700  1
  H  1330  1  0.45785300  0.21433500  0.08470840  1
  H  1332  1  0.41308300  0.29330500  0.12104500  1
  H  1334  1  0.55860500  0.31625900  0.05987440  1
  H  1341  1  0.45485700  0.11580900  0.58982100  1
  H  1343  1  0.54075800  0.23754300  0.60747000  1
  H  1344  1  0.51831000  0.25079300  0.58458400  1
  H  1346  1  0.56285300  0.17209100  0.62105600  1
  H  1348  1  0.41728900  0.14900900  0.55991200  1
  H  1355  1  0.86392300  0.76611900  0.83928000  1
  H  1357  1  0.98407400  0.67885600  0.85856700  1
  H  1358  1  0.99852800  0.70148500  0.83606100  1
  H  1360  1  0.91206900  0.65845500  0.87183600  1
  H  1362  1  0.89878600  0.80413100  0.81055700  1
  H  1369  1  0.11202400  0.69903700  0.33930500  1
  H  1371  1  0.99189600  0.78636800  0.35852600  1
  H  1372  1  0.97745500  0.76373900  0.33601700  1
  H  1374  1  0.06397200  0.80671900  0.37183700  1
  H  1376  1  0.07717600  0.66103800  0.31057000  1
  H  1383  1  0.41223500  0.50974600  0.25640800  1
  H  1385  1  0.53940600  0.42844700  0.26503500  1
  H  1386  1  0.55568000  0.46829600  0.25988500  1
  H  1388  1  0.48402700  0.40101700  0.28056100  1
  H  1390  1  0.48453800  0.56308000  0.23799700  1
  H  1397  1  0.56376600  0.95549200  0.75644400  1
  H  1399  1  0.43659800  0.03677900  0.76514200  1
  H  1400  1  0.42032500  0.99693600  0.75997200  1
  H  1402  1  0.49194000  0.06420300  0.78064200  1
  H  1404  1  0.49147800  0.90218900  0.73800100  1
  H  1411  1  0.21101600  0.15901300  0.50583900  1
  H  1413  1  0.29404200  0.28506500  0.51448900  1
  H  1414  1  0.25444000  0.30187800  0.50927300  1
  H  1416  1  0.32068400  0.22949200  0.53000300  1
  H  1418  1  0.15867400  0.23170900  0.48724000  1
  H  1425  1  0.76485700  0.30613900  0.00575839  1
  H  1427  1  0.68185500  0.18009300  0.01453440  1
  H  1428  1  0.72147100  0.16327700  0.00937439  1
  H  1430  1  0.65518800  0.23574100  0.02998240  1
  H  1432  1  0.81720200  0.23343200  0.98725300  1
  H  1439  1  0.56395300  0.50770200  0.93142300  1
  H  1441  1  0.43687400  0.42654000  0.92169500  1
  H  1442  1  0.42054700  0.46652600  0.92629200  1
  H  1444  1  0.49259100  0.39896000  0.90690500  1
  H  1446  1  0.49099600  0.56150900  0.94833600  1
  H  1453  1  0.41203600  0.95740900  0.43143400  1
  H  1455  1  0.53909000  0.03864600  0.42182800  1
  H  1456  1  0.55543300  0.99866200  0.42640500  1
  H  1458  1  0.48340400  0.06622100  0.40705500  1
  H  1460  1  0.48499700  0.90361300  0.44835900  1
  H  1467  1  0.76258700  0.15929700  0.68197900  1
  H  1469  1  0.67944300  0.28510500  0.67231800  1
  H  1470  1  0.71915900  0.30205200  0.67695100  1
  H  1472  1  0.65275700  0.22907300  0.65752500  1
  H  1474  1  0.81525800  0.23281900  0.69905500  1
  H  1481  1  0.21333300  0.30585500  0.18200600  1
  H  1483  1  0.29645100  0.18006100  0.17216000  1
  H  1484  1  0.25673100  0.16310800  0.17677400  1
  H  1486  1  0.32314700  0.23614100  0.15743600  1
  H  1488  1  0.16069100  0.23232200  0.19902600  1
  H  1495  1  0.06350900  0.95542300  0.43118200  1
  H  1497  1  0.93874700  0.04019000  0.42183500  1
  H  1498  1  0.92131200  0.00082595  0.42695600  1
  H  1500  1  0.99499500  0.06609700  0.40663600  1
  H  1502  1  0.98985200  0.90412000  0.44940500  1
  H  1509  1  0.91240900  0.50985100  0.93111100  1
  H  1511  1  0.03713100  0.42495000  0.92205600  1
  H  1512  1  0.05457600  0.46429300  0.92722500  1
  H  1514  1  0.98097800  0.39910000  0.90674600  1
  H  1516  1  0.98601500  0.56107000  0.94952400  1
  H  1523  1  0.91309500  0.95755700  0.75525100  1
  H  1525  1  0.03774900  0.04220000  0.76569800  1
  H  1526  1  0.05523600  0.00267795  0.76121200  1
  H  1528  1  0.98124600  0.06833800  0.77996000  1
  H  1530  1  0.98749600  0.90574800  0.73868200  1
  H  1537  1  0.06287700  0.50758600  0.25523200  1
  H  1539  1  0.93820700  0.42298000  0.26571500  1
  H  1540  1  0.92072600  0.46250800  0.26124300  1
  H  1542  1  0.99474800  0.39682200  0.27997500  1
  H  1544  1  0.98849500  0.55940500  0.23868100  1
  H  1551  1  0.71073400  0.65473000  0.00658839  1
  H  1553  1  0.79442200  0.78029200  0.01548140  1
  H  1554  1  0.75488500  0.79734700  0.01038040  1
  H  1556  1  0.82088900  0.72425700  0.03080240  1
  H  1558  1  0.65874400  0.72808700  0.98833400  1
  H  1565  1  0.26529400  0.81049100  0.50669800  1
  H  1567  1  0.18144500  0.68499300  0.51531900  1
  H  1568  1  0.22096100  0.66791400  0.51018200  1
  H  1570  1  0.15503000  0.74090400  0.53071700  1
  H  1572  1  0.31717100  0.73717200  0.48826800  1
  H  1579  1  0.26341400  0.65497500  0.18144500  1
  H  1581  1  0.18009300  0.78059700  0.17144100  1
  H  1582  1  0.21983000  0.79763100  0.17586000  1
  H  1584  1  0.15327600  0.72438000  0.15708800  1
  H  1586  1  0.31609700  0.72894100  0.19796400  1
  H  1593  1  0.71255400  0.81016500  0.68148500  1
  H  1595  1  0.79581700  0.68450600  0.67147800  1
  H  1596  1  0.75606100  0.66749000  0.67586100  1
  H  1598  1  0.82267800  0.74071000  0.65715400  1
  H  1600  1  0.65983300  0.73622800  0.69796300  1
  C  1  1  0.17456000  0.43195500  0.86519600  1
  C  2  1  0.13881700  0.44078800  0.86179400  1
  C  3  1  0.12542400  0.44698200  0.83962300  1
  C  4  1  0.14798000  0.44378900  0.82061600  1
  C  5  1  0.18387700  0.43518500  0.82350000  1
  C  6  1  0.19690500  0.42951600  0.84584900  1
  C  10  1  0.18590300  0.42091800  0.88727000  1
  C  11  1  0.18276700  0.44303100  0.90669000  1
  C  12  1  0.18925500  0.43024000  0.92901700  1
  C  13  1  0.19925100  0.39460800  0.93168900  1
  C  14  1  0.20281000  0.37217900  0.91265500  1
  C  15  1  0.19590700  0.38546000  0.89055400  1
  C  23  1  0.32794400  0.55981000  0.36520900  1
  C  24  1  0.36367500  0.55092500  0.36179900  1
  C  25  1  0.37705300  0.54473500  0.33962300  1
  C  26  1  0.35449000  0.54793900  0.32062400  1
  C  27  1  0.31860100  0.55656900  0.32351500  1
  C  28  1  0.30559300  0.56227200  0.34586500  1
  C  32  1  0.31662500  0.57085500  0.38728700  1
  C  33  1  0.31979800  0.54873900  0.40670500  1
  C  34  1  0.31330300  0.56152000  0.42903300  1
  C  35  1  0.30328700  0.59714900  0.43170500  1
  C  36  1  0.29969900  0.61957800  0.41267400  1
  C  37  1  0.30659000  0.60630200  0.39057000  1
  C  45  1  0.81459500  0.92187000  0.11607600  1
  C  46  1  0.80498900  0.88617300  0.11352100  1
  C  47  1  0.79617400  0.87213500  0.09195200  1
  C  48  1  0.79758400  0.89419800  0.07251600  1
  C  49  1  0.80776100  0.92983800  0.07449900  1
  C  50  1  0.81589400  0.94347600  0.09636000  1
  C  54  1  0.82626600  0.93405400  0.13779800  1
  C  55  1  0.80435700  0.93188100  0.15736300  1
  C  56  1  0.81751700  0.93885500  0.17951800  1
  C  57  1  0.85330400  0.94846100  0.18187400  1
  C  58  1  0.87549100  0.95119400  0.16265700  1
  C  59  1  0.86185500  0.94381000  0.14070800  1
  C  67  1  0.68782100  0.06984300  0.61608800  1
  C  68  1  0.69738200  0.10555400  0.61354500  1
  C  69  1  0.70617300  0.11962000  0.59198200  1
  C  70  1  0.70482600  0.09755900  0.57254200  1
  C  71  1  0.69468600  0.06190700  0.57451200  1
  C  72  1  0.68655500  0.04824600  0.59636800  1
  C  76  1  0.67616300  0.05762900  0.63780600  1
  C  77  1  0.69807900  0.05978700  0.65736700  1
  C  78  1  0.68491900  0.05281100  0.67952200  1
  C  79  1  0.64914100  0.04319100  0.68188100  1
  C  80  1  0.62695100  0.04041200  0.66266200  1
  C  81  1  0.64058200  0.04785000  0.64071900  1
  C  89  1  0.32657900  0.43054200  0.63736900  1
  C  90  1  0.36213400  0.44015600  0.64068400  1
  C  91  1  0.37542500  0.44690600  0.66280100  1
  C  92  1  0.35292500  0.44359400  0.68181700  1
  C  93  1  0.31719100  0.43399900  0.67910600  1
  C  94  1  0.30437300  0.42767500  0.65676600  1
  C  98  1  0.31542100  0.41930500  0.61529900  1
  C  99  1  0.31807200  0.44159000  0.59593500  1
  C  100  1  0.31221700  0.42859300  0.57360000  1
  C  101  1  0.30324500  0.39278000  0.57074500  1
  C  102  1  0.29985700  0.37026900  0.58976000  1
  C  103  1  0.30622500  0.38364500  0.61191900  1
  C  111  1  0.17592700  0.56113300  0.13737200  1
  C  112  1  0.14038300  0.55147400  0.14068900  1
  C  113  1  0.12709200  0.54475600  0.16281000  1
  C  114  1  0.14959100  0.54810000  0.18182300  1
  C  115  1  0.18531900  0.55771400  0.17910900  1
  C  116  1  0.19812800  0.56404000  0.15676700  1
  C  120  1  0.18706700  0.57237500  0.11529700  1
  C  121  1  0.18440400  0.55009100  0.09593600  1
  C  122  1  0.19029200  0.56308500  0.07360300  1
  C  123  1  0.19927400  0.59889800  0.07075100  1
  C  124  1  0.20266300  0.62140300  0.08976800  1
  C  125  1  0.19628600  0.60803000  0.11192700  1
  C  133  1  0.68597400  0.92378800  0.38660300  1
  C  134  1  0.69668200  0.88835900  0.38880700  1
  C  135  1  0.70613600  0.87419700  0.41019800  1
  C  136  1  0.70439200  0.89590000  0.42977600  1
  C  137  1  0.69292600  0.93129500  0.42830900  1
  C  138  1  0.68390900  0.94486200  0.40654700  1
  C  142  1  0.67416100  0.93601100  0.36491600  1
  C  143  1  0.69631700  0.93452000  0.34544300  1
  C  144  1  0.68301200  0.94086900  0.32326100  1
  C  145  1  0.64703900  0.94930500  0.32065600  1
  C  146  1  0.62469100  0.95171200  0.33982500  1
  C  147  1  0.63835100  0.94481800  0.36185300  1
  C  155  1  0.81648400  0.06788900  0.88658900  1
  C  156  1  0.80578600  0.10332000  0.88879300  1
  C  157  1  0.79637200  0.11749800  0.91018900  1
  C  158  1  0.79810000  0.09578800  0.92976500  1
  C  159  1  0.80956300  0.06039200  0.92829700  1
  C  160  1  0.81855900  0.04681800  0.90653300  1
  C  164  1  0.82828100  0.05565600  0.86490000  1
  C  165  1  0.80611200  0.05713400  0.84543300  1
  C  166  1  0.81940900  0.05079200  0.82325000  1
  C  167  1  0.85537900  0.04234300  0.82063900  1
  C  168  1  0.87773200  0.03989700  0.83980600  1
  C  169  1  0.86408600  0.04683400  0.86183000  1
  C  177  1  0.82551400  0.55966300  0.13655500  1
  C  178  1  0.86129200  0.55040600  0.13916600  1
  C  179  1  0.87535400  0.54183700  0.16076900  1
  C  180  1  0.85321400  0.54308900  0.18017300  1
  C  181  1  0.81749100  0.55295500  0.17814200  1
  C  182  1  0.80384200  0.56086000  0.15624400  1
  C  186  1  0.81328800  0.57115000  0.11480600  1
  C  187  1  0.81532900  0.54908100  0.09531100  1
  C  188  1  0.80851300  0.56214300  0.07310900  1
  C  189  1  0.79920700  0.59798500  0.07063000  1
  C  190  1  0.79660300  0.62034600  0.08977200  1
  C  191  1  0.80385800  0.60680500  0.11176700  1
  C  199  1  0.67697600  0.43212600  0.63656800  1
  C  200  1  0.64121000  0.44143200  0.63917500  1
  C  201  1  0.62714800  0.45000400  0.66077800  1
  C  202  1  0.64927800  0.44871600  0.68018600  1
  C  203  1  0.68499800  0.43883600  0.67815500  1
  C  204  1  0.69864200  0.43090300  0.65626100  1
  C  208  1  0.68919400  0.42062000  0.61481800  1
  C  209  1  0.68712900  0.44267900  0.59532100  1
  C  210  1  0.69397100  0.42960800  0.57312400  1
  C  211  1  0.70328700  0.39376900  0.57065600  1
  C  212  1  0.70590700  0.37142200  0.58980400  1
  C  213  1  0.69865000  0.38497100  0.61179700  1
  C  221  1  0.19222200  0.07031600  0.88692600  1
  C  222  1  0.20124000  0.10618100  0.88932200  1
  C  223  1  0.21035500  0.12041600  0.91079500  1
  C  224  1  0.20991400  0.09835500  0.93026600  1
  C  225  1  0.20049300  0.06250800  0.92838700  1
  C  226  1  0.19202700  0.04869200  0.90664400  1
  C  230  1  0.17958900  0.05779900  0.86553200  1
  C  231  1  0.20053400  0.05924600  0.84551700  1
  C  232  1  0.18668900  0.05002700  0.82388700  1
  C  233  1  0.15120200  0.03883700  0.82259800  1
  C  234  1  0.12967500  0.03754600  0.84228900  1
  C  235  1  0.14409600  0.04723800  0.86357500  1
  C  243  1  0.31013600  0.92147300  0.38696100  1
  C  244  1  0.30117700  0.88559700  0.38937500  1
  C  245  1  0.29208400  0.87137200  0.41085800  1
  C  246  1  0.29242300  0.89348000  0.43031000  1
  C  247  1  0.30178700  0.92934000  0.42840700  1
  C  248  1  0.31026500  0.94313400  0.40666200  1
  C  252  1  0.32280100  0.93396200  0.36556800  1
  C  253  1  0.30187700  0.93251000  0.34554500  1
  C  254  1  0.31575200  0.94169800  0.32391700  1
  C  255  1  0.35124600  0.95286400  0.32264200  1
  C  256  1  0.37276300  0.95412900  0.34234000  1
  C  257  1  0.35830600  0.94448900  0.36362400  1
  C  265  1  0.67867200  0.56140200  0.36596000  1
  C  266  1  0.64312800  0.55109300  0.36374700  1
  C  267  1  0.62884500  0.54193700  0.34233800  1
  C  268  1  0.65056900  0.54349100  0.32276100  1
  C  269  1  0.68610300  0.55454100  0.32423200  1
  C  270  1  0.69976000  0.56333500  0.34601400  1
  C  274  1  0.69102700  0.57300200  0.38766100  1
  C  275  1  0.68958300  0.55073000  0.40708100  1
  C  276  1  0.69586200  0.56392700  0.42930200  1
  C  277  1  0.70416100  0.59991800  0.43199400  1
  C  278  1  0.70650200  0.62239200  0.41288700  1
  C  279  1  0.69966300  0.60883300  0.39082500  1
  C  287  1  0.82382800  0.43028400  0.86596100  1
  C  288  1  0.85936400  0.44060900  0.86372900  1
  C  289  1  0.87362900  0.44973900  0.84230800  1
  C  290  1  0.85188600  0.44815000  0.82274000  1
  C  291  1  0.81635200  0.43711000  0.82423500  1
  C  292  1  0.80271900  0.42833500  0.84602600  1
  C  296  1  0.81150400  0.41867900  0.88767000  1
  C  297  1  0.81297500  0.44095600  0.90708600  1
  C  298  1  0.80666200  0.42776700  0.92930500  1
  C  299  1  0.79836000  0.39177600  0.93199900  1
  C  300  1  0.79601400  0.36929900  0.91289100  1
  C  301  1  0.80285000  0.38285100  0.89082800  1
  C  309  1  0.31258000  0.06827200  0.61528600  1
  C  310  1  0.30252400  0.10390300  0.61325100  1
  C  311  1  0.29306500  0.11836300  0.59192500  1
  C  312  1  0.29409100  0.09672200  0.57227700  1
  C  313  1  0.30477000  0.06108900  0.57365800  1
  C  314  1  0.31374500  0.04721400  0.59531900  1
  C  318  1  0.32509000  0.05561900  0.63667400  1
  C  319  1  0.30353900  0.05600100  0.65642700  1
  C  320  1  0.31734900  0.04730300  0.67813400  1
  C  321  1  0.35309300  0.03746400  0.67994200  1
  C  322  1  0.37507000  0.03683800  0.66043400  1
  C  323  1  0.36085800  0.04618300  0.63899900  1
  C  331  1  0.18978700  0.92342700  0.11532000  1
  C  332  1  0.19988300  0.88780100  0.11332600  1
  C  333  1  0.20930800  0.87328400  0.09201400  1
  C  334  1  0.20826300  0.89487700  0.07234300  1
  C  335  1  0.19754200  0.93050600  0.07367100  1
  C  336  1  0.18855100  0.94441800  0.09532300  1
  C  340  1  0.17730100  0.93612200  0.13670500  1
  C  341  1  0.19887100  0.93577400  0.15645000  1
  C  342  1  0.18507400  0.94446500  0.17816000  1
  C  343  1  0.14932800  0.95428700  0.17997600  1
  C  344  1  0.12732600  0.95485500  0.16048100  1
  C  345  1  0.14152900  0.94552800  0.13904000  1
  C  353  1  0.27502300  0.42264300  0.73387800  1
  C  355  1  0.23078600  0.38998200  0.75370300  1
  C  356  1  0.22615200  0.41777400  0.76943000  1
  C  358  1  0.27049100  0.45102200  0.74940000  1
  C  363  1  0.30101400  0.42184400  0.71754900  1
  C  365  1  0.20144400  0.41633300  0.78675100  1
  C  367  1  0.22747000  0.56912200  0.23388100  1
  C  369  1  0.27170600  0.60177300  0.25371400  1
  C  370  1  0.27631700  0.57398300  0.26944800  1
  C  372  1  0.23199000  0.54074200  0.24940200  1
  C  377  1  0.20148800  0.56993400  0.21754600  1
  C  379  1  0.30103800  0.57540800  0.28676100  1
  C  381  1  0.81429800  0.01956900  0.98417900  1
  C  383  1  0.84741400  0.97404100  0.00243900  1
  C  384  1  0.82136300  0.97050900  0.01949900  1
  C  386  1  0.78757800  0.01598900  0.00100900  1
  C  391  1  0.81402700  0.04576200  0.96793700  1
  C  393  1  0.82384100  0.94605100  0.03692400  1
  C  395  1  0.68833100  0.97215500  0.48419500  1
  C  397  1  0.65527500  0.01783500  0.50234200  1
  C  398  1  0.68120500  0.02125300  0.51949000  1
  C  400  1  0.71494000  0.97563300  0.50111000  1
  C  405  1  0.68862800  0.94595700  0.46795500  1
  C  407  1  0.67870400  0.04572200  0.53690800  1
  C  409  1  0.72724200  0.55844000  0.26833200  1
  C  411  1  0.77351600  0.59132000  0.25067100  1
  C  412  1  0.77657000  0.56589400  0.23317500  1
  C  414  1  0.73034600  0.53233600  0.25104900  1
  C  419  1  0.70096500  0.55800000  0.28453800  1
  C  421  1  0.80114100  0.56854300  0.21581700  1
  C  423  1  0.77519200  0.43307300  0.76836000  1
  C  425  1  0.72907000  0.40015600  0.75056200  1
  C  426  1  0.72589300  0.42574400  0.73317800  1
  C  428  1  0.77196700  0.45933700  0.75119000  1
  C  433  1  0.80148000  0.43344100  0.78455600  1
  C  435  1  0.70133800  0.42314600  0.71580800  1
  C  437  1  0.19254400  0.97155000  0.01799500  1
  C  439  1  0.15848600  0.01538300  0.99876300  1
  C  440  1  0.18598100  0.02110600  0.98296800  1
  C  442  1  0.22065500  0.97729800  0.00244200  1
  C  447  1  0.19278100  0.94512500  0.03404500  1
  C  449  1  0.18351600  0.04562400  0.96558900  1
  C  451  1  0.31069600  0.02018300  0.51803500  1
  C  453  1  0.34489100  0.97711400  0.49819700  1
  C  454  1  0.31688800  0.97080900  0.48288300  1
  C  456  1  0.28209100  0.01385800  0.50297200  1
  C  461  1  0.31061700  0.04652700  0.53413100  1
  C  463  1  0.31920600  0.94633800  0.46547000  1
  C  465  1  0.77541000  0.92868300  0.23435800  1
  C  467  1  0.73086400  0.89589500  0.25379400  1
  C  468  1  0.72555400  0.92385300  0.26930200  1
  C  470  1  0.77018300  0.95722800  0.24964900  1
  C  475  1  0.80166100  0.92802800  0.21822000  1
  C  477  1  0.70063300  0.92230700  0.28647700  1
  C  479  1  0.72701900  0.06310300  0.73435100  1
  C  481  1  0.77144600  0.09592500  0.75387600  1
  C  482  1  0.77685900  0.06788600  0.76930700  1
  C  484  1  0.73234500  0.03447900  0.74956400  1
  C  489  1  0.70077500  0.06377900  0.71820800  1
  C  491  1  0.80178000  0.06941400  0.78648400  1
  C  493  1  0.32454800  0.51953100  0.48388000  1
  C  495  1  0.35713300  0.47508800  0.50356600  1
  C  496  1  0.32951700  0.47070800  0.51945900  1
  C  498  1  0.29634200  0.51524600  0.49956300  1
  C  503  1  0.32532100  0.54550900  0.46753900  1
  C  505  1  0.33096100  0.44600900  0.53678500  1
  C  507  1  0.17794600  0.47220200  0.98386400  1
  C  509  1  0.14531100  0.51654800  0.00360800  1
  C  510  1  0.17296100  0.52098000  0.01946700  1
  C  512  1  0.20619300  0.47655600  0.99950800  1
  C  517  1  0.17719800  0.44624600  0.96751100  1
  C  519  1  0.17151700  0.54566900  0.03680000  1
  C  521  1  0.22725300  0.05548000  0.76810200  1
  C  523  1  0.27082500  0.08951200  0.74860600  1
  C  524  1  0.27641200  0.06195600  0.73283600  1
  C  526  1  0.23286100  0.02731100  0.75257000  1
  C  531  1  0.20101500  0.05526200  0.78427600  1
  C  533  1  0.30077700  0.06435500  0.71536500  1
  C  535  1  0.27520700  0.93630300  0.26811800  1
  C  537  1  0.23155700  0.90230800  0.24867000  1
  C  538  1  0.22603200  0.92982400  0.23286100  1
  C  540  1  0.26966200  0.96443200  0.25254800  1
  C  545  1  0.30144800  0.93651400  0.28429300  1
  C  547  1  0.20165800  0.92742800  0.21539500  1
  C  549  1  0.68319100  0.47182100  0.51837300  1
  C  551  1  0.65027700  0.51578500  0.49847300  1
  C  552  1  0.67850600  0.52133300  0.48320900  1
  C  554  1  0.71199700  0.47727400  0.50332500  1
  C  559  1  0.68239700  0.44566700  0.53457900  1
  C  561  1  0.67702000  0.54617400  0.46598100  1
  C  563  1  0.81929300  0.51990200  0.01836700  1
  C  565  1  0.85219900  0.47590300  0.99849300  1
  C  566  1  0.82398800  0.47037400  0.98321200  1
  C  568  1  0.79049800  0.51445400  0.00330800  1
  C  573  1  0.82007700  0.54606100  0.03456900  1
  C  575  1  0.82547400  0.44552200  0.96599100  1
  C  577  1  0.23427000  0.21015900  0.92160300  1
  C  579  1  0.19996400  0.26206800  0.91555900  1
  C  580  1  0.23084700  0.28212000  0.91257100  1
  C  582  1  0.26559600  0.23004900  0.91881500  1
  C  587  1  0.23353300  0.17446300  0.92540400  1
  C  589  1  0.23041800  0.31730400  0.90699300  1
  C  591  1  0.26826600  0.78160500  0.42167900  1
  C  593  1  0.30256900  0.72969900  0.41560300  1
  C  594  1  0.27168500  0.70965000  0.41261600  1
  C  596  1  0.23694100  0.76171900  0.41887700  1
  C  601  1  0.26901000  0.81729600  0.42550400  1
  C  603  1  0.27211400  0.67447400  0.40701400  1
  C  605  1  0.03792200  0.98018300  0.17106600  1
  C  607  1  0.98556200  0.94659100  0.16498200  1
  C  608  1  0.96595800  0.97774500  0.16193900  1
  C  610  1  0.01848000  0.01177800  0.16821600  1
  C  615  1  0.07358600  0.97893600  0.17493800  1
  C  617  1  0.93076100  0.97775500  0.15641400  1
  C  619  1  0.46448500  0.01150800  0.67103100  1
  C  621  1  0.51685100  0.04509600  0.66494700  1
  C  622  1  0.53646500  0.01393800  0.66196500  1
  C  624  1  0.48394400  0.97991000  0.66825000  1
  C  629  1  0.42881100  0.01274600  0.67487900  1
  C  631  1  0.57166000  0.01391700  0.65643200  1
  C  633  1  0.26853700  0.20809400  0.58134800  1
  C  635  1  0.30277900  0.26005000  0.58743700  1
  C  636  1  0.27185900  0.28022300  0.58984400  1
  C  638  1  0.23718500  0.22811500  0.58353700  1
  C  643  1  0.26932600  0.17237800  0.57759300  1
  C  645  1  0.27215900  0.31550700  0.59515300  1
  C  647  1  0.23396500  0.78359100  0.08145200  1
  C  649  1  0.19973800  0.73160600  0.08747400  1
  C  650  1  0.23066400  0.71144700  0.08988500  1
  C  652  1  0.26532200  0.76358100  0.08364900  1
  C  657  1  0.23315600  0.81930900  0.07771500  1
  C  659  1  0.23037000  0.67615500  0.09517400  1
  C  661  1  0.46207000  0.98026200  0.33194500  1
  C  663  1  0.51454900  0.94682700  0.33801600  1
  C  664  1  0.53421400  0.97806100  0.34047200  1
  C  666  1  0.48158500  0.01192500  0.33418400  1
  C  671  1  0.42638600  0.97890200  0.32815800  1
  C  673  1  0.56950600  0.97827600  0.34572300  1
  C  675  1  0.04036700  0.01143200  0.83187100  1
  C  677  1  0.98789600  0.04485800  0.83798800  1
  C  678  1  0.96822300  0.01362100  0.84040300  1
  C  680  1  0.02084600  0.97976800  0.83406400  1
  C  685  1  0.07605400  0.01279000  0.82809200  1
  C  687  1  0.93294400  0.01339600  0.84568300  1
  C  689  1  0.76986000  0.78312000  0.08102000  1
  C  691  1  0.80264000  0.73030400  0.08730100  1
  C  692  1  0.77118000  0.71113100  0.09016100  1
  C  694  1  0.73796100  0.76411500  0.08368200  1
  C  699  1  0.77164900  0.81878000  0.07721400  1
  C  701  1  0.77061500  0.67594700  0.09572000  1
  C  703  1  0.73256100  0.20862100  0.58108900  1
  C  705  1  0.69980200  0.26147300  0.58729200  1
  C  706  1  0.73126700  0.28061000  0.59023200  1
  C  708  1  0.76446200  0.22758800  0.58383800  1
  C  713  1  0.73074600  0.17296700  0.57726900  1
  C  715  1  0.73183800  0.31579400  0.59579600  1
  C  717  1  0.73317100  0.78529000  0.42102300  1
  C  719  1  0.70046500  0.73240800  0.41477400  1
  C  720  1  0.73196700  0.71311200  0.41254100  1
  C  722  1  0.76509900  0.76614800  0.41901900  1
  C  727  1  0.73132200  0.82097900  0.42470600  1
  C  729  1  0.73266900  0.67782500  0.40728500  1
  C  731  1  0.76931500  0.20639900  0.92102600  1
  C  733  1  0.80203700  0.25927400  0.91478100  1
  C  734  1  0.77054100  0.27858500  0.91256300  1
  C  736  1  0.73739600  0.22555200  0.91904200  1
  C  741  1  0.77115400  0.17070700  0.92469700  1
  C  743  1  0.76984400  0.31386300  0.90728800  1
  C  745  1  0.53794600  0.47552700  0.67189100  1
  C  747  1  0.48539400  0.44224200  0.66579800  1
  C  748  1  0.46592400  0.47351200  0.66288500  1
  C  750  1  0.51864700  0.50723700  0.66918600  1
  C  755  1  0.57364100  0.47407300  0.67562000  1
  C  757  1  0.43073700  0.47374900  0.65729300  1
  C  759  1  0.96453500  0.51626900  0.17187400  1
  C  761  1  0.01713300  0.54951500  0.16585600  1
  C  762  1  0.03656800  0.51823700  0.16288500  1
  C  764  1  0.98379200  0.48454900  0.16909300  1
  C  769  1  0.92884600  0.51776100  0.17561200  1
  C  771  1  0.07174500  0.51798700  0.15727200  1
  C  773  1  0.96279600  0.47579800  0.83133200  1
  C  775  1  0.01535800  0.44248200  0.83737600  1
  C  776  1  0.03502500  0.47375400  0.83961900  1
  C  778  1  0.98230300  0.50750000  0.83334300  1
  C  783  1  0.92707000  0.47435700  0.82772800  1
  C  785  1  0.07032700  0.47406200  0.84487000  1
  C  787  1  0.53967700  0.51584600  0.33137600  1
  C  789  1  0.48712500  0.54918600  0.33739300  1
  C  790  1  0.46743600  0.51792400  0.33961000  1
  C  792  1  0.52014900  0.48415200  0.33333333  1
  C  797  1  0.57541100  0.51726600  0.32779200  1
  C  799  1  0.43213600  0.51762900  0.34486600  1
  C  801  1  0.41129500  0.66869000  0.20749900  1
  C  802  1  0.37555200  0.67752300  0.20409700  1
  C  803  1  0.36215900  0.68371700  0.18192600  1
  C  804  1  0.38471500  0.68052400  0.16291900  1
  C  805  1  0.42061200  0.67192000  0.16580300  1
  C  806  1  0.43364000  0.66625100  0.18815200  1
  C  810  1  0.42263800  0.65765300  0.22957300  1
  C  811  1  0.41950200  0.67976600  0.24899300  1
  C  812  1  0.42599000  0.66697500  0.27132000  1
  C  813  1  0.43598600  0.63134300  0.27399200  1
  C  814  1  0.43954500  0.60891400  0.25495800  1
  C  815  1  0.43264200  0.62219500  0.23285700  1
  C  823  1  0.56467900  0.79654500  0.70751200  1
  C  824  1  0.60041000  0.78766000  0.70410200  1
  C  825  1  0.61378800  0.78147000  0.68192600  1
  C  826  1  0.59122500  0.78467400  0.66292700  1
  C  827  1  0.55533600  0.79330400  0.66581800  1
  C  828  1  0.54232800  0.79900700  0.68816800  1
  C  832  1  0.55336000  0.80759000  0.72959000  1
  C  833  1  0.55653300  0.78547400  0.74900800  1
  C  834  1  0.55003800  0.79825500  0.77133600  1
  C  835  1  0.54002200  0.83388400  0.77400800  1
  C  836  1  0.53643400  0.85631300  0.75497700  1
  C  837  1  0.54332500  0.84303700  0.73287300  1
  C  845  1  0.05133000  0.15860500  0.45837900  1
  C  846  1  0.04172400  0.12290800  0.45582400  1
  C  847  1  0.03290900  0.10887000  0.43425500  1
  C  848  1  0.03431900  0.13093300  0.41481900  1
  C  849  1  0.04449600  0.16657300  0.41680200  1
  C  850  1  0.05262900  0.18021100  0.43866300  1
  C  854  1  0.06300100  0.17078900  0.48010100  1
  C  855  1  0.04109200  0.16861600  0.49966600  1
  C  856  1  0.05425200  0.17559000  0.52182100  1
  C  857  1  0.09003900  0.18519600  0.52417700  1
  C  858  1  0.11222600  0.18792900  0.50496000  1
  C  859  1  0.09859000  0.18054500  0.48301100  1
  C  867  1  0.92455600  0.30657800  0.95839100  1
  C  868  1  0.93411700  0.34228900  0.95584800  1
  C  869  1  0.94290800  0.35635500  0.93428500  1
  C  870  1  0.94156100  0.33429400  0.91484500  1
  C  871  1  0.93142100  0.29864200  0.91681500  1
  C  872  1  0.92329000  0.28498100  0.93867100  1
  C  876  1  0.91289800  0.29436400  0.98010900  1
  C  877  1  0.93481400  0.29652200  0.99967000  1
  C  878  1  0.92165400  0.28954600  0.02182540  1
  C  879  1  0.88587600  0.27992600  0.02418440  1
  C  880  1  0.86368600  0.27714700  0.00496539  1
  C  881  1  0.87731700  0.28458500  0.98302200  1
  C  889  1  0.56331400  0.66727700  0.97967200  1
  C  890  1  0.59886900  0.67689100  0.98298700  1
  C  891  1  0.61216000  0.68364100  0.00510439  1
  C  892  1  0.58966000  0.68032900  0.02412040  1
  C  893  1  0.55392600  0.67073400  0.02140940  1
  C  894  1  0.54110800  0.66441000  0.99906900  1
  C  898  1  0.55215600  0.65604000  0.95760200  1
  C  899  1  0.55480700  0.67832500  0.93823800  1
  C  900  1  0.54895200  0.66532800  0.91590300  1
  C  901  1  0.53998000  0.62951500  0.91304800  1
  C  902  1  0.53659200  0.60700400  0.93206300  1
  C  903  1  0.54296000  0.62038000  0.95422200  1
  C  911  1  0.41266200  0.79786800  0.47967500  1
  C  912  1  0.37711800  0.78820900  0.48299200  1
  C  913  1  0.36382700  0.78149100  0.50511300  1
  C  914  1  0.38632600  0.78483500  0.52412600  1
  C  915  1  0.42205400  0.79444900  0.52141200  1
  C  916  1  0.43486300  0.80077500  0.49907000  1
  C  920  1  0.42380200  0.80911000  0.45760000  1
  C  921  1  0.42113900  0.78682600  0.43823900  1
  C  922  1  0.42702700  0.79982000  0.41590600  1
  C  923  1  0.43600900  0.83563300  0.41305400  1
  C  924  1  0.43939800  0.85813800  0.43207100  1
  C  925  1  0.43302100  0.84476500  0.45423000  1
  C  933  1  0.92270900  0.16052300  0.72890600  1
  C  934  1  0.93341700  0.12509400  0.73111000  1
  C  935  1  0.94287100  0.11093200  0.75250100  1
  C  936  1  0.94112700  0.13263500  0.77207900  1
  C  937  1  0.92966100  0.16803000  0.77061200  1
  C  938  1  0.92064400  0.18159700  0.74885000  1
  C  942  1  0.91089600  0.17274600  0.70721900  1
  C  943  1  0.93305200  0.17125500  0.68774600  1
  C  944  1  0.91974700  0.17760400  0.66556400  1
  C  945  1  0.88377400  0.18604000  0.66295900  1
  C  946  1  0.86142600  0.18844700  0.68212800  1
  C  947  1  0.87508600  0.18155300  0.70415600  1
  C  955  1  0.05321900  0.30462400  0.22889200  1
  C  956  1  0.04252100  0.34005500  0.23109600  1
  C  957  1  0.03310700  0.35423300  0.25249200  1
  C  958  1  0.03483500  0.33252300  0.27206800  1
  C  959  1  0.04629800  0.29712700  0.27060000  1
  C  960  1  0.05529400  0.28355300  0.24883600  1
  C  964  1  0.06501600  0.29239100  0.20720300  1
  C  965  1  0.04284700  0.29386900  0.18773600  1
  C  966  1  0.05614400  0.28752700  0.16555300  1
  C  967  1  0.09211400  0.27907800  0.16294200  1
  C  968  1  0.11446700  0.27663200  0.18210900  1
  C  969  1  0.10082100  0.28356900  0.20413300  1
  C  977  1  0.06224900  0.79639800  0.47885800  1
  C  978  1  0.09802700  0.78714100  0.48146900  1
  C  979  1  0.11208900  0.77857200  0.50307200  1
  C  980  1  0.08994900  0.77982400  0.52247600  1
  C  981  1  0.05422600  0.78969000  0.52044500  1
  C  982  1  0.04057700  0.79759500  0.49854700  1
  C  986  1  0.05002300  0.80788500  0.45710900  1
  C  987  1  0.05206400  0.78581600  0.43761400  1
  C  988  1  0.04524800  0.79887800  0.41541200  1
  C  989  1  0.03594200  0.83472000  0.41293300  1
  C  990  1  0.03333800  0.85708100  0.43207500  1
  C  991  1  0.04059300  0.84354000  0.45407000  1
  C  999  1  0.91371100  0.66886100  0.97887100  1
  C  1000  1  0.87794500  0.67816700  0.98147800  1
  C  1001  1  0.86388300  0.68673900  0.00308139  1
  C  1002  1  0.88601300  0.68545100  0.02248940  1
  C  1003  1  0.92173300  0.67557100  0.02045840  1
  C  1004  1  0.93537700  0.66763800  0.99856400  1
  C  1008  1  0.92592900  0.65735500  0.95712100  1
  C  1009  1  0.92386400  0.67941400  0.93762400  1
  C  1010  1  0.93070600  0.66634300  0.91542700  1
  C  1011  1  0.94002200  0.63050400  0.91295900  1
  C  1012  1  0.94264200  0.60815700  0.93210700  1
  C  1013  1  0.93538500  0.62170600  0.95410000  1
  C  1021  1  0.42895700  0.30705100  0.22922900  1
  C  1022  1  0.43797500  0.34291600  0.23162500  1
  C  1023  1  0.44709000  0.35715100  0.25309800  1
  C  1024  1  0.44664900  0.33509000  0.27256900  1
  C  1025  1  0.43722800  0.29924300  0.27069000  1
  C  1026  1  0.42876200  0.28542700  0.24894700  1
  C  1030  1  0.41632400  0.29453400  0.20783500  1
  C  1031  1  0.43726900  0.29598100  0.18782000  1
  C  1032  1  0.42342400  0.28676200  0.16619000  1
  C  1033  1  0.38793700  0.27557200  0.16490100  1
  C  1034  1  0.36641000  0.27428100  0.18459200  1
  C  1035  1  0.38083100  0.28397300  0.20587800  1
  C  1043  1  0.54687100  0.15820800  0.72926400  1
  C  1044  1  0.53791200  0.12233200  0.73167800  1
  C  1045  1  0.52881900  0.10810700  0.75316100  1
  C  1046  1  0.52915800  0.13021500  0.77261300  1
  C  1047  1  0.53852200  0.16607500  0.77071000  1
  C  1048  1  0.54700000  0.17986900  0.74896500  1
  C  1052  1  0.55953600  0.17069700  0.70787100  1
  C  1053  1  0.53861200  0.16924500  0.68784800  1
  C  1054  1  0.55248700  0.17843300  0.66622000  1
  C  1055  1  0.58798100  0.18959900  0.66494500  1
  C  1056  1  0.60949800  0.19086400  0.68464300  1
  C  1057  1  0.59504100  0.18122400  0.70592700  1
  C  1065  1  0.91540700  0.79813700  0.70826300  1
  C  1066  1  0.87986300  0.78782800  0.70605000  1
  C  1067  1  0.86558000  0.77867200  0.68464100  1
  C  1068  1  0.88730400  0.78022600  0.66506400  1
  C  1069  1  0.92283800  0.79127600  0.66653500  1
  C  1070  1  0.93649500  0.80007000  0.68831700  1
  C  1074  1  0.92776200  0.80973700  0.72996400  1
  C  1075  1  0.92631800  0.78746500  0.74938400  1
  C  1076  1  0.93259700  0.80066200  0.77160500  1
  C  1077  1  0.94089600  0.83665300  0.77429700  1
  C  1078  1  0.94323700  0.85912700  0.75519000  1
  C  1079  1  0.93639800  0.84556800  0.73312800  1
  C  1087  1  0.06056300  0.66701900  0.20826400  1
  C  1088  1  0.09609900  0.67734400  0.20603200  1
  C  1089  1  0.11036400  0.68647400  0.18461100  1
  C  1090  1  0.08862100  0.68488500  0.16504300  1
  C  1091  1  0.05308700  0.67384500  0.16653800  1
  C  1092  1  0.03945400  0.66507000  0.18832900  1
  C  1096  1  0.04823900  0.65541400  0.22997300  1
  C  1097  1  0.04971000  0.67769100  0.24938900  1
  C  1098  1  0.04339700  0.66450200  0.27160800  1
  C  1099  1  0.03509500  0.62851100  0.27430200  1
  C  1100  1  0.03274900  0.60603400  0.25519400  1
  C  1101  1  0.03958500  0.61958600  0.23313100  1
  C  1109  1  0.54931500  0.30500700  0.95758900  1
  C  1110  1  0.53925900  0.34063800  0.95555400  1
  C  1111  1  0.52980000  0.35509800  0.93422800  1
  C  1112  1  0.53082600  0.33345700  0.91458000  1
  C  1113  1  0.54150500  0.29782400  0.91596100  1
  C  1114  1  0.55048000  0.28394900  0.93762200  1
  C  1118  1  0.56182500  0.29235400  0.97897700  1
  C  1119  1  0.54027400  0.29273600  0.99873000  1
  C  1120  1  0.55408400  0.28403800  0.02043740  1
  C  1121  1  0.58982800  0.27419900  0.02224540  1
  C  1122  1  0.61180500  0.27357300  0.00273739  1
  C  1123  1  0.59759300  0.28291800  0.98130200  1
  C  1131  1  0.42652200  0.16016200  0.45762300  1
  C  1132  1  0.43661800  0.12453600  0.45562900  1
  C  1133  1  0.44604300  0.11001900  0.43431700  1
  C  1134  1  0.44499800  0.13161200  0.41464600  1
  C  1135  1  0.43427700  0.16724100  0.41597400  1
  C  1136  1  0.42528600  0.18115300  0.43762600  1
  C  1140  1  0.41403600  0.17285700  0.47900800  1
  C  1141  1  0.43560600  0.17250900  0.49875300  1
  C  1142  1  0.42180900  0.18120000  0.52046300  1
  C  1143  1  0.38606300  0.19102200  0.52227900  1
  C  1144  1  0.36406100  0.19159000  0.50278400  1
  C  1145  1  0.37826400  0.18226300  0.48134300  1
  C  1153  1  0.51175800  0.65937800  0.07618140  1
  C  1155  1  0.46752100  0.62671700  0.09600640  1
  C  1156  1  0.46288700  0.65450900  0.11173300  1
  C  1158  1  0.50722600  0.68775700  0.09170340  1
  C  1163  1  0.53774900  0.65857900  0.05985240  1
  C  1165  1  0.43817900  0.65306800  0.12905400  1
  C  1167  1  0.46420500  0.80585700  0.57618400  1
  C  1169  1  0.50844100  0.83850800  0.59601700  1
  C  1170  1  0.51305200  0.81071800  0.61175100  1
  C  1172  1  0.46872500  0.77747700  0.59170500  1
  C  1177  1  0.43822300  0.80666900  0.55984900  1
  C  1179  1  0.53777300  0.81214300  0.62906400  1
  C  1181  1  0.05103300  0.25630400  0.32648200  1
  C  1183  1  0.08414900  0.21077600  0.34474200  1
  C  1184  1  0.05809800  0.20724400  0.36180200  1
  C  1186  1  0.02431300  0.25272400  0.34331200  1
  C  1191  1  0.05076200  0.28249700  0.31024000  1
  C  1193  1  0.06057600  0.18278600  0.37922700  1
  C  1195  1  0.92506600  0.20889000  0.82649800  1
  C  1197  1  0.89201000  0.25457000  0.84464500  1
  C  1198  1  0.91794000  0.25798800  0.86179300  1
  C  1200  1  0.95167500  0.21236800  0.84341300  1
  C  1205  1  0.92536300  0.18269200  0.81025800  1
  C  1207  1  0.91543900  0.28245700  0.87921100  1
  C  1209  1  0.96397700  0.79517500  0.61063500  1
  C  1211  1  0.01025100  0.82805500  0.59297400  1
  C  1212  1  0.01330500  0.80262900  0.57547800  1
  C  1214  1  0.96708100  0.76907100  0.59335200  1
  C  1219  1  0.93770000  0.79473500  0.62684100  1
  C  1221  1  0.03787600  0.80527800  0.55812000  1
  C  1223  1  0.01192700  0.66980800  0.11066300  1
  C  1225  1  0.96580500  0.63689100  0.09286540  1
  C  1226  1  0.96262800  0.66247900  0.07548140  1
  C  1228  1  0.00870195  0.69607200  0.09349340  1
  C  1233  1  0.03821500  0.67017600  0.12685900  1
  C  1235  1  0.93807300  0.65988100  0.05811140  1
  C  1237  1  0.42927900  0.20828500  0.36029800  1
  C  1239  1  0.39522100  0.25211800  0.34106600  1
  C  1240  1  0.42271600  0.25784100  0.32527100  1
  C  1242  1  0.45739000  0.21403300  0.34474500  1
  C  1247  1  0.42951600  0.18186000  0.37634800  1
  C  1249  1  0.42025100  0.28235900  0.30789200  1
  C  1251  1  0.54743100  0.25691800  0.86033800  1
  C  1253  1  0.58162600  0.21384900  0.84050000  1
  C  1254  1  0.55362300  0.20754400  0.82518600  1
  C  1256  1  0.51882600  0.25059300  0.84527500  1
  C  1261  1  0.54735200  0.28326200  0.87643400  1
  C  1263  1  0.55594100  0.18307300  0.80777300  1
  C  1265  1  0.01214500  0.16541800  0.57666100  1
  C  1267  1  0.96759900  0.13263000  0.59609700  1
  C  1268  1  0.96228900  0.16058800  0.61160500  1
  C  1270  1  0.00691795  0.19396300  0.59195200  1
  C  1275  1  0.03839600  0.16476300  0.56052300  1
  C  1277  1  0.93736800  0.15904200  0.62878000  1
  C  1279  1  0.96375400  0.29983800  0.07665440  1
  C  1281  1  0.00818095  0.33266000  0.09617940  1
  C  1282  1  0.01359400  0.30462100  0.11161000  1
  C  1284  1  0.96908000  0.27121400  0.09186740  1
  C  1289  1  0.93751000  0.30051400  0.06051140  1
  C  1291  1  0.03851500  0.30614900  0.12878700  1
  C  1293  1  0.56128300  0.75626600  0.82618300  1
  C  1295  1  0.59386800  0.71182300  0.84586900  1
  C  1296  1  0.56625200  0.70744300  0.86176200  1
  C  1298  1  0.53307700  0.75198100  0.84186600  1
  C  1303  1  0.56205600  0.78224400  0.80984200  1
  C  1305  1  0.56769600  0.68274400  0.87908800  1
  C  1307  1  0.41468100  0.70893700  0.32616700  1
  C  1309  1  0.38204600  0.75328300  0.34591100  1
  C  1310  1  0.40969600  0.75771500  0.36177000  1
  C  1312  1  0.44292800  0.71329100  0.34181100  1
  C  1317  1  0.41393300  0.68298100  0.30981400  1
  C  1319  1  0.40825200  0.78240400  0.37910300  1
  C  1321  1  0.46398800  0.29221500  0.11040500  1
  C  1323  1  0.50756000  0.32624700  0.09090940  1
  C  1324  1  0.51314700  0.29869100  0.07513940  1
  C  1326  1  0.46959600  0.26404600  0.09487340  1
  C  1331  1  0.43775000  0.29199700  0.12657900  1
  C  1333  1  0.53751200  0.30109000  0.05766840  1
  C  1335  1  0.51194200  0.17303800  0.61042100  1
  C  1337  1  0.46829200  0.13904300  0.59097300  1
  C  1338  1  0.46276700  0.16655900  0.57516400  1
  C  1340  1  0.50639700  0.20116700  0.59485100  1
  C  1345  1  0.53818300  0.17324900  0.62659600  1
  C  1347  1  0.43839300  0.16416300  0.55769800  1
  C  1349  1  0.91992600  0.70855600  0.86067600  1
  C  1351  1  0.88701200  0.75252000  0.84077600  1
  C  1352  1  0.91524100  0.75806800  0.82551200  1
  C  1354  1  0.94873200  0.71400900  0.84562800  1
  C  1359  1  0.91913200  0.68240200  0.87688200  1
  C  1361  1  0.91375500  0.78290900  0.80828400  1
  C  1363  1  0.05602800  0.75663700  0.36067000  1
  C  1365  1  0.08893400  0.71263800  0.34079600  1
  C  1366  1  0.06072300  0.70710900  0.32551500  1
  C  1368  1  0.02723300  0.75118900  0.34561100  1
  C  1373  1  0.05681200  0.78279600  0.37687200  1
  C  1375  1  0.06220900  0.68225700  0.30829400  1
  C  1377  1  0.47100500  0.44689400  0.26390600  1
  C  1379  1  0.43669900  0.49880300  0.25786200  1
  C  1380  1  0.46758200  0.51885500  0.25487400  1
  C  1382  1  0.50233100  0.46678400  0.26111800  1
  C  1387  1  0.47026800  0.41119800  0.26770700  1
  C  1389  1  0.46715300  0.55403900  0.24929600  1
  C  1391  1  0.50500100  0.01834000  0.76398200  1
  C  1393  1  0.53930400  0.96643400  0.75790600  1
  C  1394  1  0.50842000  0.94638500  0.75491900  1
  C  1396  1  0.47367600  0.99845400  0.76118000  1
  C  1401  1  0.50574500  0.05403100  0.76780700  1
  C  1403  1  0.50884900  0.91120900  0.74931700  1
  C  1405  1  0.27465700  0.21691800  0.51336900  1
  C  1407  1  0.22229700  0.18332600  0.50728500  1
  C  1408  1  0.20269300  0.21448000  0.50424200  1
  C  1410  1  0.25521500  0.24851300  0.51051900  1
  C  1415  1  0.31032100  0.21567100  0.51724100  1
  C  1417  1  0.16749600  0.21449000  0.49871700  1
  C  1419  1  0.70122000  0.24824300  0.01333440  1
  C  1421  1  0.75358600  0.28183100  0.00725039  1
  C  1422  1  0.77320000  0.25067300  0.00426839  1
  C  1424  1  0.72067900  0.21664500  0.01055340  1
  C  1429  1  0.66554600  0.24948100  0.01718240  1
  C  1431  1  0.80839500  0.25065200  0.99873500  1
  C  1433  1  0.50527200  0.44482900  0.92365100  1
  C  1435  1  0.53951400  0.49678500  0.92974000  1
  C  1436  1  0.50859400  0.51695800  0.93214700  1
  C  1438  1  0.47392000  0.46485000  0.92584000  1
  C  1443  1  0.50606100  0.40911300  0.91989600  1
  C  1445  1  0.50889400  0.55224200  0.93745600  1
  C  1447  1  0.47070000  0.02032600  0.42375500  1
  C  1449  1  0.43647300  0.96834100  0.42977700  1
  C  1450  1  0.46739900  0.94818200  0.43218800  1
  C  1452  1  0.50205700  0.00031595  0.42595200  1
  C  1457  1  0.46989100  0.05604400  0.42001800  1
  C  1459  1  0.46710500  0.91289000  0.43747700  1
  C  1461  1  0.69880500  0.21699700  0.67424800  1
  C  1463  1  0.75128400  0.18356200  0.68031900  1
  C  1464  1  0.77094900  0.21479600  0.68277500  1
  C  1466  1  0.71832000  0.24866000  0.67648700  1
  C  1471  1  0.66312100  0.21563700  0.67046100  1
  C  1473  1  0.80624100  0.21501100  0.68802600  1
  C  1475  1  0.27710200  0.24816700  0.17417400  1
  C  1477  1  0.22463100  0.28159300  0.18029100  1
  C  1478  1  0.20495800  0.25035600  0.18270600  1
  C  1480  1  0.25758100  0.21650300  0.17636700  1
  C  1485  1  0.31278900  0.24952500  0.17039500  1
  C  1487  1  0.16967900  0.25013100  0.18798600  1
  C  1489  1  0.00659495  0.01985500  0.42332300  1
  C  1491  1  0.03937500  0.96703900  0.42960400  1
  C  1492  1  0.00791495  0.94786600  0.43246400  1
  C  1494  1  0.97469600  0.00084995  0.42598500  1
  C  1499  1  0.00838395  0.05551500  0.41951700  1
  C  1501  1  0.00734995  0.91268200  0.43802300  1
  C  1503  1  0.96929600  0.44535600  0.92339200  1
  C  1505  1  0.93653700  0.49820800  0.92959500  1
  C  1506  1  0.96800200  0.51734500  0.93253500  1
  C  1508  1  0.00119695  0.46432300  0.92614100  1
  C  1513  1  0.96748100  0.40970200  0.91957200  1
  C  1515  1  0.96857300  0.55252900  0.93809900  1
  C  1517  1  0.96990600  0.02202500  0.76332600  1
  C  1519  1  0.93720000  0.96914300  0.75707700  1
  C  1520  1  0.96870200  0.94984700  0.75484400  1
  C  1522  1  0.00183395  0.00288295  0.76132200  1
  C  1527  1  0.96805700  0.05771400  0.76700900  1
  C  1529  1  0.96940400  0.91456000  0.74958800  1
  C  1531  1  0.00604995  0.44313400  0.26332900  1
  C  1533  1  0.03877200  0.49600900  0.25708400  1
  C  1534  1  0.00727595  0.51532000  0.25486600  1
  C  1536  1  0.97413100  0.46228700  0.26134500  1
  C  1541  1  0.00788895  0.40744200  0.26700000  1
  C  1543  1  0.00657895  0.55059800  0.24959100  1
  C  1545  1  0.77468100  0.71226200  0.01419440  1
  C  1547  1  0.72212900  0.67897700  0.00810139  1
  C  1548  1  0.70265900  0.71024700  0.00518839  1
  C  1550  1  0.75538200  0.74397200  0.01148940  1
  C  1555  1  0.81037600  0.71080800  0.01792340  1
  C  1557  1  0.66747200  0.71048400  0.99959600  1
  C  1559  1  0.20127000  0.75300400  0.51417700  1
  C  1561  1  0.25386800  0.78625000  0.50815900  1
  C  1562  1  0.27330300  0.75497200  0.50518800  1
  C  1564  1  0.22052700  0.72128400  0.51139600  1
  C  1569  1  0.16558100  0.75449600  0.51791500  1
  C  1571  1  0.30848000  0.75472200  0.49957500  1
  C  1573  1  0.19953100  0.71253300  0.17363500  1
  C  1575  1  0.25209300  0.67921700  0.17967900  1
  C  1576  1  0.27176000  0.71048900  0.18192200  1
  C  1578  1  0.21903800  0.74423500  0.17564600  1
  C  1583  1  0.16380500  0.71109200  0.17003100  1
  C  1585  1  0.30706200  0.71079700  0.18717300  1
  C  1587  1  0.77641200  0.75258100  0.67367900  1
  C  1589  1  0.72386000  0.78592100  0.67969600  1
  C  1590  1  0.70417100  0.75465900  0.68191300  1
  C  1592  1  0.75688400  0.72088700  0.67565900  1
  C  1597  1  0.81214600  0.75400100  0.67009500  1
  C  1599  1  0.66887100  0.75436400  0.68716900  1
  N  19  1  0.20804500  0.33818400  0.91630400  1
  N  20  1  0.18642200  0.45236100  0.94669400  1
  N  21  1  0.20568500  0.43308800  0.80570600  1
  N  22  1  0.09131600  0.45137800  0.83598200  1
  N  41  1  0.29446200  0.65357000  0.41633000  1
  N  42  1  0.31619100  0.53939300  0.44670400  1
  N  43  1  0.29678400  0.55867600  0.30572300  1
  N  44  1  0.41115600  0.54032200  0.33598000  1
  N  63  1  0.90959700  0.95602100  0.16607900  1
  N  64  1  0.79553300  0.93638500  0.19726300  1
  N  65  1  0.80874000  0.95104100  0.05638000  1
  N  66  1  0.78963000  0.83790300  0.09102600  1
  N  85  1  0.59284500  0.03562500  0.66610200  1
  N  86  1  0.70689900  0.05531600  0.69726700  1
  N  87  1  0.69372900  0.04071300  0.55638900  1
  N  88  1  0.71270400  0.15385400  0.59105700  1
  N  107  1  0.29499000  0.33621400  0.58614200  1
  N  108  1  0.31437900  0.45037300  0.55579300  1
  N  109  1  0.29501900  0.43130200  0.69676400  1
  N  110  1  0.40948300  0.45162500  0.66649800  1
  N  129  1  0.20753600  0.65545900  0.08615700  1
  N  130  1  0.18813200  0.54131100  0.05579500  1
  N  131  1  0.20748800  0.56046200  0.19676500  1
  N  132  1  0.09303500  0.54004000  0.16651200  1
  N  151  1  0.59053300  0.95605700  0.33639400  1
  N  152  1  0.70468700  0.93914900  0.30540700  1
  N  153  1  0.69069300  0.95274600  0.44641200  1
  N  154  1  0.71312200  0.84002300  0.41095900  1
  N  173  1  0.91188800  0.03558500  0.83635000  1
  N  174  1  0.79773700  0.05252900  0.80539600  1
  N  175  1  0.81182800  0.03895500  0.94640300  1
  N  176  1  0.78935400  0.15166600  0.91095000  1
  N  195  1  0.79225000  0.65448300  0.08624500  1
  N  196  1  0.81087000  0.54008200  0.05539600  1
  N  197  1  0.79620600  0.55381000  0.19623100  1
  N  198  1  0.90964400  0.53560500  0.16176900  1
  N  217  1  0.71026600  0.33728200  0.58628000  1
  N  218  1  0.69158200  0.45165900  0.55540800  1
  N  219  1  0.70627600  0.43795500  0.69624900  1
  N  220  1  0.59286600  0.45627500  0.66176500  1
  N  239  1  0.09542200  0.03090900  0.84169200  1
  N  240  1  0.20796200  0.05216100  0.80573000  1
  N  241  1  0.19990400  0.04134900  0.94651400  1
  N  242  1  0.21597700  0.15481900  0.91166700  1
  N  261  1  0.40701900  0.96075800  0.34174400  1
  N  262  1  0.29449600  0.93953800  0.30575100  1
  N  263  1  0.30240500  0.95049100  0.44653700  1
  N  264  1  0.28651300  0.83696100  0.41175400  1
  N  283  1  0.71046600  0.65656900  0.41640400  1
  N  284  1  0.69410500  0.54220000  0.44713600  1
  N  285  1  0.70759300  0.55665600  0.30613100  1
  N  286  1  0.59459400  0.53530000  0.34154900  1
  N  305  1  0.79204200  0.33512200  0.91641200  1
  N  306  1  0.80840800  0.44949700  0.94713700  1
  N  307  1  0.79484900  0.43496900  0.80614400  1
  N  308  1  0.90787600  0.45636500  0.84150500  1
  N  327  1  0.40939100  0.03071700  0.66123600  1
  N  328  1  0.29628700  0.04797900  0.69630700  1
  N  329  1  0.30676100  0.03972000  0.55555000  1
  N  330  1  0.28701200  0.15272500  0.59125900  1
  N  349  1  0.09300600  0.96095800  0.16129900  1
  N  350  1  0.20614500  0.94378700  0.19632800  1
  N  351  1  0.19550000  0.95186200  0.05554900  1
  N  352  1  0.21539900  0.83892900  0.09136300  1
  N  354  1  0.25520100  0.39325900  0.73689100  1
  N  357  1  0.24618800  0.44704000  0.76634100  1
  N  360  1  0.28870400  0.48161900  0.74849300  1
  N  368  1  0.24730000  0.59850100  0.23689600  1
  N  371  1  0.25628400  0.54471700  0.26634800  1
  N  374  1  0.21377900  0.51014600  0.24848500  1
  N  382  1  0.84315600  0.99858000  0.98578100  1
  N  385  1  0.79258600  0.99158300  0.01775000  1
  N  388  1  0.75744700  0.03501300  0.00146400  1
  N  396  1  0.65955200  0.99326700  0.48570500  1
  N  399  1  0.70990800  0.00005800  0.51783200  1
  N  402  1  0.74499700  0.95649700  0.50166000  1
  N  410  1  0.74885400  0.58689500  0.26723500  1
  N  413  1  0.75489600  0.53750700  0.23442300  1
  N  416  1  0.71075500  0.50259700  0.25005600  1
  N  424  1  0.75371700  0.40452500  0.76714200  1
  N  427  1  0.74743300  0.45422100  0.73454400  1
  N  430  1  0.79142900  0.48916800  0.75032400  1
  N  438  1  0.16260200  0.99067100  0.01532000  1
  N  441  1  0.21581300  0.00182400  0.98574900  1
  N  444  1  0.25186700  0.96013400  0.00314700  1
  N  452  1  0.34092700  0.00173200  0.51482500  1
  N  455  1  0.28677000  0.98944800  0.48618200  1
  N  458  1  0.25059300  0.03041300  0.50421700  1
  N  466  1  0.75572200  0.89918000  0.23725900  1
  N  469  1  0.74545000  0.95324000  0.26631400  1
  N  472  1  0.78812300  0.98798800  0.24876700  1
  N  480  1  0.74660200  0.09265700  0.73733400  1
  N  483  1  0.75706800  0.03844800  0.76624000  1
  N  486  1  0.71451700  0.00366200  0.74859900  1
  N  494  1  0.35382700  0.49949800  0.48675100  1
  N  497  1  0.30035900  0.49094900  0.51650200  1
  N  500  1  0.26585400  0.53365400  0.49879100  1
  N  508  1  0.14862400  0.49215600  0.98678100  1
  N  511  1  0.20216500  0.50082400  0.01646200  1
  N  514  1  0.23672700  0.45822700  0.99869000  1
  N  522  1  0.24631000  0.08543100  0.76528800  1
  N  525  1  0.25719800  0.03211200  0.73575600  1
  N  528  1  0.21573000  0.99608700  0.75340200  1
  N  536  1  0.25608100  0.90638800  0.26534700  1
  N  539  1  0.24531300  0.95963500  0.23574100  1
  N  542  1  0.28685500  0.99562600  0.25333700  1
  N  550  1  0.65350200  0.49108900  0.51511200  1
  N  553  1  0.70807500  0.50183400  0.48653800  1
  N  556  1  0.74292700  0.45967900  0.50453700  1
  N  564  1  0.84897400  0.50061600  0.01512300  1
  N  567  1  0.79442800  0.48988900  0.98652600  1
  N  570  1  0.75957500  0.53206700  0.00450100  1
  N  578  1  0.20291300  0.22716400  0.91978200  1
  N  581  1  0.26213200  0.26501700  0.91422400  1
  N  584  1  0.29851500  0.21651800  0.91986900  1
  N  592  1  0.29962200  0.76459900  0.41984400  1
  N  595  1  0.24040200  0.72675300  0.41427500  1
  N  598  1  0.20402000  0.77524700  0.41994800  1
  N  606  1  0.02048900  0.94906300  0.16924700  1
  N  609  1  0.98347700  0.00879600  0.16359100  1
  N  612  1  0.03246100  0.04451000  0.16927200  1
  N  620  1  0.48191400  0.04262800  0.66918000  1
  N  623  1  0.51895200  0.98288700  0.66364300  1
  N  626  1  0.46996900  0.94717700  0.66933400  1
  N  634  1  0.29987000  0.22508100  0.58343400  1
  N  637  1  0.24059300  0.26315500  0.58790000  1
  N  640  1  0.20426800  0.21465600  0.58210400  1
  N  648  1  0.20263700  0.76658200  0.08350000  1
  N  651  1  0.26192600  0.72853100  0.08797700  1
  N  654  1  0.29823400  0.77705900  0.08223500  1
  N  662  1  0.47954400  0.94919500  0.33400300  1
  N  665  1  0.51667200  0.00906400  0.33855200  1
  N  668  1  0.46761000  0.04462700  0.33276400  1
  N  676  1  0.02290000  0.04249700  0.83397600  1
  N  679  1  0.98576200  0.98262200  0.83844500  1
  N  682  1  0.03481500  0.94706700  0.83261100  1
  N  690  1  0.80070900  0.76526200  0.08302100  1
  N  693  1  0.74039700  0.72907800  0.08832900  1
  N  696  1  0.70544400  0.77855300  0.08244900  1
  N  704  1  0.70172000  0.22651600  0.58301300  1
  N  707  1  0.76204000  0.26262900  0.58847800  1
  N  710  1  0.79697100  0.21311600  0.58267900  1
  N  718  1  0.70235100  0.76744500  0.41876700  1
  N  721  1  0.76272400  0.73102500  0.41465800  1
  N  724  1  0.79760800  0.78051600  0.42064100  1
  N  732  1  0.80014100  0.22423400  0.91876000  1
  N  735  1  0.73977600  0.26067700  0.91468100  1
  N  738  1  0.70488100  0.21119400  0.92066300  1
  N  746  1  0.52035200  0.44451000  0.67000400  1
  N  749  1  0.48361300  0.50446100  0.66460300  1
  N  752  1  0.53280400  0.53989000  0.67030700  1
  N  760  1  0.98217200  0.54727400  0.17005700  1
  N  763  1  0.01883100  0.48730300  0.16452100  1
  N  766  1  0.96959300  0.45190900  0.17014300  1
  N  774  1  0.98031700  0.44477300  0.83348000  1
  N  777  1  0.01742600  0.50471700  0.83761300  1
  N  780  1  0.96828600  0.54017200  0.83182200  1
  N  788  1  0.52217200  0.54687900  0.33352700  1
  N  791  1  0.48502300  0.48695400  0.33760900  1
  N  794  1  0.53415100  0.45147200  0.33183900  1
  N  819  1  0.44478000  0.57491900  0.25860700  1
  N  820  1  0.42315700  0.68909600  0.28899700  1
  N  821  1  0.44242000  0.66982300  0.14800900  1
  N  822  1  0.32805100  0.68811300  0.17828500  1
  N  841  1  0.53119700  0.89030500  0.75863300  1
  N  842  1  0.55292600  0.77612800  0.78900700  1
  N  843  1  0.53351900  0.79541100  0.64802600  1
  N  844  1  0.64789100  0.77705700  0.67828300  1
  N  863  1  0.14633200  0.19275600  0.50838200  1
  N  864  1  0.03226800  0.17312000  0.53956600  1
  N  865  1  0.04547500  0.18777600  0.39868300  1
  N  866  1  0.02636500  0.07463800  0.43332900  1
  N  885  1  0.82958000  0.27236000  0.00840539  1
  N  886  1  0.94363400  0.29205100  0.03957040  1
  N  887  1  0.93046400  0.27744800  0.89869200  1
  N  888  1  0.94943900  0.39058900  0.93336000  1
  N  907  1  0.53172500  0.57294900  0.92844500  1
  N  908  1  0.55111400  0.68710800  0.89809600  1
  N  909  1  0.53175400  0.66803700  0.03906740  1
  N  910  1  0.64621800  0.68836000  0.00880139  1
  N  929  1  0.44427100  0.89219400  0.42846000  1
  N  930  1  0.42486700  0.77804600  0.39809800  1
  N  931  1  0.44422300  0.79719700  0.53906800  1
  N  932  1  0.32977000  0.77677500  0.50881500  1
  N  951  1  0.82726800  0.19279200  0.67869700  1
  N  952  1  0.94142200  0.17588400  0.64771000  1
  N  953  1  0.92742800  0.18948100  0.78871500  1
  N  954  1  0.94985700  0.07675800  0.75326200  1
  N  973  1  0.14862300  0.27232000  0.17865300  1
  N  974  1  0.03447200  0.28926400  0.14769900  1
  N  975  1  0.04856300  0.27569000  0.28870600  1
  N  976  1  0.02608900  0.38840100  0.25325300  1
  N  995  1  0.02898500  0.89121800  0.42854800  1
  N  996  1  0.04760500  0.77681700  0.39769900  1
  N  997  1  0.03294100  0.79054500  0.53853400  1
  N  998  1  0.14637900  0.77234000  0.50407200  1
  N  1017  1  0.94700100  0.57401700  0.92858300  1
  N  1018  1  0.92831700  0.68839400  0.89771100  1
  N  1019  1  0.94301100  0.67469000  0.03855240  1
  N  1020  1  0.82960100  0.69301000  0.00406839  1
  N  1039  1  0.33215700  0.26764400  0.18399500  1
  N  1040  1  0.44469700  0.28889600  0.14803300  1
  N  1041  1  0.43663900  0.27808400  0.28881700  1
  N  1042  1  0.45271200  0.39155400  0.25397000  1
  N  1061  1  0.64375400  0.19749300  0.68404700  1
  N  1062  1  0.53123100  0.17627300  0.64805400  1
  N  1063  1  0.53914000  0.18722600  0.78884000  1
  N  1064  1  0.52324800  0.07369600  0.75405700  1
  N  1083  1  0.94720100  0.89330400  0.75870700  1
  N  1084  1  0.93084000  0.77893500  0.78943900  1
  N  1085  1  0.94432800  0.79339100  0.64843400  1
  N  1086  1  0.83132900  0.77203500  0.68385200  1
  N  1105  1  0.02877700  0.57185700  0.25871500  1
  N  1106  1  0.04514300  0.68623200  0.28944000  1
  N  1107  1  0.03158400  0.67170400  0.14844700  1
  N  1108  1  0.14461100  0.69310000  0.18380800  1
  N  1127  1  0.64612600  0.26745200  0.00353939  1
  N  1128  1  0.53302200  0.28471400  0.03861040  1
  N  1129  1  0.54349600  0.27645500  0.89785300  1
  N  1130  1  0.52374700  0.38946000  0.93356200  1
  N  1149  1  0.32974100  0.19769300  0.50360200  1
  N  1150  1  0.44288000  0.18052200  0.53863100  1
  N  1151  1  0.43223500  0.18859700  0.39785200  1
  N  1152  1  0.45213400  0.07566400  0.43366600  1
  N  1154  1  0.49193600  0.62999400  0.07919440  1
  N  1157  1  0.48292300  0.68377500  0.10864400  1
  N  1160  1  0.52543900  0.71835400  0.09079640  1
  N  1168  1  0.48403500  0.83523600  0.57919900  1
  N  1171  1  0.49301900  0.78145200  0.60865100  1
  N  1174  1  0.45051400  0.74688100  0.59078800  1
  N  1182  1  0.07989100  0.23531500  0.32808400  1
  N  1185  1  0.02932100  0.22831800  0.36005300  1
  N  1188  1  0.99418200  0.27174800  0.34376700  1
  N  1196  1  0.89628700  0.23000200  0.82800800  1
  N  1199  1  0.94664300  0.23679300  0.86013500  1
  N  1202  1  0.98173200  0.19323200  0.84396300  1
  N  1210  1  0.98558900  0.82363000  0.60953800  1
  N  1213  1  0.99163100  0.77424200  0.57672600  1
  N  1216  1  0.94749000  0.73933200  0.59235900  1
  N  1224  1  0.99045200  0.64126000  0.10944500  1
  N  1227  1  0.98416800  0.69095600  0.07684740  1
  N  1230  1  0.02816400  0.72590300  0.09262740  1
  N  1238  1  0.39933700  0.22740600  0.35762300  1
  N  1241  1  0.45254800  0.23855900  0.32805200  1
  N  1244  1  0.48860200  0.19686900  0.34545000  1
  N  1252  1  0.57766200  0.23846700  0.85712800  1
  N  1255  1  0.52350500  0.22618300  0.82848500  1
  N  1258  1  0.48732800  0.26714800  0.84652000  1
  N  1266  1  0.99245700  0.13591500  0.57956200  1
  N  1269  1  0.98218500  0.18997500  0.60861700  1
  N  1272  1  0.02485800  0.22472300  0.59107000  1
  N  1280  1  0.98333700  0.32939200  0.07963740  1
  N  1283  1  0.99380300  0.27518300  0.10854300  1
  N  1286  1  0.95125200  0.24039700  0.09090240  1
  N  1294  1  0.59056200  0.73623300  0.82905400  1
  N  1297  1  0.53709400  0.72768400  0.85880500  1
  N  1300  1  0.50258900  0.77038900  0.84109400  1
  N  1308  1  0.38535900  0.72889100  0.32908400  1
  N  1311  1  0.43890000  0.73755900  0.35876500  1
  N  1314  1  0.47346200  0.69496200  0.34099300  1
  N  1322  1  0.48304500  0.32216600  0.10759100  1
  N  1325  1  0.49393300  0.26884700  0.07805940  1
  N  1328  1  0.45246500  0.23282200  0.09570540  1
  N  1336  1  0.49281600  0.14312300  0.60765000  1
  N  1339  1  0.48204800  0.19637000  0.57804400  1
  N  1342  1  0.52359000  0.23236100  0.59564000  1
  N  1350  1  0.89023700  0.72782400  0.85741500  1
  N  1353  1  0.94481000  0.73856900  0.82884100  1
  N  1356  1  0.97966200  0.69641400  0.84684000  1
  N  1364  1  0.08570900  0.73735100  0.35742600  1
  N  1367  1  0.03116300  0.72662400  0.32882900  1
  N  1370  1  0.99631000  0.76880200  0.34680400  1
  N  1378  1  0.43964800  0.46389900  0.26208500  1
  N  1381  1  0.49886700  0.50175200  0.25652700  1
  N  1384  1  0.53525000  0.45325300  0.26217200  1
  N  1392  1  0.53635700  0.00133395  0.76214700  1
  N  1395  1  0.47713700  0.96348800  0.75657800  1
  N  1398  1  0.44075500  0.01198200  0.76225100  1
  N  1406  1  0.25722400  0.18579800  0.51155000  1
  N  1409  1  0.22021200  0.24553100  0.50589400  1
  N  1412  1  0.26919600  0.28124500  0.51157500  1
  N  1420  1  0.71864900  0.27936300  0.01148340  1
  N  1423  1  0.75568700  0.21962200  0.00594639  1
  N  1426  1  0.70670400  0.18391200  0.01163740  1
  N  1434  1  0.53660500  0.46181600  0.92573700  1
  N  1437  1  0.47732800  0.49989000  0.93020300  1
  N  1440  1  0.44100300  0.45139100  0.92440700  1
  N  1448  1  0.43937200  0.00331695  0.42580300  1
  N  1451  1  0.49866100  0.96526600  0.43028000  1
  N  1454  1  0.53496900  0.01379400  0.42453800  1
  N  1462  1  0.71627900  0.18593000  0.67630600  1
  N  1465  1  0.75340700  0.24579900  0.68085500  1
  N  1468  1  0.70434500  0.28136200  0.67506700  1
  N  1476  1  0.25963500  0.27923200  0.17627900  1
  N  1479  1  0.22249700  0.21935700  0.18074800  1
  N  1482  1  0.27155000  0.18380200  0.17491400  1
  N  1490  1  0.03744400  0.00199695  0.42532400  1
  N  1493  1  0.97713200  0.96581300  0.43063200  1
  N  1496  1  0.94217900  0.01528800  0.42475200  1
  N  1504  1  0.93845500  0.46325100  0.92531600  1
  N  1507  1  0.99877500  0.49936400  0.93078100  1
  N  1510  1  0.03370600  0.44985100  0.92498200  1
  N  1518  1  0.93908600  0.00417995  0.76107000  1
  N  1521  1  0.99945900  0.96776000  0.75696100  1
  N  1524  1  0.03434300  0.01725100  0.76294400  1
  N  1532  1  0.03687600  0.46096900  0.26106300  1
  N  1535  1  0.97651100  0.49741200  0.25698400  1
  N  1538  1  0.94161600  0.44792900  0.26296600  1
  N  1546  1  0.75708700  0.68124500  0.01230740  1
  N  1549  1  0.72034800  0.74119600  0.00690639  1
  N  1552  1  0.76953900  0.77662500  0.01261040  1
  N  1560  1  0.21890700  0.78400900  0.51236000  1
  N  1563  1  0.25556600  0.72403800  0.50682400  1
  N  1566  1  0.20632800  0.68864400  0.51244600  1
  N  1574  1  0.21705200  0.68150800  0.17578300  1
  N  1577  1  0.25416100  0.74145200  0.17991600  1
  N  1580  1  0.20502100  0.77690700  0.17412500  1
  N  1588  1  0.75890700  0.78361400  0.67583000  1
  N  1591  1  0.72175800  0.72368900  0.67991200  1
  N  1594  1  0.77088600  0.68820700  0.67414200  1
