# generated using pymatgen
data_H40C49N12
_symmetry_space_group_name_H-M   'P 1'
_cell_length_a   39.08310000
_cell_length_b   53.60020000
_cell_length_c   53.60020000
_cell_angle_alpha   90.00000000
_cell_angle_beta   90.00000000
_cell_angle_gamma   90.00000000
_symmetry_Int_Tables_number   1
_chemical_formula_structural   H40C49N12
_chemical_formula_sum   'H640 C784 N192'
_cell_volume   112285.02091923
_cell_formula_units_Z   16
loop_
 _symmetry_equiv_pos_site_id
 _symmetry_equiv_pos_as_xyz
  1  'x, y, z'
loop_
 _atom_site_type_symbol
 _atom_site_label
 _atom_site_symmetry_multiplicity
 _atom_site_fract_x
 _atom_site_fract_y
 _atom_site_fract_z
 _atom_site_occupancy
  H  25  1  0.22505800  0.17303300  0.07949300  1
  H  26  1  0.23615900  0.14049000  0.10962800  1
  H  27  1  0.23526200  0.10514000  0.14133000  1
  H  28  1  0.22264700  0.07350300  0.17209400  1
  H  29  1  0.11679600  0.08735200  0.16379000  1
  H  30  1  0.11860800  0.16319200  0.08928100  1
  H  31  1  0.13396300  0.16240500  0.16371700  1
  H  32  1  0.02811300  0.17631000  0.17192000  1
  H  33  1  0.01551000  0.14459200  0.14124200  1
  H  34  1  0.13217200  0.08652200  0.08923400  1
  H  35  1  0.01462100  0.10925700  0.10953700  1
  H  36  1  0.02572300  0.07676500  0.07934900  1
  H  39  1  0.13860500  0.05174900  0.18796900  1
  H  41  1  0.10908000  0.05181400  0.06527400  1
  H  43  1  0.11214700  0.19810800  0.18773800  1
  H  45  1  0.14172600  0.19799700  0.06544500  1
  H  70  1  0.72412200  0.57580800  0.17185100  1
  H  71  1  0.73588600  0.60742300  0.14091900  1
  H  72  1  0.73590700  0.64236700  0.10904300  1
  H  73  1  0.72418800  0.67405700  0.07818000  1
  H  74  1  0.61794300  0.66230200  0.08702700  1
  H  75  1  0.61789200  0.58761700  0.16296900  1
  H  76  1  0.63329200  0.58629800  0.08857500  1
  H  77  1  0.52714600  0.57433400  0.07943700  1
  H  78  1  0.51516400  0.60701500  0.10927100  1
  H  79  1  0.63338200  0.66350500  0.16136800  1
  H  80  1  0.51520500  0.64295500  0.14065000  1
  H  81  1  0.52726400  0.67560400  0.17050000  1
  H  84  1  0.64075800  0.69734600  0.06263900  1
  H  86  1  0.61142600  0.69895600  0.18475600  1
  H  88  1  0.61122100  0.55080600  0.06527500  1
  H  90  1  0.64060200  0.55269800  0.18752900  1
  H  115  1  0.52685500  0.07597900  0.57828300  1
  H  116  1  0.51508700  0.10812800  0.60870300  1
  H  117  1  0.51532000  0.14334800  0.64065100  1
  H  118  1  0.52737900  0.17500800  0.67151100  1
  H  119  1  0.63344800  0.16199700  0.66336700  1
  H  120  1  0.63309300  0.08679300  0.58829100  1
  H  121  1  0.61648900  0.08649100  0.66231700  1
  H  122  1  0.72220300  0.07272700  0.67157800  1
  H  123  1  0.73527000  0.10498500  0.64152900  1
  H  124  1  0.61885400  0.16320700  0.58911200  1
  H  125  1  0.73637300  0.14083700  0.60996200  1
  H  126  1  0.72530900  0.17360800  0.58002600  1
  H  129  1  0.61099900  0.19761500  0.68724600  1
  H  131  1  0.64216000  0.19872500  0.56619900  1
  H  133  1  0.63707100  0.05118700  0.68621000  1
  H  135  1  0.61100100  0.05237000  0.56376900  1
  H  160  1  0.02599100  0.67357000  0.66975700  1
  H  161  1  0.01490900  0.64090300  0.63971200  1
  H  162  1  0.01597700  0.60508700  0.60812100  1
  H  163  1  0.02901100  0.57283200  0.57806500  1
  H  164  1  0.13474600  0.58644800  0.58743300  1
  H  165  1  0.13244000  0.66303300  0.66078700  1
  H  166  1  0.11802900  0.66201300  0.58649000  1
  H  167  1  0.22416500  0.67474900  0.57839000  1
  H  168  1  0.23604900  0.64300900  0.60920500  1
  H  169  1  0.11797400  0.58666800  0.66143400  1
  H  170  1  0.23609100  0.60776300  0.64111700  1
  H  171  1  0.22415100  0.57560600  0.67149800  1
  H  174  1  0.11420000  0.55131500  0.56337100  1
  H  176  1  0.13994300  0.55209500  0.68585400  1
  H  178  1  0.14067300  0.69762600  0.56270100  1
  H  180  1  0.10913000  0.69855000  0.68376300  1
  H  205  1  0.27728100  0.82443200  0.42067600  1
  H  206  1  0.26528100  0.85706200  0.39079000  1
  H  207  1  0.26534000  0.89301200  0.35936300  1
  H  208  1  0.27744200  0.92568900  0.32954900  1
  H  209  1  0.38354500  0.91351500  0.33868200  1
  H  210  1  0.38342200  0.83636300  0.41146900  1
  H  211  1  0.36797000  0.91224100  0.41300000  1
  H  212  1  0.47419000  0.92404300  0.42195200  1
  H  213  1  0.48599000  0.89238500  0.39106400  1
  H  214  1  0.36803900  0.83761100  0.33705900  1
  H  215  1  0.48601600  0.85742800  0.35915200  1
  H  216  1  0.47427400  0.82580900  0.32821200  1
  H  219  1  0.36166600  0.94900000  0.31535300  1
  H  221  1  0.39081100  0.80263500  0.31256400  1
  H  223  1  0.39062400  0.94719300  0.43750200  1
  H  225  1  0.36144600  0.80101600  0.43493700  1
  H  250  1  0.77754900  0.92538500  0.82838500  1
  H  251  1  0.76545900  0.89330800  0.85879900  1
  H  252  1  0.76516000  0.85782300  0.89033500  1
  H  253  1  0.77678900  0.82537000  0.92045900  1
  H  254  1  0.88306800  0.83664400  0.91121100  1
  H  255  1  0.88365900  0.91297300  0.83717600  1
  H  256  1  0.86794600  0.83750800  0.83658700  1
  H  257  1  0.97411000  0.82492800  0.82834200  1
  H  258  1  0.98596900  0.85665000  0.85914800  1
  H  259  1  0.86824800  0.91273900  0.91201700  1
  H  260  1  0.98614300  0.89173200  0.89082100  1
  H  261  1  0.97456500  0.92368300  0.92143700  1
  H  264  1  0.86070500  0.80170200  0.93510900  1
  H  266  1  0.89129600  0.94766800  0.93644600  1
  H  268  1  0.89050800  0.80235400  0.81222300  1
  H  270  1  0.86113500  0.94851000  0.81322100  1
  H  295  1  0.97470600  0.32652700  0.32920600  1
  H  296  1  0.98603100  0.35897300  0.35940500  1
  H  297  1  0.98534500  0.39433300  0.39115900  1
  H  298  1  0.97288200  0.42606900  0.42186000  1
  H  299  1  0.86696100  0.41253400  0.41352800  1
  H  300  1  0.86832700  0.33671900  0.33904700  1
  H  301  1  0.88245100  0.41323000  0.33903600  1
  H  302  1  0.77608300  0.42344400  0.32915200  1
  H  303  1  0.76471700  0.39099900  0.35934000  1
  H  304  1  0.88369200  0.33742800  0.41355100  1
  H  305  1  0.76535200  0.35565500  0.39108300  1
  H  306  1  0.77774900  0.32392400  0.42179700  1
  H  309  1  0.88894500  0.44814800  0.43758800  1
  H  311  1  0.86166700  0.30187400  0.43765300  1
  H  313  1  0.85973500  0.44792000  0.31497100  1
  H  315  1  0.89108900  0.30199700  0.31504200  1
  H  340  1  0.47377000  0.42538700  0.92099500  1
  H  341  1  0.48577300  0.39328000  0.89059400  1
  H  342  1  0.48598800  0.35772400  0.85912900  1
  H  343  1  0.47426700  0.32516900  0.82913500  1
  H  344  1  0.36801600  0.33643400  0.83857000  1
  H  345  1  0.36763500  0.41291800  0.91242800  1
  H  346  1  0.38338100  0.33749300  0.91313900  1
  H  347  1  0.27726100  0.32473400  0.92140900  1
  H  348  1  0.26529100  0.35637200  0.89053800  1
  H  349  1  0.38282000  0.41260100  0.83759200  1
  H  350  1  0.26499500  0.39144500  0.85884400  1
  H  351  1  0.27646800  0.42339200  0.82820000  1
  H  354  1  0.39023800  0.30149500  0.81468900  1
  H  356  1  0.35970800  0.44745400  0.81313700  1
  H  358  1  0.36092900  0.30234600  0.93757500  1
  H  360  1  0.39030500  0.44857500  0.93622800  1
  H  367  1  0.94804200  0.93512700  0.01070000  1
  H  374  1  0.01062500  0.07264200  0.02304000  1
  H  375  1  0.08245300  0.01472100  0.03083300  1
  H  376  1  0.94551700  0.98147200  0.94731800  1
  H  378  1  0.94233400  0.03347200  0.00271700  1
  H  379  1  0.95418300  0.06244900  0.00914500  1
  H  381  1  0.97637700  0.95004900  0.04730800  1
  H  382  1  0.99465600  0.97790900  0.04865200  1
  H  384  1  0.06741200  0.08404300  0.03497100  1
  H  385  1  0.09953900  0.06324300  0.02568400  1
  H  387  1  0.90089900  0.93040200  0.97439000  1
  H  388  1  0.94051500  0.91782300  0.96513500  1
  H  395  1  0.44865000  0.81548200  0.23874000  1
  H  402  1  0.51269000  0.67818200  0.22670800  1
  H  403  1  0.58378000  0.73661900  0.21916500  1
  H  404  1  0.44544400  0.76882900  0.30188500  1
  H  406  1  0.44361200  0.71690000  0.24646900  1
  H  407  1  0.45594200  0.68799800  0.24019500  1
  H  409  1  0.47760300  0.80082000  0.20229200  1
  H  410  1  0.49600300  0.77300100  0.20094500  1
  H  412  1  0.56989400  0.66717500  0.21529200  1
  H  413  1  0.60154700  0.68839100  0.22449000  1
  H  415  1  0.40090500  0.81984200  0.27470600  1
  H  416  1  0.44028500  0.83256800  0.28428300  1
  H  423  1  0.80345800  0.31444700  0.51146100  1
  H  430  1  0.73945300  0.17730600  0.52333600  1
  H  431  1  0.66808200  0.23553300  0.53110100  1
  H  432  1  0.80631800  0.26806400  0.44810500  1
  H  434  1  0.80814500  0.21618000  0.50322000  1
  H  435  1  0.79600200  0.18725300  0.50956000  1
  H  437  1  0.77433000  0.29976200  0.54782300  1
  H  438  1  0.75566700  0.27203300  0.54903400  1
  H  440  1  0.68254900  0.16615900  0.53519600  1
  H  441  1  0.65045600  0.18721200  0.52639700  1
  H  443  1  0.85139200  0.31861600  0.47563300  1
  H  444  1  0.81225700  0.33169800  0.46600400  1
  H  451  1  0.30248400  0.43502600  0.73902700  1
  H  458  1  0.23937300  0.57253900  0.72728300  1
  H  459  1  0.16776600  0.51441800  0.71987600  1
  H  460  1  0.30563600  0.48134000  0.80242100  1
  H  462  1  0.30817400  0.53349800  0.74696200  1
  H  463  1  0.29608700  0.56246100  0.74069500  1
  H  465  1  0.27381400  0.44998500  0.70256500  1
  H  466  1  0.25557800  0.47787000  0.70132800  1
  H  468  1  0.18226500  0.58380000  0.71585400  1
  H  469  1  0.15051200  0.56282100  0.72541200  1
  H  471  1  0.34994900  0.43026700  0.77517800  1
  H  472  1  0.31037500  0.41767200  0.78450100  1
  H  479  1  0.55380500  0.18498500  0.76138500  1
  H  486  1  0.48951900  0.32227500  0.77318600  1
  H  487  1  0.41854400  0.26376600  0.78077000  1
  H  488  1  0.55661700  0.23149000  0.69812100  1
  H  490  1  0.55872500  0.28357700  0.75358300  1
  H  491  1  0.54633100  0.31248800  0.75976800  1
  H  493  1  0.52510500  0.19975700  0.79790800  1
  H  494  1  0.50668200  0.22757000  0.79923000  1
  H  496  1  0.43226600  0.33323800  0.78453100  1
  H  497  1  0.40076400  0.31201900  0.77506800  1
  H  499  1  0.60118900  0.18042200  0.72519700  1
  H  500  1  0.56165200  0.16779200  0.71580700  1
  H  507  1  0.19771200  0.68502200  0.48850800  1
  H  514  1  0.26281200  0.82213500  0.47698200  1
  H  515  1  0.33329800  0.76335200  0.46909900  1
  H  516  1  0.19522000  0.73136100  0.55190300  1
  H  518  1  0.19339800  0.78368800  0.49667400  1
  H  519  1  0.20599500  0.81255700  0.49052100  1
  H  521  1  0.22642500  0.69982200  0.45200000  1
  H  522  1  0.24495000  0.72760200  0.45073500  1
  H  524  1  0.32007700  0.83287800  0.46544100  1
  H  525  1  0.35151300  0.81149700  0.47466800  1
  H  527  1  0.15037400  0.68047000  0.52471600  1
  H  528  1  0.18986500  0.66773300  0.53406300  1
  H  535  1  0.69871400  0.56515500  0.26126600  1
  H  542  1  0.76075700  0.42743900  0.27328600  1
  H  543  1  0.83288800  0.48522600  0.28058300  1
  H  544  1  0.69485300  0.51862100  0.19805500  1
  H  546  1  0.69231800  0.46674600  0.25350300  1
  H  547  1  0.70415900  0.43774500  0.25982400  1
  H  549  1  0.72754500  0.55025200  0.29767200  1
  H  550  1  0.74564800  0.52232700  0.29895000  1
  H  552  1  0.81771000  0.41593500  0.28477300  1
  H  553  1  0.84977700  0.43673900  0.27538900  1
  H  555  1  0.65098000  0.56989200  0.22536100  1
  H  556  1  0.69049600  0.58235400  0.21573400  1
  H  563  1  0.44887700  0.93486400  0.51125000  1
  H  570  1  0.51118600  0.07260900  0.52285300  1
  H  571  1  0.58321900  0.01470500  0.52975600  1
  H  572  1  0.44454800  0.98137500  0.44803200  1
  H  574  1  0.44237300  0.03337200  0.50359700  1
  H  575  1  0.45437100  0.06236600  0.50980000  1
  H  577  1  0.47791300  0.94982100  0.54755800  1
  H  578  1  0.49594400  0.97777600  0.54876300  1
  H  580  1  0.56837400  0.08403100  0.53392700  1
  H  581  1  0.60016500  0.06313400  0.52425600  1
  H  583  1  0.40094600  0.93008100  0.47539000  1
  H  584  1  0.44048200  0.91761200  0.46581700  1
  H  591  1  0.94927800  0.81490800  0.73874600  1
  H  598  1  0.01167400  0.67743600  0.72653100  1
  H  599  1  0.08376500  0.73522500  0.71904400  1
  H  600  1  0.94560600  0.76842500  0.80199900  1
  H  602  1  0.94345500  0.71665800  0.74681600  1
  H  603  1  0.95525000  0.68768400  0.74034400  1
  H  605  1  0.97838500  0.80013000  0.70242300  1
  H  606  1  0.99673900  0.77229200  0.70118800  1
  H  608  1  0.06841700  0.66597000  0.71460600  1
  H  609  1  0.10079800  0.68675100  0.72349600  1
  H  611  1  0.90124200  0.81933100  0.77440000  1
  H  612  1  0.94046900  0.83209600  0.78424400  1
  H  619  1  0.30202800  0.31500800  0.01100800  1
  H  626  1  0.24025800  0.17733900  0.02355000  1
  H  627  1  0.16790700  0.23500700  0.03059700  1
  H  628  1  0.30626800  0.26822500  0.94799700  1
  H  630  1  0.30852500  0.21666700  0.00353200  1
  H  631  1  0.29679100  0.18768200  0.01002100  1
  H  633  1  0.27289600  0.30029400  0.04735100  1
  H  634  1  0.25476900  0.27238200  0.04869300  1
  H  636  1  0.18336800  0.16577100  0.03506500  1
  H  637  1  0.15112600  0.18650000  0.02583400  1
  H  639  1  0.35014900  0.31944300  0.97535100  1
  H  640  1  0.31082300  0.33202500  0.96549100  1
  H  647  1  0.05383600  0.18580200  0.26157200  1
  H  654  1  0.98980700  0.32300400  0.27324500  1
  H  655  1  0.91842100  0.26474000  0.28063300  1
  H  656  1  0.05702800  0.23214500  0.19819900  1
  H  658  1  0.05872400  0.28414600  0.25346200  1
  H  659  1  0.04651800  0.31307200  0.25976200  1
  H  661  1  0.02467500  0.20056500  0.29789100  1
  H  662  1  0.00610000  0.22832800  0.29905900  1
  H  664  1  0.93272400  0.33413300  0.28477700  1
  H  665  1  0.90091700  0.31310000  0.27542800  1
  H  667  1  0.10179800  0.18148500  0.22576200  1
  H  668  1  0.06259600  0.16849200  0.21616700  1
  H  675  1  0.69844300  0.68479200  0.98872600  1
  H  682  1  0.76136300  0.82229900  0.97653400  1
  H  683  1  0.83305400  0.76421200  0.96932900  1
  H  684  1  0.69501500  0.73133000  0.05194800  1
  H  686  1  0.69263200  0.78328800  0.99639600  1
  H  687  1  0.70467600  0.81223200  0.99000600  1
  H  689  1  0.72721800  0.69962800  0.95226900  1
  H  690  1  0.74542800  0.72751600  0.95095600  1
  H  692  1  0.81844600  0.83356400  0.96510100  1
  H  693  1  0.85025800  0.81263900  0.97465900  1
  H  695  1  0.65083900  0.68014900  0.02475100  1
  H  696  1  0.69036500  0.66760000  0.03424800  1
  H  703  1  0.44678900  0.43545900  0.01064700  1
  H  710  1  0.51291800  0.57219400  0.02296500  1
  H  711  1  0.58305800  0.51320200  0.03090000  1
  H  712  1  0.44521800  0.48204700  0.94742400  1
  H  714  1  0.44345300  0.53400600  0.00288300  1
  H  715  1  0.45614900  0.56281500  0.00919700  1
  H  717  1  0.47551000  0.44990900  0.04728300  1
  H  718  1  0.49439300  0.47755100  0.04871500  1
  H  720  1  0.57018300  0.58276300  0.03462500  1
  H  721  1  0.60155700  0.56129500  0.02550300  1
  H  723  1  0.39947700  0.43148200  0.97428800  1
  H  724  1  0.43880100  0.41836400  0.96511600  1
  H  731  1  0.80396700  0.93555800  0.73897700  1
  H  738  1  0.73666700  0.07214600  0.72745800  1
  H  739  1  0.66702300  0.01278300  0.71996200  1
  H  740  1  0.80615700  0.98209000  0.80223400  1
  H  742  1  0.80688100  0.03425600  0.74675100  1
  H  743  1  0.79379400  0.06302000  0.74064100  1
  H  745  1  0.77474700  0.95000000  0.70254200  1
  H  746  1  0.75579800  0.97762500  0.70125700  1
  H  748  1  0.67897900  0.08243000  0.71640400  1
  H  749  1  0.64818300  0.06069400  0.72591300  1
  H  751  1  0.85175800  0.93167600  0.77510700  1
  H  752  1  0.81257700  0.91839400  0.78435700  1
  H  759  1  0.19703600  0.06462600  0.26171500  1
  H  766  1  0.26304500  0.92783400  0.27347500  1
  H  767  1  0.33345400  0.98672000  0.28092400  1
  H  768  1  0.19418200  0.01797000  0.19856500  1
  H  770  1  0.19341200  0.96612500  0.25392300  1
  H  771  1  0.20612300  0.93729700  0.26013200  1
  H  773  1  0.22649800  0.05022300  0.29804700  1
  H  774  1  0.24538500  0.02257600  0.29931800  1
  H  776  1  0.32046100  0.91718700  0.28472300  1
  H  777  1  0.35180500  0.93866500  0.27557200  1
  H  779  1  0.14885800  0.06841400  0.22596000  1
  H  780  1  0.18784500  0.08168500  0.21628800  1
  H  787  1  0.94726400  0.43526500  0.51141400  1
  H  794  1  0.01417800  0.57202400  0.52261000  1
  H  795  1  0.08405600  0.51276300  0.52976100  1
  H  796  1  0.94403300  0.48197600  0.44831000  1
  H  798  1  0.94383600  0.53401300  0.50381400  1
  H  799  1  0.95692100  0.56280200  0.50979900  1
  H  801  1  0.97689600  0.44967200  0.54768500  1
  H  802  1  0.99572000  0.47734700  0.54892200  1
  H  804  1  0.07198800  0.58239500  0.53328500  1
  H  805  1  0.10273200  0.56065700  0.52369600  1
  H  807  1  0.89897800  0.43142600  0.47562100  1
  H  808  1  0.93805100  0.41820400  0.46606000  1
  H  833  1  0.50651000  0.17303300  0.15412000  1
  H  834  1  0.51761100  0.14049000  0.18425500  1
  H  835  1  0.51671400  0.10514000  0.21595700  1
  H  836  1  0.50409900  0.07350300  0.24672100  1
  H  837  1  0.39824800  0.08735200  0.23841700  1
  H  838  1  0.40006000  0.16319200  0.16390800  1
  H  839  1  0.41541500  0.16240500  0.23834400  1
  H  840  1  0.30956500  0.17631000  0.24654700  1
  H  841  1  0.29696200  0.14459200  0.21586900  1
  H  842  1  0.41362400  0.08652200  0.16386100  1
  H  843  1  0.29607300  0.10925700  0.18416400  1
  H  844  1  0.30717500  0.07676500  0.15397600  1
  H  847  1  0.42005700  0.05174900  0.26259600  1
  H  849  1  0.39053200  0.05181400  0.13990100  1
  H  851  1  0.39359900  0.19810800  0.26236500  1
  H  853  1  0.42317800  0.19799700  0.14007200  1
  H  878  1  0.00557357  0.57580800  0.24647800  1
  H  879  1  0.01733760  0.60742300  0.21554600  1
  H  880  1  0.01735860  0.64236700  0.18367000  1
  H  881  1  0.00563957  0.67405700  0.15280700  1
  H  882  1  0.89939500  0.66230200  0.16165400  1
  H  883  1  0.89934400  0.58761700  0.23759600  1
  H  884  1  0.91474400  0.58629800  0.16320200  1
  H  885  1  0.80859800  0.57433400  0.15406400  1
  H  886  1  0.79661600  0.60701500  0.18389800  1
  H  887  1  0.91483400  0.66350500  0.23599500  1
  H  888  1  0.79665700  0.64295500  0.21527700  1
  H  889  1  0.80871600  0.67560400  0.24512700  1
  H  892  1  0.92221000  0.69734600  0.13726600  1
  H  894  1  0.89287800  0.69895600  0.25938300  1
  H  896  1  0.89267300  0.55080600  0.13990200  1
  H  898  1  0.92205400  0.55269800  0.26215600  1
  H  923  1  0.80830700  0.07597900  0.65291000  1
  H  924  1  0.79653900  0.10812800  0.68333000  1
  H  925  1  0.79677200  0.14334800  0.71527800  1
  H  926  1  0.80883100  0.17500800  0.74613800  1
  H  927  1  0.91490000  0.16199700  0.73799400  1
  H  928  1  0.91454500  0.08679300  0.66291800  1
  H  929  1  0.89794100  0.08649100  0.73694400  1
  H  930  1  0.00365457  0.07272700  0.74620500  1
  H  931  1  0.01672160  0.10498500  0.71615600  1
  H  932  1  0.90030600  0.16320700  0.66373900  1
  H  933  1  0.01782460  0.14083700  0.68458900  1
  H  934  1  0.00676057  0.17360800  0.65465300  1
  H  937  1  0.89245100  0.19761500  0.76187300  1
  H  939  1  0.92361200  0.19872500  0.64082600  1
  H  941  1  0.91852300  0.05118700  0.76083700  1
  H  943  1  0.89245300  0.05237000  0.63839600  1
  H  968  1  0.30744300  0.67357000  0.74438400  1
  H  969  1  0.29636100  0.64090300  0.71433900  1
  H  970  1  0.29742900  0.60508700  0.68274800  1
  H  971  1  0.31046300  0.57283200  0.65269200  1
  H  972  1  0.41619800  0.58644800  0.66206000  1
  H  973  1  0.41389200  0.66303300  0.73541400  1
  H  974  1  0.39948100  0.66201300  0.66111700  1
  H  975  1  0.50561700  0.67474900  0.65301700  1
  H  976  1  0.51750100  0.64300900  0.68383200  1
  H  977  1  0.39942600  0.58666800  0.73606100  1
  H  978  1  0.51754300  0.60776300  0.71574400  1
  H  979  1  0.50560300  0.57560600  0.74612500  1
  H  982  1  0.39565200  0.55131500  0.63799800  1
  H  984  1  0.42139500  0.55209500  0.76048100  1
  H  986  1  0.42212500  0.69762600  0.63732800  1
  H  988  1  0.39058200  0.69855000  0.75839000  1
  H  1013  1  0.55873300  0.82443200  0.49530300  1
  H  1014  1  0.54673300  0.85706200  0.46541700  1
  H  1015  1  0.54679200  0.89301200  0.43399000  1
  H  1016  1  0.55889400  0.92568900  0.40417600  1
  H  1017  1  0.66499700  0.91351500  0.41330900  1
  H  1018  1  0.66487400  0.83636300  0.48609600  1
  H  1019  1  0.64942200  0.91224100  0.48762700  1
  H  1020  1  0.75564200  0.92404300  0.49657900  1
  H  1021  1  0.76744200  0.89238500  0.46569100  1
  H  1022  1  0.64949100  0.83761100  0.41168600  1
  H  1023  1  0.76746800  0.85742800  0.43377900  1
  H  1024  1  0.75572600  0.82580900  0.40283900  1
  H  1027  1  0.64311800  0.94900000  0.38998000  1
  H  1029  1  0.67226300  0.80263500  0.38719100  1
  H  1031  1  0.67207600  0.94719300  0.51212900  1
  H  1033  1  0.64289800  0.80101600  0.50956400  1
  H  1058  1  0.05900060  0.92538500  0.90301200  1
  H  1059  1  0.04691060  0.89330800  0.93342600  1
  H  1060  1  0.04661160  0.85782300  0.96496200  1
  H  1061  1  0.05824060  0.82537000  0.99508600  1
  H  1062  1  0.16452000  0.83664400  0.98583800  1
  H  1063  1  0.16511100  0.91297300  0.91180300  1
  H  1064  1  0.14939800  0.83750800  0.91121400  1
  H  1065  1  0.25556200  0.82492800  0.90296900  1
  H  1066  1  0.26742100  0.85665000  0.93377500  1
  H  1067  1  0.14970000  0.91273900  0.98664400  1
  H  1068  1  0.26759500  0.89173200  0.96544800  1
  H  1069  1  0.25601700  0.92368300  0.99606400  1
  H  1072  1  0.14215700  0.80170200  0.00973559  1
  H  1074  1  0.17274800  0.94766800  0.01107260  1
  H  1076  1  0.17196000  0.80235400  0.88685000  1
  H  1078  1  0.14258700  0.94851000  0.88784800  1
  H  1103  1  0.25615800  0.32652700  0.40383300  1
  H  1104  1  0.26748300  0.35897300  0.43403200  1
  H  1105  1  0.26679700  0.39433300  0.46578600  1
  H  1106  1  0.25433400  0.42606900  0.49648700  1
  H  1107  1  0.14841300  0.41253400  0.48815500  1
  H  1108  1  0.14977900  0.33671900  0.41367400  1
  H  1109  1  0.16390300  0.41323000  0.41366300  1
  H  1110  1  0.05753460  0.42344400  0.40377900  1
  H  1111  1  0.04616860  0.39099900  0.43396700  1
  H  1112  1  0.16514400  0.33742800  0.48817800  1
  H  1113  1  0.04680360  0.35565500  0.46571000  1
  H  1114  1  0.05920060  0.32392400  0.49642400  1
  H  1117  1  0.17039700  0.44814800  0.51221500  1
  H  1119  1  0.14311900  0.30187400  0.51228000  1
  H  1121  1  0.14118700  0.44792000  0.38959800  1
  H  1123  1  0.17254100  0.30199700  0.38966900  1
  H  1148  1  0.75522200  0.42538700  0.99562200  1
  H  1149  1  0.76722500  0.39328000  0.96522100  1
  H  1150  1  0.76744000  0.35772400  0.93375600  1
  H  1151  1  0.75571900  0.32516900  0.90376200  1
  H  1152  1  0.64946800  0.33643400  0.91319700  1
  H  1153  1  0.64908700  0.41291800  0.98705500  1
  H  1154  1  0.66483300  0.33749300  0.98776600  1
  H  1155  1  0.55871300  0.32473400  0.99603600  1
  H  1156  1  0.54674300  0.35637200  0.96516500  1
  H  1157  1  0.66427200  0.41260100  0.91221900  1
  H  1158  1  0.54644700  0.39144500  0.93347100  1
  H  1159  1  0.55792000  0.42339200  0.90282700  1
  H  1162  1  0.67169000  0.30149500  0.88931600  1
  H  1164  1  0.64116000  0.44745400  0.88776400  1
  H  1166  1  0.64238100  0.30234600  0.01220160  1
  H  1168  1  0.67175700  0.44857500  0.01085460  1
  H  1175  1  0.22949400  0.93512700  0.08532660  1
  H  1182  1  0.29207700  0.07264200  0.09766660  1
  H  1183  1  0.36390500  0.01472100  0.10546000  1
  H  1184  1  0.22696900  0.98147200  0.02194460  1
  H  1186  1  0.22378600  0.03347200  0.07734360  1
  H  1187  1  0.23563500  0.06244900  0.08377160  1
  H  1189  1  0.25782900  0.95004900  0.12193500  1
  H  1190  1  0.27610800  0.97790900  0.12327900  1
  H  1192  1  0.34886400  0.08404300  0.10959800  1
  H  1193  1  0.38099100  0.06324300  0.10031100  1
  H  1195  1  0.18235100  0.93040200  0.04901660  1
  H  1196  1  0.22196700  0.91782300  0.03976160  1
  H  1203  1  0.73010200  0.81548200  0.31336700  1
  H  1210  1  0.79414200  0.67818200  0.30133500  1
  H  1211  1  0.86523200  0.73661900  0.29379200  1
  H  1212  1  0.72689600  0.76882900  0.37651200  1
  H  1214  1  0.72506400  0.71690000  0.32109600  1
  H  1215  1  0.73739400  0.68799800  0.31482200  1
  H  1217  1  0.75905500  0.80082000  0.27691900  1
  H  1218  1  0.77745500  0.77300100  0.27557200  1
  H  1220  1  0.85134600  0.66717500  0.28991900  1
  H  1221  1  0.88299900  0.68839100  0.29911700  1
  H  1223  1  0.68235700  0.81984200  0.34933300  1
  H  1224  1  0.72173700  0.83256800  0.35891000  1
  H  1231  1  0.08490960  0.31444700  0.58608800  1
  H  1238  1  0.02090460  0.17730600  0.59796300  1
  H  1239  1  0.94953400  0.23553300  0.60572800  1
  H  1240  1  0.08776960  0.26806400  0.52273200  1
  H  1242  1  0.08959660  0.21618000  0.57784700  1
  H  1243  1  0.07745360  0.18725300  0.58418700  1
  H  1245  1  0.05578160  0.29976200  0.62245000  1
  H  1246  1  0.03711860  0.27203300  0.62366100  1
  H  1248  1  0.96400100  0.16615900  0.60982300  1
  H  1249  1  0.93190800  0.18721200  0.60102400  1
  H  1251  1  0.13284400  0.31861600  0.55026000  1
  H  1252  1  0.09370860  0.33169800  0.54063100  1
  H  1259  1  0.58393600  0.43502600  0.81365400  1
  H  1266  1  0.52082500  0.57253900  0.80191000  1
  H  1267  1  0.44921800  0.51441800  0.79450300  1
  H  1268  1  0.58708800  0.48134000  0.87704800  1
  H  1270  1  0.58962600  0.53349800  0.82158900  1
  H  1271  1  0.57753900  0.56246100  0.81532200  1
  H  1273  1  0.55526600  0.44998500  0.77719200  1
  H  1274  1  0.53703000  0.47787000  0.77595500  1
  H  1276  1  0.46371700  0.58380000  0.79048100  1
  H  1277  1  0.43196400  0.56282100  0.80003900  1
  H  1279  1  0.63140100  0.43026700  0.84980500  1
  H  1280  1  0.59182700  0.41767200  0.85912800  1
  H  1287  1  0.83525700  0.18498500  0.83601200  1
  H  1294  1  0.77097100  0.32227500  0.84781300  1
  H  1295  1  0.69999600  0.26376600  0.85539700  1
  H  1296  1  0.83806900  0.23149000  0.77274800  1
  H  1298  1  0.84017700  0.28357700  0.82821000  1
  H  1299  1  0.82778300  0.31248800  0.83439500  1
  H  1301  1  0.80655700  0.19975700  0.87253500  1
  H  1302  1  0.78813400  0.22757000  0.87385700  1
  H  1304  1  0.71371800  0.33323800  0.85915800  1
  H  1305  1  0.68221600  0.31201900  0.84969500  1
  H  1307  1  0.88264100  0.18042200  0.79982400  1
  H  1308  1  0.84310400  0.16779200  0.79043400  1
  H  1315  1  0.47916400  0.68502200  0.56313500  1
  H  1322  1  0.54426400  0.82213500  0.55160900  1
  H  1323  1  0.61475000  0.76335200  0.54372600  1
  H  1324  1  0.47667200  0.73136100  0.62653000  1
  H  1326  1  0.47485000  0.78368800  0.57130100  1
  H  1327  1  0.48744700  0.81255700  0.56514800  1
  H  1329  1  0.50787700  0.69982200  0.52662700  1
  H  1330  1  0.52640200  0.72760200  0.52536200  1
  H  1332  1  0.60152900  0.83287800  0.54006800  1
  H  1333  1  0.63296500  0.81149700  0.54929500  1
  H  1335  1  0.43182600  0.68047000  0.59934300  1
  H  1336  1  0.47131700  0.66773300  0.60869000  1
  H  1343  1  0.98016600  0.56515500  0.33589300  1
  H  1350  1  0.04220860  0.42743900  0.34791300  1
  H  1351  1  0.11434000  0.48522600  0.35521000  1
  H  1352  1  0.97630500  0.51862100  0.27268200  1
  H  1354  1  0.97377000  0.46674600  0.32813000  1
  H  1355  1  0.98561100  0.43774500  0.33445100  1
  H  1357  1  0.00899657  0.55025200  0.37229900  1
  H  1358  1  0.02709960  0.52232700  0.37357700  1
  H  1360  1  0.09916160  0.41593500  0.35940000  1
  H  1361  1  0.13122900  0.43673900  0.35001600  1
  H  1363  1  0.93243200  0.56989200  0.29998800  1
  H  1364  1  0.97194800  0.58235400  0.29036100  1
  H  1371  1  0.73032900  0.93486400  0.58587700  1
  H  1378  1  0.79263800  0.07260900  0.59748000  1
  H  1379  1  0.86467100  0.01470500  0.60438300  1
  H  1380  1  0.72600000  0.98137500  0.52265900  1
  H  1382  1  0.72382500  0.03337200  0.57822400  1
  H  1383  1  0.73582300  0.06236600  0.58442700  1
  H  1385  1  0.75936500  0.94982100  0.62218500  1
  H  1386  1  0.77739600  0.97777600  0.62339000  1
  H  1388  1  0.84982600  0.08403100  0.60855400  1
  H  1389  1  0.88161700  0.06313400  0.59888300  1
  H  1391  1  0.68239800  0.93008100  0.55001700  1
  H  1392  1  0.72193400  0.91761200  0.54044400  1
  H  1399  1  0.23073000  0.81490800  0.81337300  1
  H  1406  1  0.29312600  0.67743600  0.80115800  1
  H  1407  1  0.36521700  0.73522500  0.79367100  1
  H  1408  1  0.22705800  0.76842500  0.87662600  1
  H  1410  1  0.22490700  0.71665800  0.82144300  1
  H  1411  1  0.23670200  0.68768400  0.81497100  1
  H  1413  1  0.25983700  0.80013000  0.77705000  1
  H  1414  1  0.27819100  0.77229200  0.77581500  1
  H  1416  1  0.34986900  0.66597000  0.78923300  1
  H  1417  1  0.38225000  0.68675100  0.79812300  1
  H  1419  1  0.18269400  0.81933100  0.84902700  1
  H  1420  1  0.22192100  0.83209600  0.85887100  1
  H  1427  1  0.58348000  0.31500800  0.08563460  1
  H  1434  1  0.52171000  0.17733900  0.09817660  1
  H  1435  1  0.44935900  0.23500700  0.10522400  1
  H  1436  1  0.58772000  0.26822500  0.02262360  1
  H  1438  1  0.58997700  0.21666700  0.07815860  1
  H  1439  1  0.57824300  0.18768200  0.08464760  1
  H  1441  1  0.55434800  0.30029400  0.12197800  1
  H  1442  1  0.53622100  0.27238200  0.12332000  1
  H  1444  1  0.46482000  0.16577100  0.10969200  1
  H  1445  1  0.43257800  0.18650000  0.10046100  1
  H  1447  1  0.63160100  0.31944300  0.04997760  1
  H  1448  1  0.59227500  0.33202500  0.04011760  1
  H  1455  1  0.33528800  0.18580200  0.33619900  1
  H  1462  1  0.27125900  0.32300400  0.34787200  1
  H  1463  1  0.19987300  0.26474000  0.35526000  1
  H  1464  1  0.33848000  0.23214500  0.27282600  1
  H  1466  1  0.34017600  0.28414600  0.32808900  1
  H  1467  1  0.32797000  0.31307200  0.33438900  1
  H  1469  1  0.30612700  0.20056500  0.37251800  1
  H  1470  1  0.28755200  0.22832800  0.37368600  1
  H  1472  1  0.21417600  0.33413300  0.35940400  1
  H  1473  1  0.18236900  0.31310000  0.35005500  1
  H  1475  1  0.38325000  0.18148500  0.30038900  1
  H  1476  1  0.34404800  0.16849200  0.29079400  1
  H  1483  1  0.97989500  0.68479200  0.06335260  1
  H  1490  1  0.04281460  0.82229900  0.05116060  1
  H  1491  1  0.11450600  0.76421200  0.04395560  1
  H  1492  1  0.97646700  0.73133000  0.12657500  1
  H  1494  1  0.97408400  0.78328800  0.07102260  1
  H  1495  1  0.98612800  0.81223200  0.06463260  1
  H  1497  1  0.00866957  0.69962800  0.02689560  1
  H  1498  1  0.02687960  0.72751600  0.02558260  1
  H  1500  1  0.09989760  0.83356400  0.03972760  1
  H  1501  1  0.13171000  0.81263900  0.04928560  1
  H  1503  1  0.93229100  0.68014900  0.09937760  1
  H  1504  1  0.97181700  0.66760000  0.10887500  1
  H  1511  1  0.72824100  0.43545900  0.08527360  1
  H  1518  1  0.79437000  0.57219400  0.09759160  1
  H  1519  1  0.86451000  0.51320200  0.10552700  1
  H  1520  1  0.72667000  0.48204700  0.02205060  1
  H  1522  1  0.72490500  0.53400600  0.07750960  1
  H  1523  1  0.73760100  0.56281500  0.08382360  1
  H  1525  1  0.75696200  0.44990900  0.12191000  1
  H  1526  1  0.77584500  0.47755100  0.12334200  1
  H  1528  1  0.85163500  0.58276300  0.10925200  1
  H  1529  1  0.88300900  0.56129500  0.10013000  1
  H  1531  1  0.68092900  0.43148200  0.04891460  1
  H  1532  1  0.72025300  0.41836400  0.03974260  1
  H  1539  1  0.08541860  0.93555800  0.81360400  1
  H  1546  1  0.01811860  0.07214600  0.80208500  1
  H  1547  1  0.94847500  0.01278300  0.79458900  1
  H  1548  1  0.08760860  0.98209000  0.87686100  1
  H  1550  1  0.08833260  0.03425600  0.82137800  1
  H  1551  1  0.07524560  0.06302000  0.81526800  1
  H  1553  1  0.05619860  0.95000000  0.77716900  1
  H  1554  1  0.03724960  0.97762500  0.77588400  1
  H  1556  1  0.96043100  0.08243000  0.79103100  1
  H  1557  1  0.92963500  0.06069400  0.80054000  1
  H  1559  1  0.13321000  0.93167600  0.84973400  1
  H  1560  1  0.09402860  0.91839400  0.85898400  1
  H  1567  1  0.47848800  0.06462600  0.33634200  1
  H  1574  1  0.54449700  0.92783400  0.34810200  1
  H  1575  1  0.61490600  0.98672000  0.35555100  1
  H  1576  1  0.47563400  0.01797000  0.27319200  1
  H  1578  1  0.47486400  0.96612500  0.32855000  1
  H  1579  1  0.48757500  0.93729700  0.33475900  1
  H  1581  1  0.50795000  0.05022300  0.37267400  1
  H  1582  1  0.52683700  0.02257600  0.37394500  1
  H  1584  1  0.60191300  0.91718700  0.35935000  1
  H  1585  1  0.63325700  0.93866500  0.35019900  1
  H  1587  1  0.43031000  0.06841400  0.30058700  1
  H  1588  1  0.46929700  0.08168500  0.29091500  1
  H  1595  1  0.22871600  0.43526500  0.58604100  1
  H  1602  1  0.29563000  0.57202400  0.59723700  1
  H  1603  1  0.36550800  0.51276300  0.60438800  1
  H  1604  1  0.22548500  0.48197600  0.52293700  1
  H  1606  1  0.22528800  0.53401300  0.57844100  1
  H  1607  1  0.23837300  0.56280200  0.58442600  1
  H  1609  1  0.25834800  0.44967200  0.62231200  1
  H  1610  1  0.27717200  0.47734700  0.62354900  1
  H  1612  1  0.35344000  0.58239500  0.60791200  1
  H  1613  1  0.38418400  0.56065700  0.59832300  1
  H  1615  1  0.18043000  0.43142600  0.55024800  1
  H  1616  1  0.21950300  0.41820400  0.54068700  1
  C  1  1  0.10082300  0.11008300  0.11105100  1
  C  2  1  0.06703600  0.11661300  0.11676100  1
  C  3  1  0.06750400  0.13516700  0.13485100  1
  C  4  1  0.10156500  0.14033100  0.14112300  1
  C  5  1  0.10906800  0.15863900  0.15923500  1
  C  6  1  0.08203200  0.17181400  0.17093400  1
  C  7  1  0.04783800  0.16663300  0.16392300  1
  C  8  1  0.04032800  0.14817600  0.14608100  1
  C  9  1  0.03926800  0.10464600  0.10512800  1
  C  10  1  0.04589800  0.08573300  0.08756300  1
  C  11  1  0.07985500  0.07900400  0.08129000  1
  C  12  1  0.10745500  0.09131000  0.09324800  1
  C  13  1  0.14995600  0.13958700  0.11105200  1
  C  14  1  0.18374100  0.13305800  0.11676700  1
  C  15  1  0.18326700  0.11451000  0.13486400  1
  C  16  1  0.14920300  0.10936400  0.14114400  1
  C  17  1  0.21044000  0.10154000  0.14614400  1
  C  18  1  0.20292500  0.08313600  0.16404000  1
  C  19  1  0.16872400  0.07795900  0.17103900  1
  C  20  1  0.14169200  0.09109400  0.15929100  1
  C  21  1  0.14332400  0.15839500  0.09328700  1
  C  22  1  0.17092600  0.17074300  0.08137800  1
  C  23  1  0.20488400  0.16402500  0.08766300  1
  C  24  1  0.21151300  0.14507400  0.10518900  1
  C  37  1  0.12538700  0.12483800  0.12614300  1
  C  46  1  0.60134000  0.64033000  0.13968600  1
  C  47  1  0.56737600  0.63440300  0.13384100  1
  C  48  1  0.56735600  0.61548900  0.11609600  1
  C  49  1  0.60130400  0.60951800  0.11025400  1
  C  50  1  0.60845000  0.59062100  0.09270200  1
  C  51  1  0.58119300  0.57762700  0.08107400  1
  C  52  1  0.54706300  0.58377400  0.08745200  1
  C  53  1  0.53992400  0.60278700  0.10481400  1
  C  54  1  0.53997600  0.64713600  0.14512300  1
  C  55  1  0.54716000  0.66613800  0.16248800  1
  C  56  1  0.58130300  0.67223100  0.16888100  1
  C  57  1  0.60852900  0.65921600  0.15724100  1
  C  58  1  0.64970600  0.61007600  0.14031400  1
  C  59  1  0.68363400  0.61578000  0.13415800  1
  C  60  1  0.68364400  0.63400700  0.11575700  1
  C  61  1  0.64972400  0.63974400  0.10961000  1
  C  62  1  0.71118800  0.64633500  0.10424100  1
  C  63  1  0.70418500  0.66478500  0.08629100  1
  C  64  1  0.67012900  0.67058900  0.07941000  1
  C  65  1  0.64273400  0.65802800  0.09135400  1
  C  66  1  0.64269000  0.59185400  0.15862400  1
  C  67  1  0.67006800  0.57931000  0.17060700  1
  C  68  1  0.70413100  0.58506500  0.16370600  1
  C  69  1  0.71116000  0.60345500  0.14570000  1
  C  82  1  0.62552700  0.62491800  0.12496300  1
  C  91  1  0.65018400  0.13957300  0.61086700  1
  C  92  1  0.68395300  0.13313500  0.61677200  1
  C  93  1  0.68338000  0.11435400  0.63465800  1
  C  94  1  0.64925000  0.10899800  0.64052400  1
  C  95  1  0.64147700  0.09035800  0.65820100  1
  C  96  1  0.66828200  0.07697200  0.66994400  1
  C  97  1  0.70260300  0.08246800  0.66351300  1
  C  98  1  0.71037700  0.10123900  0.64602600  1
  C  99  1  0.71173800  0.14538900  0.60545500  1
  C  100  1  0.70513400  0.16445600  0.58803500  1
  C  101  1  0.67118600  0.17109200  0.58164300  1
  C  102  1  0.64356500  0.15850700  0.59324600  1
  C  103  1  0.60125000  0.10986000  0.61023500  1
  C  104  1  0.56734300  0.11601300  0.61597500  1
  C  105  1  0.56746600  0.13439400  0.63425100  1
  C  106  1  0.60142700  0.13977500  0.64063000  1
  C  107  1  0.54007000  0.14709500  0.64555000  1
  C  108  1  0.54726300  0.16550700  0.66351100  1
  C  109  1  0.58136400  0.17095200  0.67056700  1
  C  110  1  0.60861900  0.15803200  0.65885800  1
  C  111  1  0.60827400  0.09131000  0.59228700  1
  C  112  1  0.58094000  0.07880400  0.58021800  1
  C  113  1  0.54684500  0.08511400  0.58654800  1
  C  114  1  0.53982700  0.10382400  0.60425500  1
  C  127  1  0.62552400  0.12457800  0.62559300  1
  C  136  1  0.14993800  0.60969900  0.63954400  1
  C  137  1  0.18387800  0.61577000  0.63381900  1
  C  138  1  0.18385600  0.63418600  0.61557800  1
  C  139  1  0.14992500  0.63967100  0.60920100  1
  C  140  1  0.14283400  0.65797300  0.59099800  1
  C  141  1  0.17015900  0.67083300  0.57931300  1
  C  142  1  0.20423000  0.66528900  0.58636900  1
  C  143  1  0.21132200  0.64682000  0.60429300  1
  C  144  1  0.21132900  0.60351300  0.64555000  1
  C  145  1  0.20421000  0.58479300  0.66322500  1
  C  146  1  0.17008300  0.57854800  0.66952000  1
  C  147  1  0.14281500  0.59113200  0.65745300  1
  C  148  1  0.10109900  0.63950500  0.63892100  1
  C  149  1  0.06732300  0.63314500  0.63294700  1
  C  150  1  0.06787700  0.61439000  0.61503500  1
  C  151  1  0.10200200  0.60899400  0.60919400  1
  C  152  1  0.04086700  0.60131900  0.60363600  1
  C  153  1  0.04862300  0.58254800  0.58614500  1
  C  154  1  0.08294400  0.57701300  0.57973500  1
  C  155  1  0.10976000  0.59035100  0.59151800  1
  C  156  1  0.10772700  0.65838800  0.65659800  1
  C  157  1  0.08010900  0.67097500  0.66820800  1
  C  158  1  0.04615900  0.66441000  0.66174800  1
  C  159  1  0.03954500  0.64539500  0.64427600  1
  C  172  1  0.12574400  0.62449800  0.62419200  1
  C  181  1  0.39983800  0.86008100  0.35971100  1
  C  182  1  0.43376100  0.86579700  0.36587600  1
  C  183  1  0.43374500  0.88401700  0.38428800  1
  C  184  1  0.39981500  0.88974100  0.39041300  1
  C  185  1  0.39277400  0.90799500  0.40868300  1
  C  186  1  0.42013600  0.92054900  0.42066600  1
  C  187  1  0.45420900  0.91477100  0.41380800  1
  C  188  1  0.46125900  0.89634900  0.39583600  1
  C  189  1  0.46129400  0.85345800  0.35436300  1
  C  190  1  0.45428100  0.83506200  0.33635500  1
  C  191  1  0.42022000  0.82930100  0.32945000  1
  C  192  1  0.39283300  0.84184400  0.34141900  1
  C  193  1  0.35141600  0.85953400  0.38975800  1
  C  194  1  0.31746700  0.86550600  0.38391500  1
  C  195  1  0.31749800  0.88442400  0.36617200  1
  C  196  1  0.35146400  0.89033300  0.36032500  1
  C  197  1  0.29011500  0.89718900  0.35490200  1
  C  198  1  0.29732600  0.91620000  0.33755100  1
  C  199  1  0.33147600  0.92228600  0.33117200  1
  C  200  1  0.35868200  0.90923200  0.34279200  1
  C  201  1  0.35857500  0.84067100  0.40733800  1
  C  202  1  0.33132800  0.82771300  0.41901300  1
  C  203  1  0.29719300  0.83384800  0.41262900  1
  C  204  1  0.29004400  0.85283100  0.39523400  1
  C  217  1  0.37564100  0.87491900  0.37504700  1
  C  226  1  0.89992900  0.88986300  0.88968200  1
  C  227  1  0.93383100  0.88380300  0.88379500  1
  C  228  1  0.93375700  0.86541900  0.86555500  1
  C  229  1  0.89981400  0.85987200  0.85929500  1
  C  230  1  0.89275000  0.84157900  0.84106600  1
  C  231  1  0.92009200  0.82878800  0.82930500  1
  C  232  1  0.95416000  0.83434400  0.83635300  1
  C  233  1  0.96124000  0.85280300  0.85427500  1
  C  234  1  0.96143200  0.89596300  0.89541300  1
  C  235  1  0.95451300  0.91455300  0.91323400  1
  C  236  1  0.92047300  0.92067000  0.91987900  1
  C  237  1  0.89302100  0.90827900  0.90782100  1
  C  238  1  0.85161400  0.89032300  0.85946900  1
  C  239  1  0.81762500  0.88463100  0.86549300  1
  C  240  1  0.81745100  0.86594100  0.88344500  1
  C  241  1  0.85134100  0.85984000  0.88930100  1
  C  242  1  0.78987700  0.85351400  0.89484000  1
  C  243  1  0.79681300  0.83462800  0.91237200  1
  C  244  1  0.83087400  0.82835900  0.91882500  1
  C  245  1  0.85827200  0.84107900  0.90705300  1
  C  246  1  0.85882200  0.90884000  0.84150300  1
  C  247  1  0.83156700  0.92169100  0.82970800  1
  C  248  1  0.79744200  0.91596300  0.83646500  1
  C  249  1  0.79023200  0.89730500  0.85416100  1
  C  262  1  0.87567800  0.87499100  0.87441100  1
  C  271  1  0.85143300  0.35958100  0.39093000  1
  C  272  1  0.81740800  0.36486600  0.38465500  1
  C  273  1  0.81707200  0.38341800  0.36656000  1
  C  274  1  0.85090800  0.38981600  0.36085500  1
  C  275  1  0.85769400  0.40855500  0.34305300  1
  C  276  1  0.83019600  0.42096900  0.33108500  1
  C  277  1  0.79618400  0.41439200  0.33736600  1
  C  278  1  0.78940100  0.39551200  0.35493700  1
  C  279  1  0.79014500  0.35196700  0.39590200  1
  C  280  1  0.79753500  0.33351200  0.41377300  1
  C  281  1  0.83169800  0.32821300  0.42078000  1
  C  282  1  0.85882200  0.34127500  0.40906600  1
  C  283  1  0.89984200  0.36014600  0.36087200  1
  C  284  1  0.93366800  0.36654500  0.36660100  1
  C  285  1  0.93330400  0.38510700  0.38469100  1
  C  286  1  0.89926700  0.39037200  0.39095200  1
  C  287  1  0.96054100  0.39801200  0.39596300  1
  C  288  1  0.95311300  0.41647400  0.41382100  1
  C  289  1  0.91893500  0.42177300  0.42079100  1
  C  290  1  0.89184100  0.40869400  0.40906200  1
  C  291  1  0.89307700  0.34140400  0.34306800  1
  C  292  1  0.92059000  0.32898800  0.33112200  1
  C  293  1  0.95459500  0.33557500  0.33741100  1
  C  294  1  0.96135500  0.35446700  0.35497600  1
  C  307  1  0.87536400  0.37497800  0.37595200  1
  C  316  1  0.35121100  0.38969600  0.85995200  1
  C  317  1  0.31733200  0.38358400  0.86584800  1
  C  318  1  0.31747000  0.36524100  0.88413300  1
  C  319  1  0.35143100  0.35977900  0.89041100  1
  C  320  1  0.35856200  0.34151400  0.90865500  1
  C  321  1  0.33126400  0.32870200  0.92045000  1
  C  322  1  0.29717700  0.33417600  0.91338300  1
  C  323  1  0.29003400  0.35259000  0.89542800  1
  C  324  1  0.28969300  0.39570000  0.85423200  1
  C  325  1  0.29655000  0.41428600  0.83639600  1
  C  326  1  0.33057000  0.42044600  0.82973000  1
  C  327  1  0.35806000  0.40810300  0.84179200  1
  C  328  1  0.39961500  0.39025800  0.89009600  1
  C  329  1  0.43358700  0.38458100  0.88400400  1
  C  330  1  0.43372000  0.36584400  0.86610100  1
  C  331  1  0.39981500  0.35970800  0.86033500  1
  C  332  1  0.46125900  0.35339200  0.85468500  1
  C  333  1  0.45426800  0.33444700  0.83722800  1
  C  334  1  0.42018700  0.32814400  0.83086800  1
  C  335  1  0.39282700  0.34089400  0.84265200  1
  C  336  1  0.39245900  0.40879900  0.90804700  1
  C  337  1  0.41975000  0.42167000  0.91977500  1
  C  338  1  0.45385400  0.41595400  0.91295600  1
  C  339  1  0.46101500  0.39727800  0.89526500  1
  C  352  1  0.37551300  0.37488100  0.87523200  1
  C  361  1  0.94314800  0.95494800  0.97692200  1
  C  362  1  0.95212300  0.97769600  0.96534900  1
  C  364  1  0.98151200  0.99212000  0.00180300  1
  C  365  1  0.97340400  0.96972800  0.01475700  1
  C  366  1  0.95408300  0.95147400  0.00182900  1
  C  368  1  0.00246400  0.01135000  0.01148300  1
  C  369  1  0.99249100  0.03683400  0.01306700  1
  C  370  1  0.01720700  0.05421400  0.02155700  1
  C  371  1  0.05063000  0.04676900  0.02833600  1
  C  372  1  0.05864400  0.02120300  0.02633600  1
  C  383  1  0.07663300  0.06489000  0.03732900  1
  C  386  1  0.92435900  0.93447600  0.96400200  1
  C  389  1  0.44337400  0.79548800  0.27238500  1
  C  390  1  0.45228500  0.77271000  0.28392300  1
  C  392  1  0.48225700  0.75853100  0.24762600  1
  C  393  1  0.47424400  0.78096900  0.23471900  1
  C  394  1  0.45464200  0.79910700  0.24757900  1
  C  396  1  0.50355800  0.73944100  0.23808100  1
  C  397  1  0.49394800  0.71388200  0.23648200  1
  C  398  1  0.51899700  0.69666200  0.22819500  1
  C  399  1  0.55237700  0.70434300  0.22158500  1
  C  400  1  0.56001500  0.72997300  0.22354400  1
  C  411  1  0.57873700  0.68640800  0.21279600  1
  C  414  1  0.42426000  0.81583500  0.28524300  1
  C  417  1  0.80859100  0.29457900  0.47772800  1
  C  418  1  0.79944800  0.27191300  0.46606700  1
  C  420  1  0.76931800  0.25771400  0.50227800  1
  C  421  1  0.77751600  0.28005100  0.51530000  1
  C  422  1  0.79729200  0.29815600  0.50253400  1
  C  424  1  0.74812400  0.23856600  0.51182500  1
  C  425  1  0.75788800  0.21303700  0.51339000  1
  C  426  1  0.73300800  0.19575700  0.52181000  1
  C  427  1  0.69964600  0.20335000  0.52856900  1
  C  428  1  0.69182900  0.22894900  0.52658000  1
  C  439  1  0.67361100  0.18536100  0.53774300  1
  C  442  1  0.82803600  0.31484000  0.46501100  1
  C  445  1  0.30769800  0.45482300  0.77279400  1
  C  446  1  0.29888100  0.47758000  0.78441500  1
  C  448  1  0.26920900  0.49204900  0.74810400  1
  C  449  1  0.27715300  0.46965300  0.73510400  1
  C  450  1  0.29656600  0.45137900  0.74792800  1
  C  452  1  0.24804100  0.51123700  0.73860600  1
  C  453  1  0.25785600  0.53675400  0.73700300  1
  C  454  1  0.23292200  0.55408600  0.72876200  1
  C  455  1  0.19944700  0.54655600  0.72222500  1
  C  456  1  0.19160700  0.52095900  0.72419700  1
  C  467  1  0.17317500  0.56460800  0.71353300  1
  C  470  1  0.32653800  0.43432100  0.78562800  1
  C  473  1  0.55886300  0.20489700  0.72767300  1
  C  474  1  0.54990600  0.22765800  0.71612100  1
  C  476  1  0.52014100  0.24191300  0.75247300  1
  C  477  1  0.52826200  0.21951600  0.76541500  1
  C  478  1  0.54777200  0.20134300  0.75253300  1
  C  480  1  0.49884300  0.26099300  0.76203100  1
  C  481  1  0.50838400  0.28657000  0.76355700  1
  C  482  1  0.48327300  0.30377900  0.77177300  1
  C  483  1  0.44988300  0.29607400  0.77833900  1
  C  484  1  0.44231700  0.27043000  0.77643400  1
  C  495  1  0.42339800  0.31400300  0.78694700  1
  C  498  1  0.57776200  0.18447900  0.71476200  1
  C  501  1  0.19280000  0.70485400  0.52227800  1
  C  502  1  0.20187400  0.72756500  0.53388400  1
  C  504  1  0.23163400  0.74184800  0.49754500  1
  C  505  1  0.22340200  0.71950300  0.48454900  1
  C  506  1  0.20382600  0.70134300  0.49739700  1
  C  508  1  0.25308000  0.76087400  0.48805800  1
  C  509  1  0.24372600  0.78649200  0.48660500  1
  C  510  1  0.26893200  0.80361500  0.47837100  1
  C  511  1  0.30222300  0.79578300  0.47169400  1
  C  512  1  0.30960700  0.77010500  0.47353000  1
  C  523  1  0.32874800  0.81360300  0.46294800  1
  C  526  1  0.17382400  0.68445100  0.53514900  1
  C  529  1  0.69314200  0.54524600  0.22759600  1
  C  530  1  0.70178200  0.52243500  0.21601600  1
  C  532  1  0.73166200  0.50801900  0.25225700  1
  C  533  1  0.72391700  0.53047900  0.26521200  1
  C  534  1  0.70451000  0.54876100  0.25239500  1
  C  536  1  0.75265800  0.48875000  0.26180100  1
  C  537  1  0.74261600  0.46328400  0.26345200  1
  C  538  1  0.76738300  0.44585300  0.27175300  1
  C  539  1  0.80092000  0.45323700  0.27829400  1
  C  540  1  0.80900000  0.47878900  0.27624700  1
  C  551  1  0.82696400  0.43507900  0.28713100  1
  C  554  1  0.67425400  0.56573300  0.21478500  1
  C  557  1  0.44308200  0.95475200  0.47758400  1
  C  558  1  0.45156600  0.97758200  0.46597800  1
  C  560  1  0.48159200  0.99205200  0.50212700  1
  C  561  1  0.47399600  0.96958100  0.51511000  1
  C  562  1  0.45455700  0.95127100  0.50236200  1
  C  564  1  0.50274700  0.01129300  0.51152800  1
  C  565  1  0.49279900  0.03677600  0.51321500  1
  C  566  1  0.51773100  0.05417900  0.52130600  1
  C  567  1  0.55132300  0.04674500  0.52762700  1
  C  568  1  0.55929100  0.02117500  0.52558200  1
  C  579  1  0.57757200  0.06486300  0.53621500  1
  C  582  1  0.42422700  0.93422200  0.46481700  1
  C  585  1  0.94375400  0.79500100  0.77241900  1
  C  586  1  0.95260400  0.77226400  0.78405900  1
  C  588  1  0.98275300  0.75795800  0.74789100  1
  C  589  1  0.97485700  0.78037000  0.73489700  1
  C  590  1  0.95522400  0.79856400  0.74765400  1
  C  592  1  0.00375300  0.73869900  0.73832900  1
  C  593  1  0.99367800  0.71324000  0.73664500  1
  C  594  1  0.01834900  0.69583500  0.72814900  1
  C  595  1  0.05180500  0.70323800  0.72142100  1
  C  596  1  0.05993800  0.72877400  0.72353800  1
  C  607  1  0.07761000  0.68511900  0.71215000  1
  C  610  1  0.92445400  0.81535300  0.78511900  1
  C  613  1  0.30781100  0.29496200  0.97744100  1
  C  614  1  0.29919600  0.27212000  0.96590900  1
  C  616  1  0.26906300  0.25786100  0.00210700  1
  C  617  1  0.27672300  0.28037800  0.01499100  1
  C  618  1  0.29625400  0.29859000  0.00217600  1
  C  620  1  0.24807700  0.23859600  0.01168100  1
  C  621  1  0.25823200  0.21316300  0.01348600  1
  C  622  1  0.23354200  0.19572700  0.02189200  1
  C  623  1  0.19999200  0.20307400  0.02843600  1
  C  624  1  0.19180900  0.22859600  0.02626000  1
  C  635  1  0.17407300  0.18490300  0.03744400  1
  C  638  1  0.32695500  0.31534000  0.96466100  1
  C  641  1  0.05911800  0.20563700  0.22783300  1
  C  642  1  0.05010900  0.22832600  0.21616000  1
  C  644  1  0.01993100  0.24260000  0.25232400  1
  C  645  1  0.02802400  0.22025500  0.26536500  1
  C  646  1  0.04776400  0.20210600  0.25263200  1
  C  648  1  0.99867000  0.26174200  0.26181100  1
  C  649  1  0.00839200  0.28727500  0.26343200  1
  C  650  1  0.98341300  0.30454600  0.27172900  1
  C  651  1  0.94998200  0.29693900  0.27830100  1
  C  652  1  0.94222100  0.27133300  0.27627500  1
  C  663  1  0.92372200  0.31492600  0.28715200  1
  C  666  1  0.07845800  0.18530600  0.21513700  1
  C  669  1  0.69308500  0.70471000  0.02241100  1
  C  670  1  0.70184600  0.72750900  0.03397000  1
  C  672  1  0.73164700  0.74186100  0.99766400  1
  C  673  1  0.72376600  0.71941400  0.98473200  1
  C  674  1  0.70432300  0.70117800  0.99758200  1
  C  676  1  0.75279900  0.76103600  0.98811600  1
  C  677  1  0.74294300  0.78653800  0.98641100  1
  C  678  1  0.76784400  0.80385700  0.97808600  1
  C  679  1  0.80132700  0.79633100  0.97155800  1
  C  680  1  0.80920700  0.77074900  0.97363500  1
  C  691  1  0.82756800  0.81438000  0.96280100  1
  C  694  1  0.67418700  0.68425100  0.03526300  1
  C  697  1  0.44231200  0.45544800  0.97693700  1
  C  698  1  0.45176100  0.47813100  0.96543900  1
  C  700  1  0.48150500  0.49208000  0.00192400  1
  C  701  1  0.47292100  0.46974100  0.01480700  1
  C  702  1  0.45318100  0.45176300  0.00183100  1
  C  704  1  0.50296200  0.51100000  0.01162100  1
  C  705  1  0.49372500  0.53663600  0.01314300  1
  C  706  1  0.51895100  0.55366200  0.02154500  1
  C  707  1  0.55216000  0.54572200  0.02831500  1
  C  708  1  0.55942900  0.52003200  0.02641300  1
  C  719  1  0.57873700  0.56346400  0.03715200  1
  C  722  1  0.42308100  0.43524100  0.96395600  1
  C  725  1  0.80877500  0.95551700  0.77268200  1
  C  726  1  0.79942800  0.97818300  0.78425500  1
  C  728  1  0.76924900  0.99213500  0.74796400  1
  C  729  1  0.77771800  0.96981400  0.73501000  1
  C  730  1  0.79765700  0.95185100  0.74784400  1
  C  732  1  0.74746200  0.01096600  0.73849200  1
  C  733  1  0.75641400  0.03665600  0.73695600  1
  C  734  1  0.73086400  0.05357300  0.72885800  1
  C  735  1  0.69762700  0.04546600  0.72237200  1
  C  736  1  0.69066700  0.01972700  0.72423400  1
  C  747  1  0.67064800  0.06307300  0.71393600  1
  C  750  1  0.82819700  0.93531900  0.78553100  1
  C  753  1  0.19188100  0.04460200  0.22807800  1
  C  754  1  0.20111800  0.02191800  0.21649400  1
  C  756  1  0.23157500  0.00799700  0.25267300  1
  C  757  1  0.22326900  0.03035600  0.26562200  1
  C  758  1  0.20327300  0.04832100  0.25284100  1
  C  760  1  0.25312500  0.98904300  0.26218600  1
  C  761  1  0.24383100  0.96342000  0.26377700  1
  C  762  1  0.26911900  0.94635500  0.27199500  1
  C  763  1  0.30243000  0.95424700  0.27854000  1
  C  764  1  0.30975300  0.97992600  0.27658700  1
  C  775  1  0.32903300  0.93647800  0.28727000  1
  C  778  1  0.17223500  0.06474200  0.21532800  1
  C  781  1  0.94193000  0.45531000  0.47780200  1
  C  782  1  0.95102100  0.47803000  0.46622800  1
  C  784  1  0.98160200  0.49195300  0.50234900  1
  C  785  1  0.97341100  0.46957300  0.51529500  1
  C  786  1  0.95339000  0.45159700  0.50254900  1
  C  788  1  0.00342100  0.51081500  0.51170900  1
  C  789  1  0.99441500  0.53649400  0.51327200  1
  C  790  1  0.02001500  0.55345700  0.52119400  1
  C  791  1  0.05334200  0.54540100  0.52749100  1
  C  792  1  0.06034900  0.51967000  0.52562100  1
  C  803  1  0.08036200  0.56304800  0.53576500  1
  C  806  1  0.92239200  0.43512000  0.46504100  1
  C  809  1  0.38227500  0.11008300  0.18567800  1
  C  810  1  0.34848800  0.11661300  0.19138800  1
  C  811  1  0.34895600  0.13516700  0.20947800  1
  C  812  1  0.38301700  0.14033100  0.21575000  1
  C  813  1  0.39052000  0.15863900  0.23386200  1
  C  814  1  0.36348400  0.17181400  0.24556100  1
  C  815  1  0.32929000  0.16663300  0.23855000  1
  C  816  1  0.32178000  0.14817600  0.22070800  1
  C  817  1  0.32072000  0.10464600  0.17975500  1
  C  818  1  0.32735000  0.08573300  0.16219000  1
  C  819  1  0.36130700  0.07900400  0.15591700  1
  C  820  1  0.38890700  0.09131000  0.16787500  1
  C  821  1  0.43140800  0.13958700  0.18567900  1
  C  822  1  0.46519300  0.13305800  0.19139400  1
  C  823  1  0.46471900  0.11451000  0.20949100  1
  C  824  1  0.43065500  0.10936400  0.21577100  1
  C  825  1  0.49189200  0.10154000  0.22077100  1
  C  826  1  0.48437700  0.08313600  0.23866700  1
  C  827  1  0.45017600  0.07795900  0.24566600  1
  C  828  1  0.42314400  0.09109400  0.23391800  1
  C  829  1  0.42477600  0.15839500  0.16791400  1
  C  830  1  0.45237800  0.17074300  0.15600500  1
  C  831  1  0.48633600  0.16402500  0.16229000  1
  C  832  1  0.49296500  0.14507400  0.17981600  1
  C  845  1  0.40683900  0.12483800  0.20077000  1
  C  854  1  0.88279200  0.64033000  0.21431300  1
  C  855  1  0.84882800  0.63440300  0.20846800  1
  C  856  1  0.84880800  0.61548900  0.19072300  1
  C  857  1  0.88275600  0.60951800  0.18488100  1
  C  858  1  0.88990200  0.59062100  0.16732900  1
  C  859  1  0.86264500  0.57762700  0.15570100  1
  C  860  1  0.82851500  0.58377400  0.16207900  1
  C  861  1  0.82137600  0.60278700  0.17944100  1
  C  862  1  0.82142800  0.64713600  0.21975000  1
  C  863  1  0.82861200  0.66613800  0.23711500  1
  C  864  1  0.86275500  0.67223100  0.24350800  1
  C  865  1  0.88998100  0.65921600  0.23186800  1
  C  866  1  0.93115800  0.61007600  0.21494100  1
  C  867  1  0.96508600  0.61578000  0.20878500  1
  C  868  1  0.96509600  0.63400700  0.19038400  1
  C  869  1  0.93117600  0.63974400  0.18423700  1
  C  870  1  0.99264000  0.64633500  0.17886800  1
  C  871  1  0.98563700  0.66478500  0.16091800  1
  C  872  1  0.95158100  0.67058900  0.15403700  1
  C  873  1  0.92418600  0.65802800  0.16598100  1
  C  874  1  0.92414200  0.59185400  0.23325100  1
  C  875  1  0.95152000  0.57931000  0.24523400  1
  C  876  1  0.98558300  0.58506500  0.23833300  1
  C  877  1  0.99261200  0.60345500  0.22032700  1
  C  890  1  0.90697900  0.62491800  0.19959000  1
  C  899  1  0.93163600  0.13957300  0.68549400  1
  C  900  1  0.96540500  0.13313500  0.69139900  1
  C  901  1  0.96483200  0.11435400  0.70928500  1
  C  902  1  0.93070200  0.10899800  0.71515100  1
  C  903  1  0.92292900  0.09035800  0.73282800  1
  C  904  1  0.94973400  0.07697200  0.74457100  1
  C  905  1  0.98405500  0.08246800  0.73814000  1
  C  906  1  0.99182900  0.10123900  0.72065300  1
  C  907  1  0.99319000  0.14538900  0.68008200  1
  C  908  1  0.98658600  0.16445600  0.66266200  1
  C  909  1  0.95263800  0.17109200  0.65627000  1
  C  910  1  0.92501700  0.15850700  0.66787300  1
  C  911  1  0.88270200  0.10986000  0.68486200  1
  C  912  1  0.84879500  0.11601300  0.69060200  1
  C  913  1  0.84891800  0.13439400  0.70887800  1
  C  914  1  0.88287900  0.13977500  0.71525700  1
  C  915  1  0.82152200  0.14709500  0.72017700  1
  C  916  1  0.82871500  0.16550700  0.73813800  1
  C  917  1  0.86281600  0.17095200  0.74519400  1
  C  918  1  0.89007100  0.15803200  0.73348500  1
  C  919  1  0.88972600  0.09131000  0.66691400  1
  C  920  1  0.86239200  0.07880400  0.65484500  1
  C  921  1  0.82829700  0.08511400  0.66117500  1
  C  922  1  0.82127900  0.10382400  0.67888200  1
  C  935  1  0.90697600  0.12457800  0.70022000  1
  C  944  1  0.43139000  0.60969900  0.71417100  1
  C  945  1  0.46533000  0.61577000  0.70844600  1
  C  946  1  0.46530800  0.63418600  0.69020500  1
  C  947  1  0.43137700  0.63967100  0.68382800  1
  C  948  1  0.42428600  0.65797300  0.66562500  1
  C  949  1  0.45161100  0.67083300  0.65394000  1
  C  950  1  0.48568200  0.66528900  0.66099600  1
  C  951  1  0.49277400  0.64682000  0.67892000  1
  C  952  1  0.49278100  0.60351300  0.72017700  1
  C  953  1  0.48566200  0.58479300  0.73785200  1
  C  954  1  0.45153500  0.57854800  0.74414700  1
  C  955  1  0.42426700  0.59113200  0.73208000  1
  C  956  1  0.38255100  0.63950500  0.71354800  1
  C  957  1  0.34877500  0.63314500  0.70757400  1
  C  958  1  0.34932900  0.61439000  0.68966200  1
  C  959  1  0.38345400  0.60899400  0.68382100  1
  C  960  1  0.32231900  0.60131900  0.67826300  1
  C  961  1  0.33007500  0.58254800  0.66077200  1
  C  962  1  0.36439600  0.57701300  0.65436200  1
  C  963  1  0.39121200  0.59035100  0.66614500  1
  C  964  1  0.38917900  0.65838800  0.73122500  1
  C  965  1  0.36156100  0.67097500  0.74283500  1
  C  966  1  0.32761100  0.66441000  0.73637500  1
  C  967  1  0.32099700  0.64539500  0.71890300  1
  C  980  1  0.40719600  0.62449800  0.69881900  1
  C  989  1  0.68129000  0.86008100  0.43433800  1
  C  990  1  0.71521300  0.86579700  0.44050300  1
  C  991  1  0.71519700  0.88401700  0.45891500  1
  C  992  1  0.68126700  0.88974100  0.46504000  1
  C  993  1  0.67422600  0.90799500  0.48331000  1
  C  994  1  0.70158800  0.92054900  0.49529300  1
  C  995  1  0.73566100  0.91477100  0.48843500  1
  C  996  1  0.74271100  0.89634900  0.47046300  1
  C  997  1  0.74274600  0.85345800  0.42899000  1
  C  998  1  0.73573300  0.83506200  0.41098200  1
  C  999  1  0.70167200  0.82930100  0.40407700  1
  C  1000  1  0.67428500  0.84184400  0.41604600  1
  C  1001  1  0.63286800  0.85953400  0.46438500  1
  C  1002  1  0.59891900  0.86550600  0.45854200  1
  C  1003  1  0.59895000  0.88442400  0.44079900  1
  C  1004  1  0.63291600  0.89033300  0.43495200  1
  C  1005  1  0.57156700  0.89718900  0.42952900  1
  C  1006  1  0.57877800  0.91620000  0.41217800  1
  C  1007  1  0.61292800  0.92228600  0.40579900  1
  C  1008  1  0.64013400  0.90923200  0.41741900  1
  C  1009  1  0.64002700  0.84067100  0.48196500  1
  C  1010  1  0.61278000  0.82771300  0.49364000  1
  C  1011  1  0.57864500  0.83384800  0.48725600  1
  C  1012  1  0.57149600  0.85283100  0.46986100  1
  C  1025  1  0.65709300  0.87491900  0.44967400  1
  C  1034  1  0.18138100  0.88986300  0.96430900  1
  C  1035  1  0.21528300  0.88380300  0.95842200  1
  C  1036  1  0.21520900  0.86541900  0.94018200  1
  C  1037  1  0.18126600  0.85987200  0.93392200  1
  C  1038  1  0.17420200  0.84157900  0.91569300  1
  C  1039  1  0.20154400  0.82878800  0.90393200  1
  C  1040  1  0.23561200  0.83434400  0.91098000  1
  C  1041  1  0.24269200  0.85280300  0.92890200  1
  C  1042  1  0.24288400  0.89596300  0.97004000  1
  C  1043  1  0.23596500  0.91455300  0.98786100  1
  C  1044  1  0.20192500  0.92067000  0.99450600  1
  C  1045  1  0.17447300  0.90827900  0.98244800  1
  C  1046  1  0.13306600  0.89032300  0.93409600  1
  C  1047  1  0.09907660  0.88463100  0.94012000  1
  C  1048  1  0.09890260  0.86594100  0.95807200  1
  C  1049  1  0.13279300  0.85984000  0.96392800  1
  C  1050  1  0.07132860  0.85351400  0.96946700  1
  C  1051  1  0.07826460  0.83462800  0.98699900  1
  C  1052  1  0.11232600  0.82835900  0.99345200  1
  C  1053  1  0.13972400  0.84107900  0.98168000  1
  C  1054  1  0.14027400  0.90884000  0.91613000  1
  C  1055  1  0.11301900  0.92169100  0.90433500  1
  C  1056  1  0.07889360  0.91596300  0.91109200  1
  C  1057  1  0.07168360  0.89730500  0.92878800  1
  C  1070  1  0.15713000  0.87499100  0.94903800  1
  C  1079  1  0.13288500  0.35958100  0.46555700  1
  C  1080  1  0.09885960  0.36486600  0.45928200  1
  C  1081  1  0.09852360  0.38341800  0.44118700  1
  C  1082  1  0.13236000  0.38981600  0.43548200  1
  C  1083  1  0.13914600  0.40855500  0.41768000  1
  C  1084  1  0.11164800  0.42096900  0.40571200  1
  C  1085  1  0.07763560  0.41439200  0.41199300  1
  C  1086  1  0.07085260  0.39551200  0.42956400  1
  C  1087  1  0.07159660  0.35196700  0.47052900  1
  C  1088  1  0.07898660  0.33351200  0.48840000  1
  C  1089  1  0.11315000  0.32821300  0.49540700  1
  C  1090  1  0.14027400  0.34127500  0.48369300  1
  C  1091  1  0.18129400  0.36014600  0.43549900  1
  C  1092  1  0.21512000  0.36654500  0.44122800  1
  C  1093  1  0.21475600  0.38510700  0.45931800  1
  C  1094  1  0.18071900  0.39037200  0.46557900  1
  C  1095  1  0.24199300  0.39801200  0.47059000  1
  C  1096  1  0.23456500  0.41647400  0.48844800  1
  C  1097  1  0.20038700  0.42177300  0.49541800  1
  C  1098  1  0.17329300  0.40869400  0.48368900  1
  C  1099  1  0.17452900  0.34140400  0.41769500  1
  C  1100  1  0.20204200  0.32898800  0.40574900  1
  C  1101  1  0.23604700  0.33557500  0.41203800  1
  C  1102  1  0.24280700  0.35446700  0.42960300  1
  C  1115  1  0.15681600  0.37497800  0.45057900  1
  C  1124  1  0.63266300  0.38969600  0.93457900  1
  C  1125  1  0.59878400  0.38358400  0.94047500  1
  C  1126  1  0.59892200  0.36524100  0.95876000  1
  C  1127  1  0.63288300  0.35977900  0.96503800  1
  C  1128  1  0.64001400  0.34151400  0.98328200  1
  C  1129  1  0.61271600  0.32870200  0.99507700  1
  C  1130  1  0.57862900  0.33417600  0.98801000  1
  C  1131  1  0.57148600  0.35259000  0.97005500  1
  C  1132  1  0.57114500  0.39570000  0.92885900  1
  C  1133  1  0.57800200  0.41428600  0.91102300  1
  C  1134  1  0.61202200  0.42044600  0.90435700  1
  C  1135  1  0.63951200  0.40810300  0.91641900  1
  C  1136  1  0.68106700  0.39025800  0.96472300  1
  C  1137  1  0.71503900  0.38458100  0.95863100  1
  C  1138  1  0.71517200  0.36584400  0.94072800  1
  C  1139  1  0.68126700  0.35970800  0.93496200  1
  C  1140  1  0.74271100  0.35339200  0.92931200  1
  C  1141  1  0.73572000  0.33444700  0.91185500  1
  C  1142  1  0.70163900  0.32814400  0.90549500  1
  C  1143  1  0.67427900  0.34089400  0.91727900  1
  C  1144  1  0.67391100  0.40879900  0.98267400  1
  C  1145  1  0.70120200  0.42167000  0.99440200  1
  C  1146  1  0.73530600  0.41595400  0.98758300  1
  C  1147  1  0.74246700  0.39727800  0.96989200  1
  C  1160  1  0.65696500  0.37488100  0.94985900  1
  C  1169  1  0.22460000  0.95494800  0.05154860  1
  C  1170  1  0.23357500  0.97769600  0.03997560  1
  C  1172  1  0.26296400  0.99212000  0.07642960  1
  C  1173  1  0.25485600  0.96972800  0.08938360  1
  C  1174  1  0.23553500  0.95147400  0.07645560  1
  C  1176  1  0.28391600  0.01135000  0.08610960  1
  C  1177  1  0.27394300  0.03683400  0.08769360  1
  C  1178  1  0.29865900  0.05421400  0.09618360  1
  C  1179  1  0.33208200  0.04676900  0.10296300  1
  C  1180  1  0.34009600  0.02120300  0.10096300  1
  C  1191  1  0.35808500  0.06489000  0.11195600  1
  C  1194  1  0.20581100  0.93447600  0.03862860  1
  C  1197  1  0.72482600  0.79548800  0.34701200  1
  C  1198  1  0.73373700  0.77271000  0.35855000  1
  C  1200  1  0.76370900  0.75853100  0.32225300  1
  C  1201  1  0.75569600  0.78096900  0.30934600  1
  C  1202  1  0.73609400  0.79910700  0.32220600  1
  C  1204  1  0.78501000  0.73944100  0.31270800  1
  C  1205  1  0.77540000  0.71388200  0.31110900  1
  C  1206  1  0.80044900  0.69666200  0.30282200  1
  C  1207  1  0.83382900  0.70434300  0.29621200  1
  C  1208  1  0.84146700  0.72997300  0.29817100  1
  C  1219  1  0.86018900  0.68640800  0.28742300  1
  C  1222  1  0.70571200  0.81583500  0.35987000  1
  C  1225  1  0.09004260  0.29457900  0.55235500  1
  C  1226  1  0.08089960  0.27191300  0.54069400  1
  C  1228  1  0.05076960  0.25771400  0.57690500  1
  C  1229  1  0.05896760  0.28005100  0.58992700  1
  C  1230  1  0.07874360  0.29815600  0.57716100  1
  C  1232  1  0.02957560  0.23856600  0.58645200  1
  C  1233  1  0.03933960  0.21303700  0.58801700  1
  C  1234  1  0.01445960  0.19575700  0.59643700  1
  C  1235  1  0.98109800  0.20335000  0.60319600  1
  C  1236  1  0.97328100  0.22894900  0.60120700  1
  C  1247  1  0.95506300  0.18536100  0.61237000  1
  C  1250  1  0.10948800  0.31484000  0.53963800  1
  C  1253  1  0.58915000  0.45482300  0.84742100  1
  C  1254  1  0.58033300  0.47758000  0.85904200  1
  C  1256  1  0.55066100  0.49204900  0.82273100  1
  C  1257  1  0.55860500  0.46965300  0.80973100  1
  C  1258  1  0.57801800  0.45137900  0.82255500  1
  C  1260  1  0.52949300  0.51123700  0.81323300  1
  C  1261  1  0.53930800  0.53675400  0.81163000  1
  C  1262  1  0.51437400  0.55408600  0.80338900  1
  C  1263  1  0.48089900  0.54655600  0.79685200  1
  C  1264  1  0.47305900  0.52095900  0.79882400  1
  C  1275  1  0.45462700  0.56460800  0.78816000  1
  C  1278  1  0.60799000  0.43432100  0.86025500  1
  C  1281  1  0.84031500  0.20489700  0.80230000  1
  C  1282  1  0.83135800  0.22765800  0.79074800  1
  C  1284  1  0.80159300  0.24191300  0.82710000  1
  C  1285  1  0.80971400  0.21951600  0.84004200  1
  C  1286  1  0.82922400  0.20134300  0.82716000  1
  C  1288  1  0.78029500  0.26099300  0.83665800  1
  C  1289  1  0.78983600  0.28657000  0.83818400  1
  C  1290  1  0.76472500  0.30377900  0.84640000  1
  C  1291  1  0.73133500  0.29607400  0.85296600  1
  C  1292  1  0.72376900  0.27043000  0.85106100  1
  C  1303  1  0.70485000  0.31400300  0.86157400  1
  C  1306  1  0.85921400  0.18447900  0.78938900  1
  C  1309  1  0.47425200  0.70485400  0.59690500  1
  C  1310  1  0.48332600  0.72756500  0.60851100  1
  C  1312  1  0.51308600  0.74184800  0.57217200  1
  C  1313  1  0.50485400  0.71950300  0.55917600  1
  C  1314  1  0.48527800  0.70134300  0.57202400  1
  C  1316  1  0.53453200  0.76087400  0.56268500  1
  C  1317  1  0.52517800  0.78649200  0.56123200  1
  C  1318  1  0.55038400  0.80361500  0.55299800  1
  C  1319  1  0.58367500  0.79578300  0.54632100  1
  C  1320  1  0.59105900  0.77010500  0.54815700  1
  C  1331  1  0.61020000  0.81360300  0.53757500  1
  C  1334  1  0.45527600  0.68445100  0.60977600  1
  C  1337  1  0.97459400  0.54524600  0.30222300  1
  C  1338  1  0.98323400  0.52243500  0.29064300  1
  C  1340  1  0.01311360  0.50801900  0.32688400  1
  C  1341  1  0.00536857  0.53047900  0.33983900  1
  C  1342  1  0.98596200  0.54876100  0.32702200  1
  C  1344  1  0.03410960  0.48875000  0.33642800  1
  C  1345  1  0.02406760  0.46328400  0.33807900  1
  C  1346  1  0.04883460  0.44585300  0.34638000  1
  C  1347  1  0.08237160  0.45323700  0.35292100  1
  C  1348  1  0.09045160  0.47878900  0.35087400  1
  C  1359  1  0.10841600  0.43507900  0.36175800  1
  C  1362  1  0.95570600  0.56573300  0.28941200  1
  C  1365  1  0.72453400  0.95475200  0.55221100  1
  C  1366  1  0.73301800  0.97758200  0.54060500  1
  C  1368  1  0.76304400  0.99205200  0.57675400  1
  C  1369  1  0.75544800  0.96958100  0.58973700  1
  C  1370  1  0.73600900  0.95127100  0.57698900  1
  C  1372  1  0.78419900  0.01129300  0.58615500  1
  C  1373  1  0.77425100  0.03677600  0.58784200  1
  C  1374  1  0.79918300  0.05417900  0.59593300  1
  C  1375  1  0.83277500  0.04674500  0.60225400  1
  C  1376  1  0.84074300  0.02117500  0.60020900  1
  C  1387  1  0.85902400  0.06486300  0.61084200  1
  C  1390  1  0.70567900  0.93422200  0.53944400  1
  C  1393  1  0.22520600  0.79500100  0.84704600  1
  C  1394  1  0.23405600  0.77226400  0.85868600  1
  C  1396  1  0.26420500  0.75795800  0.82251800  1
  C  1397  1  0.25630900  0.78037000  0.80952400  1
  C  1398  1  0.23667600  0.79856400  0.82228100  1
  C  1400  1  0.28520500  0.73869900  0.81295600  1
  C  1401  1  0.27513000  0.71324000  0.81127200  1
  C  1402  1  0.29980100  0.69583500  0.80277600  1
  C  1403  1  0.33325700  0.70323800  0.79604800  1
  C  1404  1  0.34139000  0.72877400  0.79816500  1
  C  1415  1  0.35906200  0.68511900  0.78677700  1
  C  1418  1  0.20590600  0.81535300  0.85974600  1
  C  1421  1  0.58926300  0.29496200  0.05206760  1
  C  1422  1  0.58064800  0.27212000  0.04053560  1
  C  1424  1  0.55051500  0.25786100  0.07673360  1
  C  1425  1  0.55817500  0.28037800  0.08961760  1
  C  1426  1  0.57770600  0.29859000  0.07680260  1
  C  1428  1  0.52952900  0.23859600  0.08630760  1
  C  1429  1  0.53968400  0.21316300  0.08811260  1
  C  1430  1  0.51499400  0.19572700  0.09651860  1
  C  1431  1  0.48144400  0.20307400  0.10306300  1
  C  1432  1  0.47326100  0.22859600  0.10088700  1
  C  1443  1  0.45552500  0.18490300  0.11207100  1
  C  1446  1  0.60840700  0.31534000  0.03928760  1
  C  1449  1  0.34057000  0.20563700  0.30246000  1
  C  1450  1  0.33156100  0.22832600  0.29078700  1
  C  1452  1  0.30138300  0.24260000  0.32695100  1
  C  1453  1  0.30947600  0.22025500  0.33999200  1
  C  1454  1  0.32921600  0.20210600  0.32725900  1
  C  1456  1  0.28012200  0.26174200  0.33643800  1
  C  1457  1  0.28984400  0.28727500  0.33805900  1
  C  1458  1  0.26486500  0.30454600  0.34635600  1
  C  1459  1  0.23143400  0.29693900  0.35292800  1
  C  1460  1  0.22367300  0.27133300  0.35090200  1
  C  1471  1  0.20517400  0.31492600  0.36177900  1
  C  1474  1  0.35991000  0.18530600  0.28976400  1
  C  1477  1  0.97453700  0.70471000  0.09703760  1
  C  1478  1  0.98329800  0.72750900  0.10859700  1
  C  1480  1  0.01309860  0.74186100  0.07229060  1
  C  1481  1  0.00521757  0.71941400  0.05935860  1
  C  1482  1  0.98577500  0.70117800  0.07220860  1
  C  1484  1  0.03425060  0.76103600  0.06274260  1
  C  1485  1  0.02439460  0.78653800  0.06103760  1
  C  1486  1  0.04929560  0.80385700  0.05271260  1
  C  1487  1  0.08277860  0.79633100  0.04618460  1
  C  1488  1  0.09065860  0.77074900  0.04826160  1
  C  1499  1  0.10902000  0.81438000  0.03742760  1
  C  1502  1  0.95563900  0.68425100  0.10989000  1
  C  1505  1  0.72376400  0.45544800  0.05156360  1
  C  1506  1  0.73321300  0.47813100  0.04006560  1
  C  1508  1  0.76295700  0.49208000  0.07655060  1
  C  1509  1  0.75437300  0.46974100  0.08943360  1
  C  1510  1  0.73463300  0.45176300  0.07645760  1
  C  1512  1  0.78441400  0.51100000  0.08624760  1
  C  1513  1  0.77517700  0.53663600  0.08776960  1
  C  1514  1  0.80040300  0.55366200  0.09617160  1
  C  1515  1  0.83361200  0.54572200  0.10294200  1
  C  1516  1  0.84088100  0.52003200  0.10104000  1
  C  1527  1  0.86018900  0.56346400  0.11177900  1
  C  1530  1  0.70453300  0.43524100  0.03858260  1
  C  1533  1  0.09022660  0.95551700  0.84730900  1
  C  1534  1  0.08087960  0.97818300  0.85888200  1
  C  1536  1  0.05070060  0.99213500  0.82259100  1
  C  1537  1  0.05916960  0.96981400  0.80963700  1
  C  1538  1  0.07910860  0.95185100  0.82247100  1
  C  1540  1  0.02891360  0.01096600  0.81311900  1
  C  1541  1  0.03786560  0.03665600  0.81158300  1
  C  1542  1  0.01231560  0.05357300  0.80348500  1
  C  1543  1  0.97907900  0.04546600  0.79699900  1
  C  1544  1  0.97211900  0.01972700  0.79886100  1
  C  1555  1  0.95210000  0.06307300  0.78856300  1
  C  1558  1  0.10964900  0.93531900  0.86015800  1
  C  1561  1  0.47333300  0.04460200  0.30270500  1
  C  1562  1  0.48257000  0.02191800  0.29112100  1
  C  1564  1  0.51302700  0.00799700  0.32730000  1
  C  1565  1  0.50472100  0.03035600  0.34024900  1
  C  1566  1  0.48472500  0.04832100  0.32746800  1
  C  1568  1  0.53457700  0.98904300  0.33681300  1
  C  1569  1  0.52528300  0.96342000  0.33840400  1
  C  1570  1  0.55057100  0.94635500  0.34662200  1
  C  1571  1  0.58388200  0.95424700  0.35316700  1
  C  1572  1  0.59120500  0.97992600  0.35121400  1
  C  1583  1  0.61048500  0.93647800  0.36189700  1
  C  1586  1  0.45368700  0.06474200  0.28995500  1
  C  1589  1  0.22338200  0.45531000  0.55242900  1
  C  1590  1  0.23247300  0.47803000  0.54085500  1
  C  1592  1  0.26305400  0.49195300  0.57697600  1
  C  1593  1  0.25486300  0.46957300  0.58992200  1
  C  1594  1  0.23484200  0.45159700  0.57717600  1
  C  1596  1  0.28487300  0.51081500  0.58633600  1
  C  1597  1  0.27586700  0.53649400  0.58789900  1
  C  1598  1  0.30146700  0.55345700  0.59582100  1
  C  1599  1  0.33479400  0.54540100  0.60211800  1
  C  1600  1  0.34180100  0.51967000  0.60024800  1
  C  1611  1  0.36181400  0.56304800  0.61039200  1
  C  1614  1  0.20384400  0.43512000  0.53966800  1
  N  38  1  0.16294000  0.05895800  0.18895500  1
  N  40  1  0.08498800  0.05939200  0.06389600  1
  N  42  1  0.08779900  0.19092300  0.18873800  1
  N  44  1  0.16579300  0.19038700  0.06402300  1
  N  83  1  0.66493800  0.68986300  0.06167900  1
  N  85  1  0.58710300  0.69180000  0.18621100  1
  N  87  1  0.58694700  0.55803900  0.06375700  1
  N  89  1  0.66483500  0.56010100  0.18840400  1
  N  128  1  0.58682200  0.19014300  0.68833200  1
  N  130  1  0.66600700  0.19083000  0.56442000  1
  N  132  1  0.66178000  0.05765500  0.68743800  1
  N  134  1  0.58656600  0.05939000  0.56267500  1
  N  173  1  0.08943900  0.55769000  0.56223900  1
  N  175  1  0.16436300  0.55912700  0.68704000  1
  N  177  1  0.16480600  0.69008200  0.56159500  1
  N  179  1  0.08527500  0.69065600  0.68549600  1
  N  218  1  0.33733300  0.94186600  0.31386500  1
  N  220  1  0.41499600  0.81011500  0.31163300  1
  N  222  1  0.41485700  0.93979100  0.43841600  1
  N  224  1  0.33712000  0.80817100  0.43637300  1
  N  263  1  0.83636200  0.80887400  0.93630600  1
  N  265  1  0.91538400  0.94004100  0.93752500  1
  N  267  1  0.91480800  0.80965200  0.81144300  1
  N  269  1  0.83701200  0.94096300  0.81202000  1
  N  308  1  0.91322400  0.44084900  0.43863700  1
  N  310  1  0.83736000  0.30913500  0.43862900  1
  N  312  1  0.83552000  0.44053900  0.31367100  1
  N  314  1  0.91527400  0.30942200  0.31370200  1
  N  353  1  0.41461400  0.30860000  0.81346400  1
  N  355  1  0.33561100  0.43983800  0.81209800  1
  N  357  1  0.33660400  0.30960200  0.93834400  1
  N  359  1  0.41437600  0.44094800  0.93746100  1
  N  363  1  0.97073500  0.99492400  0.97786800  1
  N  373  1  0.03488100  0.00483600  0.01797800  1
  N  377  1  0.96042900  0.04494400  0.00745800  1
  N  380  1  0.98272700  0.96542400  0.03882000  1
  N  391  1  0.47116800  0.75559400  0.27146900  1
  N  401  1  0.53594800  0.74617800  0.23174500  1
  N  405  1  0.46192900  0.70555000  0.24189500  1
  N  408  1  0.48390300  0.78541700  0.21075300  1
  N  419  1  0.78041700  0.25482600  0.47843500  1
  N  429  1  0.71574500  0.24522100  0.51827400  1
  N  433  1  0.78991500  0.20478700  0.50786900  1
  N  436  1  0.76790000  0.28442800  0.53928900  1
  N  447  1  0.28018300  0.49482800  0.77199400  1
  N  457  1  0.21557500  0.50464200  0.73233300  1
  N  461  1  0.28995700  0.54493500  0.74238700  1
  N  464  1  0.26757400  0.46536400  0.71109300  1
  N  475  1  0.53109700  0.24480100  0.72859300  1
  N  485  1  0.46645000  0.25423200  0.76832000  1
  N  489  1  0.54038500  0.29492200  0.75812400  1
  N  492  1  0.51874400  0.21513200  0.78942300  1
  N  503  1  0.22074900  0.74469300  0.52144600  1
  N  513  1  0.28539000  0.75399200  0.48166600  1
  N  517  1  0.21180900  0.79496500  0.49211400  1
  N  520  1  0.23286600  0.71516200  0.46052300  1
  N  531  1  0.72048300  0.50518100  0.22842500  1
  N  541  1  0.78518400  0.49520000  0.26806100  1
  N  545  1  0.71044300  0.45523700  0.25808900  1
  N  548  1  0.73365800  0.53482600  0.28917800  1
  N  559  1  0.47029100  0.99486400  0.47832500  1
  N  569  1  0.53532400  0.00479300  0.51758400  1
  N  573  1  0.46058600  0.04486200  0.50805000  1
  N  576  1  0.48392100  0.96525400  0.53903900  1
  N  587  1  0.97150800  0.75508900  0.77170300  1
  N  597  1  0.03621600  0.74516500  0.73191200  1
  N  601  1  0.96154900  0.70517100  0.74211700  1
  N  604  1  0.98461300  0.78474200  0.71093800  1
  N  615  1  0.28039300  0.25492600  0.97832300  1
  N  625  1  0.21554100  0.24501400  0.01795300  1
  N  629  1  0.29043800  0.20515000  0.00817600  1
  N  632  1  0.26683200  0.28483300  0.03890500  1
  N  643  1  0.03110500  0.24545600  0.22849400  1
  N  653  1  0.96623400  0.25507600  0.26809400  1
  N  657  1  0.04045600  0.29553600  0.25804800  1
  N  660  1  0.01832200  0.21590600  0.28934000  1
  N  671  1  0.72057800  0.74472100  0.02152300  1
  N  681  1  0.78527100  0.75444700  0.98184900  1
  N  685  1  0.71083500  0.79471900  0.99176900  1
  N  688  1  0.73342000  0.71504200  0.96075000  1
  N  699  1  0.47076700  0.49509200  0.97800400  1
  N  709  1  0.53519300  0.50400900  0.01811100  1
  N  713  1  0.46189100  0.54521600  0.00754700  1
  N  716  1  0.48218800  0.46523900  0.03884500  1
  N  727  1  0.78023600  0.99513100  0.77182400  1
  N  737  1  0.71520200  0.00381700  0.73226600  1
  N  741  1  0.78825700  0.04538600  0.74229000  1
  N  744  1  0.76814600  0.96531700  0.71103700  1
  N  755  1  0.22036200  0.00496600  0.22887400  1
  N  765  1  0.28545900  0.99598300  0.26844900  1
  N  769  1  0.21189000  0.95488700  0.25843000  1
  N  772  1  0.23300100  0.03488000  0.28955900  1
  N  783  1  0.97029200  0.49498900  0.47857300  1
  N  793  1  0.03577000  0.50371800  0.51774600  1
  N  797  1  0.96248800  0.54517500  0.50813100  1
  N  800  1  0.98331300  0.46503200  0.53919000  1
  N  846  1  0.44439200  0.05895800  0.26358200  1
  N  848  1  0.36644000  0.05939200  0.13852300  1
  N  850  1  0.36925100  0.19092300  0.26336500  1
  N  852  1  0.44724500  0.19038700  0.13865000  1
  N  891  1  0.94639000  0.68986300  0.13630600  1
  N  893  1  0.86855500  0.69180000  0.26083800  1
  N  895  1  0.86839900  0.55803900  0.13838400  1
  N  897  1  0.94628700  0.56010100  0.26303100  1
  N  936  1  0.86827400  0.19014300  0.76295900  1
  N  938  1  0.94745900  0.19083000  0.63904700  1
  N  940  1  0.94323200  0.05765500  0.76206500  1
  N  942  1  0.86801800  0.05939000  0.63730200  1
  N  981  1  0.37089100  0.55769000  0.63686600  1
  N  983  1  0.44581500  0.55912700  0.76166700  1
  N  985  1  0.44625800  0.69008200  0.63622200  1
  N  987  1  0.36672700  0.69065600  0.76012300  1
  N  1026  1  0.61878500  0.94186600  0.38849200  1
  N  1028  1  0.69644800  0.81011500  0.38626000  1
  N  1030  1  0.69630900  0.93979100  0.51304300  1
  N  1032  1  0.61857200  0.80817100  0.51100000  1
  N  1071  1  0.11781400  0.80887400  0.01093260  1
  N  1073  1  0.19683600  0.94004100  0.01215160  1
  N  1075  1  0.19626000  0.80965200  0.88607000  1
  N  1077  1  0.11846400  0.94096300  0.88664700  1
  N  1116  1  0.19467600  0.44084900  0.51326400  1
  N  1118  1  0.11881200  0.30913500  0.51325600  1
  N  1120  1  0.11697200  0.44053900  0.38829800  1
  N  1122  1  0.19672600  0.30942200  0.38832900  1
  N  1161  1  0.69606600  0.30860000  0.88809100  1
  N  1163  1  0.61706300  0.43983800  0.88672500  1
  N  1165  1  0.61805600  0.30960200  0.01297060  1
  N  1167  1  0.69582800  0.44094800  0.01208760  1
  N  1171  1  0.25218700  0.99492400  0.05249460  1
  N  1181  1  0.31633300  0.00483600  0.09260460  1
  N  1185  1  0.24188100  0.04494400  0.08208460  1
  N  1188  1  0.26417900  0.96542400  0.11344700  1
  N  1199  1  0.75262000  0.75559400  0.34609600  1
  N  1209  1  0.81740000  0.74617800  0.30637200  1
  N  1213  1  0.74338100  0.70555000  0.31652200  1
  N  1216  1  0.76535500  0.78541700  0.28538000  1
  N  1227  1  0.06186860  0.25482600  0.55306200  1
  N  1237  1  0.99719700  0.24522100  0.59290100  1
  N  1241  1  0.07136660  0.20478700  0.58249600  1
  N  1244  1  0.04935160  0.28442800  0.61391600  1
  N  1255  1  0.56163500  0.49482800  0.84662100  1
  N  1265  1  0.49702700  0.50464200  0.80696000  1
  N  1269  1  0.57140900  0.54493500  0.81701400  1
  N  1272  1  0.54902600  0.46536400  0.78572000  1
  N  1283  1  0.81254900  0.24480100  0.80322000  1
  N  1293  1  0.74790200  0.25423200  0.84294700  1
  N  1297  1  0.82183700  0.29492200  0.83275100  1
  N  1300  1  0.80019600  0.21513200  0.86405000  1
  N  1311  1  0.50220100  0.74469300  0.59607300  1
  N  1321  1  0.56684200  0.75399200  0.55629300  1
  N  1325  1  0.49326100  0.79496500  0.56674100  1
  N  1328  1  0.51431800  0.71516200  0.53515000  1
  N  1339  1  0.00193457  0.50518100  0.30305200  1
  N  1349  1  0.06663560  0.49520000  0.34268800  1
  N  1353  1  0.99189500  0.45523700  0.33271600  1
  N  1356  1  0.01510960  0.53482600  0.36380500  1
  N  1367  1  0.75174300  0.99486400  0.55295200  1
  N  1377  1  0.81677600  0.00479300  0.59221100  1
  N  1381  1  0.74203800  0.04486200  0.58267700  1
  N  1384  1  0.76537300  0.96525400  0.61366600  1
  N  1395  1  0.25296000  0.75508900  0.84633000  1
  N  1405  1  0.31766800  0.74516500  0.80653900  1
  N  1409  1  0.24300100  0.70517100  0.81674400  1
  N  1412  1  0.26606500  0.78474200  0.78556500  1
  N  1423  1  0.56184500  0.25492600  0.05294960  1
  N  1433  1  0.49699300  0.24501400  0.09257960  1
  N  1437  1  0.57189000  0.20515000  0.08280260  1
  N  1440  1  0.54828400  0.28483300  0.11353200  1
  N  1451  1  0.31255700  0.24545600  0.30312100  1
  N  1461  1  0.24768600  0.25507600  0.34272100  1
  N  1465  1  0.32190800  0.29553600  0.33267500  1
  N  1468  1  0.29977400  0.21590600  0.36396700  1
  N  1479  1  0.00202957  0.74472100  0.09614960  1
  N  1489  1  0.06672260  0.75444700  0.05647560  1
  N  1493  1  0.99228700  0.79471900  0.06639560  1
  N  1496  1  0.01487160  0.71504200  0.03537660  1
  N  1507  1  0.75221900  0.49509200  0.05263060  1
  N  1517  1  0.81664500  0.50400900  0.09273760  1
  N  1521  1  0.74334300  0.54521600  0.08217360  1
  N  1524  1  0.76364000  0.46523900  0.11347200  1
  N  1535  1  0.06168760  0.99513100  0.84645100  1
  N  1545  1  0.99665400  0.00381700  0.80689300  1
  N  1549  1  0.06970860  0.04538600  0.81691700  1
  N  1552  1  0.04959760  0.96531700  0.78566400  1
  N  1563  1  0.50181400  0.00496600  0.30350100  1
  N  1573  1  0.56691100  0.99598300  0.34307600  1
  N  1577  1  0.49334200  0.95488700  0.33305700  1
  N  1580  1  0.51445300  0.03488000  0.36418600  1
  N  1591  1  0.25174400  0.49498900  0.55320000  1
  N  1601  1  0.31722200  0.50371800  0.59237300  1
  N  1605  1  0.24394000  0.54517500  0.58275800  1
  N  1608  1  0.26476500  0.46503200  0.61381700  1
