# generated using pymatgen
data_H13(C8N)2
_symmetry_space_group_name_H-M   'P 1'
_cell_length_a   38.27230000
_cell_length_b   38.27230000
_cell_length_c   58.66790000
_cell_angle_alpha   90.00000000
_cell_angle_beta   90.00000000
_cell_angle_gamma   90.00000000
_symmetry_Int_Tables_number   1
_chemical_formula_structural   H13(C8N)2
_chemical_formula_sum   'H416 C512 N64'
_cell_volume   85934.91812271
_cell_formula_units_Z   32
loop_
 _symmetry_equiv_pos_site_id
 _symmetry_equiv_pos_as_xyz
  1  'x, y, z'
loop_
 _atom_site_type_symbol
 _atom_site_label
 _atom_site_symmetry_multiplicity
 _atom_site_fract_x
 _atom_site_fract_y
 _atom_site_fract_z
 _atom_site_occupancy
  H  7  1  0.12510600  0.44504000  0.87498300  1
  H  8  1  0.22087700  0.40992300  0.84881300  1
  H  9  1  0.14072700  0.44179000  0.80447900  1
  H  16  1  0.16584700  0.46334300  0.90575400  1
  H  17  1  0.20175500  0.38430200  0.94952400  1
  H  18  1  0.20375700  0.36915500  0.87870000  1
  H  29  1  0.37720000  0.54625700  0.37487100  1
  H  30  1  0.28141800  0.58157200  0.34885000  1
  H  31  1  0.36138700  0.54959100  0.30438400  1
  H  38  1  0.33572300  0.52747100  0.40548400  1
  H  39  1  0.30113400  0.60670000  0.44956800  1
  H  40  1  0.29980400  0.62271200  0.37880500  1
  H  51  1  0.79685600  0.86849300  0.12339000  1
  H  52  1  0.83756700  0.96353800  0.09909600  1
  H  53  1  0.79931200  0.88814700  0.05341700  1
  H  60  1  0.78227400  0.90915900  0.15536700  1
  H  61  1  0.86183000  0.94417200  0.19903700  1
  H  62  1  0.87801200  0.94335600  0.12831800  1
  H  73  1  0.70447100  0.12424100  0.62341700  1
  H  74  1  0.66488900  0.02878300  0.59901100  1
  H  75  1  0.70201200  0.10481800  0.55340800  1
  H  82  1  0.71950800  0.08314400  0.65535000  1
  H  83  1  0.64021500  0.04706100  0.69886600  1
  H  84  1  0.62389000  0.04874500  0.62817500  1
  H  95  1  0.37763600  0.44790400  0.62861400  1
  H  96  1  0.28333800  0.41033100  0.65573200  1
  H  97  1  0.36241600  0.44636200  0.69944200  1
  H  104  1  0.33661200  0.46522700  0.59878400  1
  H  105  1  0.30478200  0.38507800  0.55445000  1
  H  106  1  0.30180300  0.36934800  0.62495000  1
  H  117  1  0.12450200  0.54341700  0.12865600  1
  H  118  1  0.21883300  0.58113600  0.15563000  1
  H  119  1  0.13996100  0.54499500  0.19946500  1
  H  126  1  0.16548100  0.52608800  0.09880100  1
  H  127  1  0.19699400  0.60626900  0.05438400  1
  H  128  1  0.20013100  0.62211900  0.12486300  1
  H  139  1  0.70457300  0.86646300  0.38049900  1
  H  140  1  0.66520500  0.96196800  0.40521800  1
  H  141  1  0.70449700  0.88684800  0.45065000  1
  H  148  1  0.72023700  0.90691000  0.34918900  1
  H  149  1  0.64043200  0.93974000  0.30485800  1
  H  150  1  0.62420400  0.94176000  0.37528500  1
  H  161  1  0.79741800  0.12485800  0.88042700  1
  H  162  1  0.83688500  0.02936500  0.90509100  1
  H  163  1  0.79754600  0.10440500  0.95056000  1
  H  170  1  0.78179300  0.08438000  0.84911000  1
  H  171  1  0.86164200  0.05165400  0.80477700  1
  H  172  1  0.87790400  0.04966700  0.87519400  1
  H  183  1  0.87780300  0.54145200  0.12865800  1
  H  184  1  0.78267900  0.58194600  0.15300900  1
  H  185  1  0.85827100  0.54398400  0.19864400  1
  H  192  1  0.83765300  0.52699800  0.09661500  1
  H  193  1  0.80199300  0.60636100  0.05302400  1
  H  194  1  0.80219200  0.62216300  0.12377600  1
  H  205  1  0.62480500  0.44876100  0.62828600  1
  H  206  1  0.72152500  0.41148600  0.65237900  1
  H  207  1  0.64412200  0.44532000  0.69798300  1
  H  214  1  0.65545900  0.46057600  0.59568700  1
  H  215  1  0.69364000  0.38393300  0.55149900  1
  H  216  1  0.71254700  0.37565800  0.62156100  1
  H  227  1  0.20307600  0.12227900  0.87816100  1
  H  228  1  0.16152200  0.02770400  0.90275600  1
  H  229  1  0.20143600  0.10269600  0.94810300  1
  H  236  1  0.21815500  0.08272300  0.84690600  1
  H  237  1  0.14246900  0.04354900  0.80188000  1
  H  238  1  0.12249200  0.04419500  0.87207000  1
  H  249  1  0.29910200  0.86896300  0.37812700  1
  H  250  1  0.34037700  0.96364500  0.40274300  1
  H  251  1  0.30073200  0.88847900  0.44806100  1
  H  258  1  0.28391800  0.90848300  0.34687300  1
  H  259  1  0.35952700  0.94783200  0.30186500  1
  H  260  1  0.37945200  0.94728400  0.37205500  1
  H  271  1  0.62238500  0.54128700  0.37217100  1
  H  272  1  0.71795100  0.58076800  0.34761100  1
  H  273  1  0.64263500  0.54246600  0.30197900  1
  H  280  1  0.66278500  0.52564700  0.40375100  1
  H  281  1  0.69491300  0.60582000  0.44796700  1
  H  282  1  0.69752800  0.62154900  0.37749400  1
  H  293  1  0.88006300  0.44956800  0.87160400  1
  H  294  1  0.78464400  0.40987900  0.84695000  1
  H  295  1  0.85965100  0.44921300  0.80145000  1
  H  302  1  0.83974400  0.46506000  0.90294300  1
  H  303  1  0.80688200  0.38522700  0.94724700  1
  H  304  1  0.80488000  0.36903200  0.87683000  1
  H  315  1  0.29941800  0.12392200  0.62207800  1
  H  316  1  0.33840200  0.02843500  0.59693300  1
  H  317  1  0.29865500  0.10382700  0.55191000  1
  H  324  1  0.28318700  0.08480400  0.65278600  1
  H  325  1  0.35856500  0.04558300  0.69812300  1
  H  326  1  0.37798100  0.04381000  0.62814900  1
  H  337  1  0.20253600  0.86741100  0.12209700  1
  H  338  1  0.16366100  0.96294200  0.09696100  1
  H  339  1  0.20321000  0.88746500  0.05193500  1
  H  346  1  0.21881900  0.90648900  0.15281300  1
  H  347  1  0.14354000  0.94589600  0.19814200  1
  H  348  1  0.12410300  0.94764700  0.12818000  1
  H  358  1  0.25119200  0.34823100  0.73012500  1
  H  360  1  0.28639500  0.45146800  0.73683000  1
  H  362  1  0.21237000  0.32184400  0.75585300  1
  H  363  1  0.18007800  0.35196200  0.76446200  1
  H  364  1  0.21382900  0.33952800  0.78358800  1
  H  366  1  0.23522200  0.47442400  0.78748800  1
  H  367  1  0.24264600  0.49123500  0.75996600  1
  H  368  1  0.27822200  0.47780300  0.77726100  1
  H  370  1  0.29791500  0.37217300  0.70462200  1
  H  372  1  0.17844700  0.42109100  0.77814300  1
  H  378  1  0.25082900  0.64314200  0.23017500  1
  H  380  1  0.21553900  0.53992900  0.23684700  1
  H  382  1  0.28968000  0.66947700  0.25591300  1
  H  383  1  0.32196700  0.63932700  0.26448200  1
  H  384  1  0.28825000  0.65175100  0.28363900  1
  H  386  1  0.26674900  0.51688300  0.28748300  1
  H  387  1  0.25930200  0.50009000  0.25995500  1
  H  388  1  0.22374100  0.51352600  0.27726200  1
  H  390  1  0.20360100  0.61920800  0.20488900  1
  H  392  1  0.32356600  0.57020400  0.27810300  1
  H  398  1  0.89842300  0.99633000  0.98010100  1
  H  400  1  0.79512100  0.03124000  0.98701100  1
  H  402  1  0.92495200  0.95736400  0.00574500  1
  H  403  1  0.89489800  0.92502500  0.01436700  1
  H  404  1  0.90737200  0.95873300  0.03351500  1
  H  406  1  0.77215400  0.97974800  0.03748200  1
  H  407  1  0.75550200  0.98724200  0.00994700  1
  H  408  1  0.76871600  0.02278400  0.02734200  1
  H  410  1  0.87371100  0.04595200  0.95598600  1
  H  412  1  0.82692200  0.92312500  0.02821200  1
  H  418  1  0.60382900  0.99532900  0.48028500  1
  H  420  1  0.70709100  0.96033200  0.48713000  1
  H  422  1  0.57736800  0.03429300  0.50594100  1
  H  423  1  0.60740100  0.06671300  0.51447000  1
  H  424  1  0.59508400  0.03302100  0.53367300  1
  H  426  1  0.73011900  0.01187500  0.53758300  1
  H  427  1  0.74683800  0.00429700  0.51006600  1
  H  428  1  0.73347100  0.96881900  0.52746700  1
  H  430  1  0.62837900  0.94584700  0.45607600  1
  H  432  1  0.67567700  0.06883100  0.52803500  1
  H  438  1  0.75028200  0.64291200  0.27215600  1
  H  440  1  0.71543400  0.53959400  0.26532600  1
  H  442  1  0.78908000  0.66949200  0.24640700  1
  H  443  1  0.82141400  0.63947300  0.23772300  1
  H  444  1  0.78760100  0.65190500  0.21864300  1
  H  446  1  0.76660500  0.51674200  0.21466400  1
  H  447  1  0.75924400  0.50001200  0.24219400  1
  H  448  1  0.72362000  0.51330400  0.22489800  1
  H  450  1  0.70021400  0.61799600  0.29612100  1
  H  452  1  0.82332400  0.57159700  0.22386000  1
  H  458  1  0.75171400  0.34810800  0.77197400  1
  H  460  1  0.78677300  0.45134000  0.76498900  1
  H  462  1  0.71285800  0.32152300  0.74632300  1
  H  463  1  0.68070400  0.35166400  0.73754500  1
  H  464  1  0.71439700  0.33883300  0.71848500  1
  H  466  1  0.73559500  0.47422600  0.71438500  1
  H  467  1  0.74286400  0.49080200  0.74195900  1
  H  468  1  0.77856100  0.47778400  0.72463800  1
  H  470  1  0.80126700  0.37285000  0.79616400  1
  H  472  1  0.67926500  0.41877300  0.72312300  1
  H  478  1  0.10277800  0.99496300  0.02166200  1
  H  480  1  0.20615700  0.96005500  0.01513200  1
  H  482  1  0.07647200  0.03400000  0.99596500  1
  H  483  1  0.10666500  0.06616100  0.98726400  1
  H  484  1  0.09407100  0.03237600  0.96820600  1
  H  486  1  0.22915300  0.01109600  0.96439900  1
  H  487  1  0.24586400  0.00408100  0.99199500  1
  H  488  1  0.23279100  0.96823100  0.97482600  1
  H  490  1  0.12737200  0.94486700  0.04557800  1
  H  492  1  0.17574300  0.06748900  0.97366900  1
  H  498  1  0.39917900  0.99623300  0.52166500  1
  H  500  1  0.29583000  0.03122000  0.51513000  1
  H  502  1  0.42547800  0.95723100  0.49595300  1
  H  503  1  0.39527300  0.92507400  0.48726100  1
  H  504  1  0.40787200  0.95884800  0.46819500  1
  H  506  1  0.27281600  0.98020300  0.46439200  1
  H  507  1  0.25610600  0.98722100  0.49198800  1
  H  508  1  0.26919000  0.02306900  0.47482000  1
  H  510  1  0.37465000  0.04622500  0.54564200  1
  H  512  1  0.32629900  0.92375000  0.47364200  1
  H  518  1  0.75141300  0.84761600  0.23045800  1
  H  520  1  0.78630800  0.95099100  0.23679200  1
  H  522  1  0.71239600  0.82139400  0.25612100  1
  H  523  1  0.68021300  0.85157500  0.26481400  1
  H  524  1  0.71402600  0.83903300  0.28386600  1
  H  526  1  0.73541000  0.97387500  0.28767200  1
  H  527  1  0.74241700  0.99076900  0.26010500  1
  H  528  1  0.77826600  0.97748800  0.27721300  1
  H  530  1  0.80002300  0.87150800  0.20592300  1
  H  532  1  0.67907400  0.92202800  0.27838200  1
  H  538  1  0.75083900  0.14378900  0.73046400  1
  H  540  1  0.71567200  0.04047400  0.73662400  1
  H  542  1  0.78977300  0.16987400  0.75622800  1
  H  543  1  0.82188500  0.13960800  0.76489900  1
  H  544  1  0.78805600  0.15213300  0.78394300  1
  H  546  1  0.76633500  0.01738700  0.78757900  1
  H  547  1  0.75940300  0.00053600  0.75999000  1
  H  548  1  0.72351600  0.01386400  0.77704700  1
  H  550  1  0.70268600  0.12017400  0.70564100  1
  H  552  1  0.82285200  0.06901700  0.77830600  1
  H  558  1  0.39827800  0.49646600  0.48031500  1
  H  560  1  0.29494500  0.53128300  0.48709800  1
  H  562  1  0.42467300  0.45724000  0.50579800  1
  H  563  1  0.39462800  0.42480900  0.51428600  1
  H  564  1  0.40699700  0.45840800  0.53354200  1
  H  566  1  0.27198500  0.47940700  0.53747900  1
  H  567  1  0.25519600  0.48715400  0.50999100  1
  H  568  1  0.26857800  0.52253000  0.52747700  1
  H  570  1  0.37398900  0.54564300  0.45611600  1
  H  572  1  0.32579700  0.42282300  0.52811200  1
  H  578  1  0.10362200  0.49543200  0.98019200  1
  H  580  1  0.20684100  0.46018700  0.98689900  1
  H  582  1  0.07726200  0.53430100  0.00590200  1
  H  583  1  0.10738800  0.56662200  0.01445300  1
  H  584  1  0.09498900  0.53292100  0.03362800  1
  H  586  1  0.22985900  0.51148000  0.03749800  1
  H  587  1  0.24665800  0.50398600  0.00997900  1
  H  588  1  0.23321800  0.46845400  0.02731100  1
  H  590  1  0.12755300  0.44847300  0.95479300  1
  H  592  1  0.17644100  0.56833000  0.02807900  1
  H  598  1  0.25032300  0.14377500  0.77165500  1
  H  600  1  0.21546100  0.04039300  0.76510500  1
  H  602  1  0.28935800  0.17009900  0.74597500  1
  H  603  1  0.32154300  0.13993400  0.73727200  1
  H  604  1  0.28774900  0.15250400  0.71821400  1
  H  606  1  0.26650400  0.01745700  0.71436700  1
  H  607  1  0.25950000  0.00070900  0.74195600  1
  H  608  1  0.22364500  0.01380900  0.72479800  1
  H  610  1  0.20037700  0.11922400  0.79562100  1
  H  612  1  0.32294100  0.07070700  0.72372800  1
  H  618  1  0.25165700  0.84751900  0.27163600  1
  H  620  1  0.28660400  0.95087900  0.26511400  1
  H  622  1  0.21261300  0.82123400  0.24594900  1
  H  623  1  0.18042600  0.85142600  0.23729000  1
  H  624  1  0.21417800  0.83886800  0.21819800  1
  H  626  1  0.23551100  0.97390300  0.21441000  1
  H  627  1  0.24256200  0.99061500  0.24200300  1
  H  628  1  0.27839000  0.97752500  0.22481800  1
  H  630  1  0.30162000  0.87200700  0.29561600  1
  H  632  1  0.17901700  0.92048400  0.22373400  1
  H  638  1  0.59813500  0.49563600  0.51736300  1
  H  640  1  0.69956600  0.45454800  0.51822000  1
  H  642  1  0.57921600  0.53873500  0.49248900  1
  H  643  1  0.61259700  0.56850000  0.48534200  1
  H  644  1  0.59961400  0.53573200  0.46563100  1
  H  646  1  0.73332500  0.50613700  0.46961400  1
  H  647  1  0.74607500  0.49784100  0.49797700  1
  H  648  1  0.73308200  0.46304300  0.47987900  1
  H  650  1  0.61136400  0.44150800  0.53778800  1
  H  652  1  0.69008200  0.56196000  0.47403400  1
  H  658  1  0.89912900  0.49578400  0.02164500  1
  H  660  1  0.79582900  0.53098000  0.01536200  1
  H  662  1  0.92528900  0.45691600  0.99585800  1
  H  663  1  0.89504500  0.42479300  0.98716800  1
  H  664  1  0.90758100  0.45863200  0.96813400  1
  H  666  1  0.77282100  0.48030900  0.96441600  1
  H  667  1  0.75594700  0.48725600  0.99199700  1
  H  668  1  0.76928000  0.52313600  0.97493700  1
  H  670  1  0.87540700  0.54358400  0.04665700  1
  H  672  1  0.82458600  0.42380500  0.97371500  1
  H  678  1  0.17019100  0.27020100  0.91094100  1
  H  680  1  0.27897500  0.27984700  0.91485100  1
  H  682  1  0.14055800  0.21846200  0.90787400  1
  H  683  1  0.15889700  0.18511700  0.92454300  1
  H  684  1  0.16529500  0.18571900  0.89448200  1
  H  686  1  0.29880900  0.18572500  0.91890400  1
  H  687  1  0.31020400  0.22488700  0.93266000  1
  H  688  1  0.31212400  0.22206500  0.90249700  1
  H  690  1  0.21946000  0.31603000  0.88890200  1
  H  692  1  0.24551100  0.16513600  0.89365400  1
  H  698  1  0.33133900  0.72043800  0.41102000  1
  H  700  1  0.22248500  0.71165400  0.41502900  1
  H  702  1  0.36135600  0.77201800  0.40797300  1
  H  703  1  0.34321200  0.80557800  0.42455100  1
  H  704  1  0.33683400  0.80484600  0.39449200  1
  H  706  1  0.20334700  0.80592300  0.41890700  1
  H  707  1  0.19161400  0.76686600  0.43266800  1
  H  708  1  0.18980900  0.76965900  0.40250100  1
  H  710  1  0.27907700  0.67444100  0.38923000  1
  H  712  1  0.25638200  0.82612300  0.39383500  1
  H  718  1  0.97562800  0.91481600  0.16061900  1
  H  720  1  0.96639100  0.02360700  0.16465700  1
  H  722  1  0.02742100  0.88498500  0.15795500  1
  H  723  1  0.06070300  0.90336700  0.17466300  1
  H  724  1  0.06029700  0.90959300  0.14458700  1
  H  726  1  0.06053900  0.04311200  0.16900400  1
  H  727  1  0.02131600  0.05459000  0.18265500  1
  H  728  1  0.02436300  0.05659200  0.15250400  1
  H  730  1  0.92868500  0.96852100  0.13888800  1
  H  732  1  0.08117100  0.99007200  0.14384100  1
  H  738  1  0.52680400  0.07616700  0.66048000  1
  H  740  1  0.53556800  0.96733700  0.66452700  1
  H  742  1  0.47515100  0.10623400  0.65794600  1
  H  743  1  0.44178700  0.08797300  0.67463800  1
  H  744  1  0.44217400  0.08178600  0.64455800  1
  H  746  1  0.44132700  0.94828200  0.66901100  1
  H  747  1  0.48054600  0.93661300  0.68259600  1
  H  748  1  0.47737200  0.93461400  0.65245000  1
  H  750  1  0.57363200  0.02204200  0.63879000  1
  H  752  1  0.42081100  0.00111700  0.64393600  1
  H  758  1  0.33116400  0.27201400  0.59246400  1
  H  760  1  0.22243500  0.28155900  0.58787300  1
  H  762  1  0.36088300  0.21999500  0.59434500  1
  H  763  1  0.34256100  0.18744500  0.57700700  1
  H  764  1  0.33608100  0.18665000  0.60705600  1
  H  766  1  0.20274500  0.18764400  0.58238600  1
  H  767  1  0.19145600  0.22728300  0.56917800  1
  H  768  1  0.18929000  0.22339000  0.59928300  1
  H  770  1  0.27507100  0.31952600  0.61371500  1
  H  772  1  0.25630700  0.16614600  0.60733700  1
  H  778  1  0.17109200  0.71900100  0.09235300  1
  H  780  1  0.27987400  0.70989000  0.08781500  1
  H  782  1  0.14116700  0.77089500  0.09425500  1
  H  783  1  0.15937600  0.80359200  0.07698500  1
  H  784  1  0.16584400  0.80427100  0.10703400  1
  H  786  1  0.29917500  0.80391100  0.08239600  1
  H  787  1  0.31069000  0.76432600  0.06919900  1
  H  788  1  0.31275100  0.76822400  0.09930700  1
  H  790  1  0.22784100  0.67151700  0.11345800  1
  H  792  1  0.24584000  0.82519500  0.10717800  1
  H  798  1  0.52783400  0.91539600  0.34252300  1
  H  800  1  0.53726400  0.02413700  0.33800900  1
  H  802  1  0.47581200  0.88561500  0.34423600  1
  H  803  1  0.44329700  0.90398600  0.32688700  1
  H  804  1  0.44241200  0.91035100  0.35694500  1
  H  806  1  0.44333400  0.04369600  0.33231600  1
  H  807  1  0.48302100  0.05502000  0.31918300  1
  H  808  1  0.47897300  0.05723100  0.34927600  1
  H  810  1  0.57631300  0.97347500  0.36331300  1
  H  812  1  0.42173300  0.99033000  0.35718500  1
  H  818  1  0.97383800  0.07559200  0.84251300  1
  H  820  1  0.96487300  0.96680900  0.83797400  1
  H  822  1  0.02571300  0.10559600  0.84426400  1
  H  823  1  0.05835800  0.08738300  0.82695300  1
  H  824  1  0.05917900  0.08099500  0.85700800  1
  H  826  1  0.05891600  0.94767000  0.83234600  1
  H  827  1  0.01929100  0.93614500  0.81920800  1
  H  828  1  0.02333000  0.93397100  0.84930200  1
  H  830  1  0.92537700  0.01704200  0.86309200  1
  H  832  1  0.08032900  0.00089900  0.85711100  1
  H  838  1  0.83174600  0.72059700  0.09143500  1
  H  840  1  0.72303500  0.71028700  0.08736300  1
  H  842  1  0.86105100  0.77269000  0.09410300  1
  H  843  1  0.84242700  0.80572900  0.07730100  1
  H  844  1  0.83603900  0.80537100  0.10735900  1
  H  846  1  0.70265200  0.80425100  0.08283500  1
  H  847  1  0.69150600  0.76487000  0.06927000  1
  H  848  1  0.68953800  0.76803100  0.09941700  1
  H  850  1  0.78007600  0.67379800  0.11341200  1
  H  852  1  0.75561200  0.82531000  0.10796000  1
  H  858  1  0.66932000  0.27277700  0.59065500  1
  H  860  1  0.77796800  0.28340400  0.58663200  1
  H  862  1  0.64020200  0.22087000  0.59425200  1
  H  863  1  0.65861800  0.18758700  0.57755400  1
  H  864  1  0.66535600  0.18837700  0.60757700  1
  H  866  1  0.79845000  0.18920900  0.58294600  1
  H  867  1  0.80963300  0.22833800  0.56909100  1
  H  868  1  0.81155600  0.22570800  0.59926100  1
  H  870  1  0.71187000  0.31950800  0.61150000  1
  H  872  1  0.74603100  0.16791200  0.60763700  1
  H  878  1  0.67083000  0.71879700  0.40959400  1
  H  880  1  0.77947300  0.70839800  0.41429100  1
  H  882  1  0.64157100  0.77115400  0.40765600  1
  H  883  1  0.66009100  0.80347500  0.42509600  1
  H  884  1  0.66676500  0.80432600  0.39507300  1
  H  886  1  0.79989200  0.80218100  0.41983300  1
  H  887  1  0.81093700  0.76241100  0.43294700  1
  H  888  1  0.81302200  0.76642700  0.40284700  1
  H  890  1  0.72810700  0.66983700  0.38901700  1
  H  892  1  0.74650600  0.82414500  0.39510000  1
  H  898  1  0.83078200  0.27264100  0.90947500  1
  H  900  1  0.72206800  0.28264800  0.91406900  1
  H  902  1  0.86027500  0.22043100  0.90777900  1
  H  903  1  0.84181600  0.18802600  0.92517900  1
  H  904  1  0.83525000  0.18717800  0.89514500  1
  H  906  1  0.70206400  0.18879600  0.91990100  1
  H  907  1  0.69082100  0.22859700  0.93291000  1
  H  908  1  0.68876200  0.22438600  0.90281900  1
  H  910  1  0.77298800  0.32130800  0.88873600  1
  H  912  1  0.75524100  0.16705500  0.89521300  1
  H  918  1  0.47639400  0.41476200  0.66083700  1
  H  920  1  0.46698000  0.52355100  0.66484700  1
  H  922  1  0.52809800  0.38501000  0.65789300  1
  H  923  1  0.56140600  0.40326100  0.67464000  1
  H  924  1  0.56095700  0.40969900  0.64458100  1
  H  926  1  0.56109000  0.54320300  0.66917000  1
  H  927  1  0.52182700  0.55464400  0.68277500  1
  H  928  1  0.52492000  0.55658000  0.65262400  1
  H  930  1  0.43056800  0.46464200  0.63882300  1
  H  932  1  0.58196200  0.49107300  0.64435900  1
  H  938  1  0.02583200  0.57596000  0.16091900  1
  H  940  1  0.03574800  0.46718200  0.16491100  1
  H  942  1  0.97394500  0.60544300  0.15792000  1
  H  943  1  0.94067000  0.58705400  0.17463200  1
  H  944  1  0.94127900  0.58050400  0.14459200  1
  H  946  1  0.94166100  0.44713800  0.16911400  1
  H  947  1  0.98092200  0.43573800  0.18274000  1
  H  948  1  0.97791400  0.43397200  0.15258000  1
  H  950  1  0.07172800  0.52629500  0.13892000  1
  H  952  1  0.92079200  0.50000900  0.14419500  1
  H  958  1  0.02759300  0.41580500  0.84242600  1
  H  960  1  0.03784500  0.52450000  0.83782100  1
  H  962  1  0.97533000  0.38642100  0.84420300  1
  H  963  1  0.94295700  0.40491700  0.82679800  1
  H  964  1  0.94212800  0.41152200  0.85682800  1
  H  966  1  0.94405900  0.54476000  0.83209000  1
  H  967  1  0.98385300  0.55590900  0.81904200  1
  H  968  1  0.97973500  0.55793400  0.84913900  1
  H  970  1  0.07521900  0.47143000  0.86378700  1
  H  972  1  0.92218500  0.49168800  0.85674900  1
  H  978  1  0.47445000  0.57531700  0.34234200  1
  H  980  1  0.46447500  0.46660100  0.33770800  1
  H  982  1  0.52661900  0.60482200  0.34423400  1
  H  983  1  0.55918800  0.58636700  0.32696400  1
  H  984  1  0.55976300  0.57980900  0.35700300  1
  H  986  1  0.55834700  0.44657100  0.33221900  1
  H  987  1  0.51863900  0.43531800  0.31909400  1
  H  988  1  0.52262100  0.43330800  0.34919900  1
  H  990  1  0.42682600  0.51931800  0.36354800  1
  H  992  1  0.57991600  0.49960200  0.35705900  1
  C  1  1  0.17529600  0.42801700  0.86561100  1
  C  2  1  0.14155100  0.44148700  0.86147600  1
  C  3  1  0.12873000  0.44684000  0.83915400  1
  C  4  1  0.15040100  0.43841900  0.82056400  1
  C  5  1  0.18445000  0.42479600  0.82374200  1
  C  6  1  0.19637400  0.41998000  0.84635200  1
  C  10  1  0.18487700  0.41839900  0.88845800  1
  C  11  1  0.17626900  0.43893700  0.90785400  1
  C  12  1  0.18239000  0.42660900  0.93021700  1
  C  13  1  0.19757200  0.39342300  0.93331400  1
  C  14  1  0.20564800  0.37195100  0.91457700  1
  C  15  1  0.19953900  0.38504900  0.89237200  1
  C  23  1  0.32701200  0.56332400  0.36554400  1
  C  24  1  0.36072100  0.54979200  0.36137600  1
  C  25  1  0.37348700  0.54450600  0.33903700  1
  C  26  1  0.35176400  0.55296900  0.32048000  1
  C  27  1  0.31771600  0.56658500  0.32370700  1
  C  28  1  0.30587700  0.57144000  0.34633200  1
  C  32  1  0.31754300  0.57293700  0.38839300  1
  C  33  1  0.32569300  0.55202100  0.40769100  1
  C  34  1  0.31989000  0.56428300  0.43010100  1
  C  35  1  0.30528900  0.59770900  0.43332500  1
  C  36  1  0.29741400  0.61942200  0.41466100  1
  C  37  1  0.30349100  0.60651700  0.39240500  1
  C  45  1  0.81710300  0.91825200  0.11512500  1
  C  46  1  0.80078300  0.88589500  0.11040100  1
  C  47  1  0.79344100  0.87521300  0.08784500  1
  C  48  1  0.80354500  0.89684200  0.06965500  1
  C  49  1  0.81977900  0.92952700  0.07344200  1
  C  50  1  0.82584800  0.93989200  0.09624600  1
  C  54  1  0.82790000  0.92636500  0.13802200  1
  C  55  1  0.80703600  0.91872000  0.15743900  1
  C  56  1  0.81936300  0.92500400  0.17978800  1
  C  57  1  0.85285500  0.93953100  0.18285000  1
  C  58  1  0.87463300  0.94673200  0.16410900  1
  C  59  1  0.86172800  0.94005600  0.14192300  1
  C  67  1  0.68474600  0.07429100  0.61507700  1
  C  68  1  0.70071600  0.10685400  0.61039700  1
  C  69  1  0.70794800  0.11775300  0.58786300  1
  C  70  1  0.69800400  0.09602000  0.56964700  1
  C  71  1  0.68229000  0.06304700  0.57338800  1
  C  72  1  0.67633000  0.05257400  0.59618100  1
  C  76  1  0.67396000  0.06590300  0.63793600  1
  C  77  1  0.69479800  0.07342500  0.65738300  1
  C  78  1  0.68253600  0.06674600  0.67970200  1
  C  79  1  0.64914900  0.05195000  0.68269700  1
  C  80  1  0.62739900  0.04482900  0.66393200  1
  C  81  1  0.64020500  0.05195400  0.64178000  1
  C  89  1  0.32834000  0.42917800  0.63841200  1
  C  90  1  0.36171600  0.44380700  0.64229100  1
  C  91  1  0.37478600  0.45004600  0.66448600  1
  C  92  1  0.35329500  0.44211600  0.68324100  1
  C  93  1  0.32006500  0.42702500  0.68016700  1
  C  94  1  0.30775800  0.42073300  0.65781600  1
  C  98  1  0.31861700  0.41961700  0.61558000  1
  C  99  1  0.32658100  0.44071600  0.59632100  1
  C  100  1  0.32171900  0.42880900  0.57371400  1
  C  101  1  0.30816600  0.39472700  0.57053800  1
  C  102  1  0.29985700  0.37299100  0.58912400  1
  C  103  1  0.30522400  0.38583300  0.61144800  1
  C  111  1  0.17379300  0.56222200  0.13838400  1
  C  112  1  0.14046700  0.54751600  0.14231200  1
  C  113  1  0.12748800  0.54128000  0.16452700  1
  C  114  1  0.14900000  0.54930600  0.18325000  1
  C  115  1  0.18220400  0.56442200  0.18012200  1
  C  116  1  0.19443900  0.57069500  0.15775400  1
  C  120  1  0.18340000  0.57178700  0.11553700  1
  C  121  1  0.17543900  0.55062600  0.09630800  1
  C  122  1  0.18020800  0.56251200  0.07368800  1
  C  123  1  0.19366200  0.59662500  0.07047900  1
  C  124  1  0.20202700  0.61838200  0.08904300  1
  C  125  1  0.19672500  0.60558700  0.11138000  1
  C  133  1  0.68489800  0.91638100  0.38890400  1
  C  134  1  0.70104000  0.88387200  0.39353000  1
  C  135  1  0.70914000  0.87317800  0.41599200  1
  C  136  1  0.69990400  0.89501300  0.43427500  1
  C  137  1  0.68342900  0.92736300  0.43044000  1
  C  138  1  0.67647400  0.93805800  0.40782600  1
  C  142  1  0.67455400  0.92474500  0.36597300  1
  C  143  1  0.69568900  0.91684400  0.34671900  1
  C  144  1  0.68401200  0.92225800  0.32410100  1
  C  145  1  0.64998700  0.93598600  0.32093400  1
  C  146  1  0.62816200  0.94407500  0.33950400  1
  C  147  1  0.64078200  0.93827700  0.36182600  1
  C  155  1  0.81713500  0.07494600  0.88880400  1
  C  156  1  0.80094000  0.10742000  0.89344600  1
  C  157  1  0.79275900  0.11806600  0.91590300  1
  C  158  1  0.80209500  0.09625100  0.93417300  1
  C  159  1  0.81864500  0.06395100  0.93031400  1
  C  160  1  0.82557400  0.05325400  0.90770600  1
  C  164  1  0.82751800  0.06662700  0.86588400  1
  C  165  1  0.80636200  0.07449000  0.84663700  1
  C  166  1  0.81804400  0.06908500  0.82402100  1
  C  167  1  0.85208400  0.05539900  0.82085200  1
  C  168  1  0.87389100  0.04725100  0.83942300  1
  C  169  1  0.86130500  0.05313200  0.86174000  1
  C  177  1  0.82801200  0.56163100  0.13693400  1
  C  178  1  0.86042400  0.54544200  0.14165400  1
  C  179  1  0.87108700  0.53804700  0.16419400  1
  C  180  1  0.84953400  0.54819300  0.18241100  1
  C  181  1  0.81681300  0.56436700  0.17864600  1
  C  182  1  0.80637700  0.57032700  0.15583800  1
  C  186  1  0.81983600  0.57233900  0.11402400  1
  C  187  1  0.82786300  0.55167300  0.09457900  1
  C  188  1  0.82152900  0.56403200  0.07224200  1
  C  189  1  0.80660200  0.59734600  0.06920900  1
  C  190  1  0.79915300  0.61899400  0.08796500  1
  C  191  1  0.80581800  0.60602900  0.11014000  1
  C  199  1  0.67566700  0.43028500  0.63601900  1
  C  200  1  0.64256200  0.44507400  0.64106100  1
  C  201  1  0.63155900  0.45184400  0.66360300  1
  C  202  1  0.65311500  0.44165400  0.68175800  1
  C  203  1  0.68624100  0.42641600  0.67793400  1
  C  204  1  0.69720700  0.42175700  0.65507000  1
  C  208  1  0.68468600  0.42111900  0.61272700  1
  C  209  1  0.67054000  0.43879500  0.59346900  1
  C  210  1  0.67475700  0.42604500  0.57104600  1
  C  211  1  0.69347600  0.39490700  0.56745000  1
  C  212  1  0.70757700  0.37612300  0.58592200  1
  C  213  1  0.70384900  0.39018600  0.60816500  1
  C  221  1  0.18214400  0.07275900  0.88651700  1
  C  222  1  0.19885800  0.10499000  0.89117000  1
  C  223  1  0.20675900  0.11557000  0.91366300  1
  C  224  1  0.19669400  0.09407700  0.93191000  1
  C  225  1  0.17993700  0.06162700  0.92824800  1
  C  226  1  0.17327000  0.05136200  0.90549000  1
  C  230  1  0.17250700  0.06372700  0.86351100  1
  C  231  1  0.19399200  0.07192800  0.84445600  1
  C  232  1  0.18305500  0.06489400  0.82190800  1
  C  233  1  0.15066800  0.04843500  0.81821400  1
  C  234  1  0.12894200  0.03945800  0.83659200  1
  C  235  1  0.13977800  0.04783200  0.85898600  1
  C  243  1  0.31987600  0.91854700  0.38649100  1
  C  244  1  0.30325600  0.88626800  0.39113900  1
  C  245  1  0.29533400  0.87564400  0.41361600  1
  C  246  1  0.30541700  0.89713200  0.43187000  1
  C  247  1  0.32205600  0.92964700  0.42822200  1
  C  248  1  0.32869000  0.93995500  0.40547000  1
  C  252  1  0.32950500  0.92760600  0.36348800  1
  C  253  1  0.30806100  0.91932600  0.34443000  1
  C  254  1  0.31901900  0.92633900  0.32188500  1
  C  255  1  0.35133500  0.94294100  0.31820100  1
  C  256  1  0.37300600  0.95206800  0.33658400  1
  C  257  1  0.36218400  0.94359900  0.35896600  1
  C  265  1  0.67232700  0.56102000  0.36387000  1
  C  266  1  0.63976600  0.54505800  0.35915000  1
  C  267  1  0.62907400  0.53729800  0.33663700  1
  C  268  1  0.65084200  0.54679800  0.31838000  1
  C  269  1  0.68324700  0.56311000  0.32228900  1
  C  270  1  0.69399800  0.56961900  0.34495500  1
  C  274  1  0.68072300  0.57119700  0.38686100  1
  C  275  1  0.67284700  0.55014800  0.40618300  1
  C  276  1  0.67862200  0.56175400  0.42881400  1
  C  277  1  0.69191100  0.59597700  0.43189200  1
  C  278  1  0.69990400  0.61778900  0.41327200  1
  C  279  1  0.69416300  0.60500200  0.39097900  1
  C  287  1  0.83019600  0.42973100  0.86323000  1
  C  288  1  0.86264500  0.44595700  0.85858300  1
  C  289  1  0.87323800  0.45408800  0.83611600  1
  C  290  1  0.85149100  0.44467400  0.81783700  1
  C  291  1  0.81920700  0.42811900  0.82171500  1
  C  292  1  0.80851700  0.42121900  0.84433000  1
  C  296  1  0.82188700  0.41938500  0.88615600  1
  C  297  1  0.82982000  0.44050400  0.90540600  1
  C  298  1  0.82441900  0.42879600  0.92801500  1
  C  299  1  0.81066300  0.39478700  0.93117700  1
  C  300  1  0.80251600  0.37300400  0.91260100  1
  C  301  1  0.80837400  0.38561300  0.89028700  1
  C  309  1  0.31918100  0.07399300  0.61353300  1
  C  310  1  0.30307300  0.10661900  0.60900600  1
  C  311  1  0.29457600  0.11738700  0.58661400  1
  C  312  1  0.30361700  0.09567600  0.56824600  1
  C  313  1  0.32025000  0.06338800  0.57194300  1
  C  314  1  0.32745100  0.05252700  0.59448500  1
  C  318  1  0.32835300  0.06445400  0.63653500  1
  C  319  1  0.30692700  0.07321900  0.65551500  1
  C  320  1  0.31726900  0.06667400  0.67827400  1
  C  321  1  0.34986700  0.05018200  0.68193200  1
  C  322  1  0.37140700  0.04023300  0.66367100  1
  C  323  1  0.36071500  0.04798700  0.64118000  1
  C  331  1  0.18283500  0.91736600  0.11356000  1
  C  332  1  0.19890700  0.88472700  0.10902800  1
  C  333  1  0.20743100  0.87394900  0.08664500  1
  C  334  1  0.19831200  0.89563800  0.06827500  1
  C  335  1  0.18168200  0.92793000  0.07197100  1
  C  336  1  0.17456800  0.93883100  0.09451300  1
  C  340  1  0.17368700  0.92691100  0.13656200  1
  C  341  1  0.19509700  0.91811400  0.15554100  1
  C  342  1  0.18476300  0.92469000  0.17829500  1
  C  343  1  0.15220100  0.94125300  0.18194800  1
  C  344  1  0.13070500  0.95132600  0.16368700  1
  C  345  1  0.14136200  0.94344800  0.14120900  1
  C  353  1  0.27134000  0.39944100  0.72998000  1
  C  354  1  0.25114800  0.37157200  0.73867100  1
  C  355  1  0.22940400  0.37561100  0.75806700  1
  C  356  1  0.22824900  0.40850200  0.76948900  1
  C  357  1  0.25002500  0.43631300  0.76180500  1
  C  359  1  0.27129000  0.43107700  0.74241400  1
  C  361  1  0.20776600  0.34548200  0.76582700  1
  C  365  1  0.25138400  0.47177200  0.77231800  1
  C  369  1  0.29068000  0.39580900  0.70988000  1
  C  371  1  0.20154900  0.41539700  0.78484800  1
  C  373  1  0.23065800  0.59194500  0.23001800  1
  C  374  1  0.25083800  0.61980600  0.23872800  1
  C  375  1  0.27261800  0.61571500  0.25810200  1
  C  376  1  0.27375200  0.58279800  0.26949800  1
  C  377  1  0.25195000  0.55501300  0.26181400  1
  C  379  1  0.23068800  0.56028500  0.24243100  1
  C  381  1  0.29428400  0.64582000  0.26586900  1
  C  385  1  0.25057900  0.51954800  0.27231800  1
  C  389  1  0.21125800  0.59560600  0.20995600  1
  C  391  1  0.30047900  0.57589500  0.28483400  1
  C  393  1  0.84713000  0.01622300  0.98007700  1
  C  394  1  0.87511600  0.99614400  0.98868700  1
  C  395  1  0.87118200  0.97435000  0.00806500  1
  C  396  1  0.83834100  0.97315900  0.01954900  1
  C  397  1  0.81039100  0.99480600  0.01191200  1
  C  399  1  0.81553300  0.01610700  0.99254400  1
  C  401  1  0.90135700  0.95271600  0.01575600  1
  C  405  1  0.77487200  0.99599000  0.02236100  1
  C  409  1  0.85057700  0.03599500  0.96019300  1
  C  411  1  0.83157800  0.94647100  0.03491400  1
  C  413  1  0.65510600  0.97540100  0.48019900  1
  C  414  1  0.62715600  0.99550900  0.48884300  1
  C  415  1  0.63118300  0.01741700  0.50816900  1
  C  416  1  0.66407900  0.01869200  0.51959700  1
  C  417  1  0.69192600  0.99690400  0.51198200  1
  C  419  1  0.68672400  0.97553600  0.49264400  1
  C  421  1  0.60100400  0.03901200  0.51589700  1
  C  425  1  0.72741200  0.99562400  0.52246400  1
  C  429  1  0.65159200  0.95556900  0.46032700  1
  C  431  1  0.67093000  0.04557500  0.53484100  1
  C  433  1  0.73047400  0.59158700  0.27224600  1
  C  434  1  0.75045700  0.61960300  0.26357300  1
  C  435  1  0.77214600  0.61570400  0.24413300  1
  C  436  1  0.77329100  0.58287400  0.23263100  1
  C  437  1  0.75170300  0.55491300  0.24031700  1
  C  439  1  0.73053400  0.56000900  0.25976000  1
  C  441  1  0.79371000  0.64590100  0.23639000  1
  C  445  1  0.75044400  0.51942600  0.22982600  1
  C  449  1  0.71070200  0.59500300  0.29214800  1
  C  451  1  0.79992900  0.57614800  0.21720200  1
  C  453  1  0.77174700  0.39933900  0.77192500  1
  C  454  1  0.75171600  0.37133400  0.76329600  1
  C  455  1  0.73012600  0.37519100  0.74381200  1
  C  456  1  0.72919400  0.40793500  0.73217900  1
  C  457  1  0.75065000  0.43595000  0.73993100  1
  C  459  1  0.77172600  0.43089700  0.75941300  1
  C  461  1  0.70836400  0.34504900  0.73621200  1
  C  465  1  0.75176100  0.47150800  0.72953800  1
  C  469  1  0.79135400  0.39596800  0.79188600  1
  C  471  1  0.70278000  0.41451700  0.71657200  1
  C  473  1  0.15407600  0.97507900  0.02184500  1
  C  474  1  0.12613200  0.99510200  0.01313100  1
  C  475  1  0.13017000  0.01678500  0.99371500  1
  C  476  1  0.16305900  0.01782600  0.98229800  1
  C  477  1  0.19100200  0.99629300  0.99006400  1
  C  479  1  0.18578300  0.97514700  0.00949500  1
  C  481  1  0.10009300  0.03848700  0.98595000  1
  C  485  1  0.22653300  0.99507300  0.97963400  1
  C  489  1  0.15042400  0.95531300  0.04169500  1
  C  491  1  0.16992700  0.04443800  0.96692900  1
  C  493  1  0.34790200  0.01616800  0.52184400  1
  C  494  1  0.37584100  0.99615200  0.51311500  1
  C  495  1  0.37177800  0.97446000  0.49370400  1
  C  496  1  0.33888800  0.97343600  0.48228200  1
  C  497  1  0.31096900  0.99498900  0.49005700  1
  C  499  1  0.31619500  0.01611400  0.50949700  1
  C  501  1  0.40185200  0.95274700  0.48594200  1
  C  505  1  0.27544000  0.99622200  0.47962800  1
  C  509  1  0.35155700  0.03591000  0.54170800  1
  C  511  1  0.33204200  0.94682400  0.46691100  1
  C  513  1  0.77137300  0.89888600  0.23015600  1
  C  514  1  0.75127800  0.87102000  0.23893500  1
  C  515  1  0.72955700  0.87512200  0.25833500  1
  C  516  1  0.72843600  0.90803600  0.26973000  1
  C  517  1  0.75005200  0.93588400  0.26189600  1
  C  519  1  0.77122100  0.93063400  0.24245500  1
  C  521  1  0.70789400  0.84502900  0.26612200  1
  C  525  1  0.75139500  0.97134000  0.27240800  1
  C  529  1  0.79110300  0.89501300  0.21026100  1
  C  531  1  0.70177200  0.91497600  0.28511700  1
  C  533  1  0.73074300  0.09257100  0.73007000  1
  C  534  1  0.75084600  0.12037800  0.73892900  1
  C  535  1  0.77251500  0.11616700  0.75834300  1
  C  536  1  0.77353100  0.08320300  0.76968000  1
  C  537  1  0.75186500  0.05543400  0.76180100  1
  C  539  1  0.73078000  0.06078300  0.74233100  1
  C  541  1  0.79421500  0.14619400  0.76619400  1
  C  545  1  0.75041500  0.01996600  0.77228800  1
  C  549  1  0.71117800  0.09656900  0.71011000  1
  C  551  1  0.80019300  0.07617100  0.78504800  1
  C  553  1  0.34699000  0.51639200  0.48024200  1
  C  554  1  0.37490800  0.49617400  0.48882800  1
  C  555  1  0.37087200  0.47414200  0.50808700  1
  C  556  1  0.33796500  0.47277300  0.51949200  1
  C  557  1  0.31010400  0.49456400  0.51188800  1
  C  559  1  0.31531400  0.51608100  0.49261200  1
  C  561  1  0.40104700  0.45249700  0.51575900  1
  C  565  1  0.27464000  0.49576100  0.52239800  1
  C  569  1  0.35062700  0.53634400  0.46043200  1
  C  571  1  0.33117400  0.44599600  0.53482600  1
  C  573  1  0.15482200  0.47526300  0.98005000  1
  C  574  1  0.12695700  0.49546000  0.98874500  1
  C  575  1  0.13103800  0.51728000  0.00810200  1
  C  576  1  0.16395400  0.51845900  0.01949800  1
  C  577  1  0.19173700  0.49663900  0.01183700  1
  C  579  1  0.18647400  0.47533400  0.99246900  1
  C  581  1  0.10091700  0.53893600  0.01585600  1
  C  585  1  0.22719700  0.49528500  0.02234400  1
  C  589  1  0.15117900  0.45586500  0.95997800  1
  C  591  1  0.17084700  0.54522500  0.03481800  1
  C  593  1  0.23045700  0.09247000  0.77183900  1
  C  594  1  0.25048200  0.12041700  0.76312800  1
  C  595  1  0.27218700  0.11638500  0.74371800  1
  C  596  1  0.27327400  0.08350400  0.73228600  1
  C  597  1  0.25171900  0.05557400  0.74005400  1
  C  599  1  0.23055500  0.06077400  0.75948200  1
  C  601  1  0.29386300  0.14648300  0.73595800  1
  C  605  1  0.25049000  0.02005800  0.72960700  1
  C  609  1  0.21065000  0.09611600  0.79168100  1
  C  611  1  0.29994300  0.07662600  0.71695400  1
  C  613  1  0.27158600  0.89879900  0.27182300  1
  C  614  1  0.25155100  0.87086500  0.26309800  1
  C  615  1  0.22980800  0.87494400  0.24371200  1
  C  616  1  0.22873700  0.90784800  0.23230600  1
  C  617  1  0.25032100  0.93575000  0.24006800  1
  C  619  1  0.27149200  0.93051400  0.25948600  1
  C  621  1  0.20809900  0.84486500  0.23595000  1
  C  625  1  0.25154800  0.97128000  0.22963800  1
  C  629  1  0.29134900  0.89511800  0.29168200  1
  C  631  1  0.20206600  0.91471700  0.21697400  1
  C  633  1  0.64750000  0.47199200  0.52080400  1
  C  634  1  0.62304600  0.49507900  0.51095400  1
  C  635  1  0.63167100  0.51756300  0.49265900  1
  C  636  1  0.66611400  0.51673200  0.48343100  1
  C  637  1  0.69129200  0.49345400  0.49307900  1
  C  639  1  0.68160000  0.47161800  0.51160500  1
  C  641  1  0.60416100  0.54139500  0.48361700  1
  C  645  1  0.72786900  0.49015400  0.48456800  1
  C  649  1  0.63617100  0.44917100  0.53782600  1
  C  651  1  0.67642400  0.54211800  0.46778600  1
  C  653  1  0.84790900  0.51589000  0.02198200  1
  C  654  1  0.87574400  0.49580000  0.01314900  1
  C  655  1  0.87158100  0.47415800  0.99371900  1
  C  656  1  0.83863800  0.47314700  0.98236000  1
  C  657  1  0.81084500  0.49480700  0.99020400  1
  C  659  1  0.81616000  0.51588500  0.00967500  1
  C  661  1  0.90162400  0.45246900  0.98588000  1
  C  665  1  0.77538600  0.49624200  0.97970400  1
  C  669  1  0.85179700  0.53536100  0.04198900  1
  C  671  1  0.83164100  0.44650600  0.96698500  1
  C  673  1  0.22404900  0.27987900  0.91362000  1
  C  674  1  0.19412000  0.25864500  0.91326400  1
  C  675  1  0.19672000  0.22189400  0.91304900  1
  C  676  1  0.23062100  0.20605000  0.91409100  1
  C  677  1  0.26097200  0.22757100  0.91610000  1
  C  679  1  0.25716100  0.26430100  0.91547300  1
  C  681  1  0.16354900  0.20182400  0.90979000  1
  C  685  1  0.29743200  0.21409000  0.91757800  1
  C  689  1  0.22096200  0.31334200  0.90568900  1
  C  691  1  0.23416900  0.17099500  0.90841500  1
  C  693  1  0.27739700  0.71119600  0.41379900  1
  C  694  1  0.30752000  0.73217500  0.41341800  1
  C  695  1  0.30517400  0.76896400  0.41313600  1
  C  696  1  0.27138700  0.78506200  0.41414600  1
  C  697  1  0.24087400  0.76379600  0.41617100  1
  C  699  1  0.24441400  0.72704800  0.41559000  1
  C  701  1  0.33847200  0.78881400  0.40983900  1
  C  705  1  0.20451400  0.77754700  0.41759600  1
  C  709  1  0.28013200  0.67759800  0.40600400  1
  C  711  1  0.26818600  0.82013200  0.40842800  1
  C  713  1  0.96607800  0.96869300  0.16325400  1
  C  714  1  0.98724500  0.93869500  0.16298900  1
  C  715  1  0.02404000  0.94116200  0.16297800  1
  C  716  1  0.04001200  0.97499300  0.16408600  1
  C  717  1  0.01858300  0.00541500  0.16602000  1
  C  719  1  0.98184100  0.00172000  0.16523700  1
  C  721  1  0.04409100  0.90795500  0.15985600  1
  C  725  1  0.03218000  0.04182700  0.16758900  1
  C  729  1  0.93235400  0.96592100  0.15555200  1
  C  731  1  0.07513200  0.97844700  0.15847800  1
  C  733  1  0.53611900  0.02223500  0.66311200  1
  C  734  1  0.51510100  0.05235000  0.66292600  1
  C  735  1  0.47828600  0.05003000  0.66293600  1
  C  736  1  0.46214100  0.01627200  0.66404400  1
  C  737  1  0.48345200  0.98576600  0.66595000  1
  C  739  1  0.52020700  0.98928500  0.66510000  1
  C  741  1  0.45838400  0.08333400  0.65983100  1
  C  745  1  0.46968700  0.94942400  0.66754700  1
  C  749  1  0.56989000  0.02492600  0.65543200  1
  C  751  1  0.42699100  0.01305000  0.65844700  1
  C  753  1  0.27732900  0.28170800  0.58962700  1
  C  754  1  0.30730100  0.26051000  0.58981800  1
  C  755  1  0.30476400  0.22373000  0.58918900  1
  C  756  1  0.27092500  0.20785600  0.58760400  1
  C  757  1  0.24055100  0.22939800  0.58595400  1
  C  759  1  0.24430400  0.26608300  0.58725800  1
  C  761  1  0.33789200  0.20346600  0.59207800  1
  C  765  1  0.20411000  0.21595500  0.58413700  1
  C  769  1  0.27990500  0.31544200  0.59730300  1
  C  771  1  0.26737400  0.17255400  0.59258100  1
  C  773  1  0.22498400  0.70954200  0.08951800  1
  C  774  1  0.19489900  0.73059200  0.08966200  1
  C  775  1  0.19730500  0.76738800  0.08909600  1
  C  776  1  0.23109300  0.78338700  0.08755200  1
  C  777  1  0.26156000  0.76198800  0.08591500  1
  C  779  1  0.25795300  0.72529300  0.08720800  1
  C  781  1  0.16409900  0.78751800  0.09202400  1
  C  785  1  0.29794200  0.77559300  0.08414300  1
  C  789  1  0.22247900  0.67576100  0.09713000  1
  C  791  1  0.23438900  0.81869400  0.09255500  1
  C  793  1  0.53752500  0.96924700  0.33982800  1
  C  794  1  0.51632400  0.93926000  0.33990000  1
  C  795  1  0.47953200  0.94175000  0.33917700  1
  C  796  1  0.46360700  0.97556000  0.33757800  1
  C  797  1  0.48513200  0.00595500  0.33599800  1
  C  799  1  0.52182400  0.00224400  0.33740900  1
  C  801  1  0.45927500  0.90860500  0.34198600  1
  C  805  1  0.47163900  0.04237300  0.33412600  1
  C  809  1  0.57145300  0.96668900  0.34727700  1
  C  811  1  0.42827900  0.97906100  0.34251800  1
  C  813  1  0.96439300  0.02168900  0.83979100  1
  C  814  1  0.98544400  0.05179100  0.83983900  1
  C  815  1  0.02225200  0.04944500  0.83917800  1
  C  816  1  0.03831800  0.01569500  0.83759900  1
  C  817  1  0.01693900  0.98520700  0.83601100  1
  C  819  1  0.98023400  0.98876000  0.83740700  1
  C  821  1  0.04235500  0.08268100  0.84202800  1
  C  825  1  0.03060500  0.94885400  0.83415100  1
  C  829  1  0.93039100  0.02416000  0.84713600  1
  C  831  1  0.07366500  0.01243000  0.84254900  1
  C  833  1  0.77795700  0.71054000  0.08875200  1
  C  834  1  0.80776200  0.73197100  0.08900800  1
  C  835  1  0.80494000  0.76872900  0.08895600  1
  C  836  1  0.77095200  0.78434800  0.08775700  1
  C  837  1  0.74073700  0.76263600  0.08586500  1
  C  839  1  0.74477100  0.72594100  0.08672400  1
  C  841  1  0.83792800  0.78912200  0.09212100  1
  C  845  1  0.70420200  0.77590900  0.08430300  1
  C  849  1  0.78109000  0.67699700  0.09664000  1
  C  851  1  0.76711400  0.81942300  0.09325500  1
  C  853  1  0.72306400  0.28311100  0.58784900  1
  C  854  1  0.69337900  0.26146900  0.58838300  1
  C  855  1  0.69626400  0.22472300  0.58878700  1
  C  856  1  0.73022800  0.20908700  0.58766900  1
  C  857  1  0.76038300  0.23090300  0.58564600  1
  C  859  1  0.75629200  0.26767200  0.58613100  1
  C  861  1  0.66329700  0.20440400  0.59224900  1
  C  865  1  0.79690800  0.21757500  0.58420000  1
  C  869  1  0.71906600  0.31692100  0.59531900  1
  C  871  1  0.73386800  0.17391000  0.59317300  1
  C  873  1  0.72457400  0.70862800  0.41248100  1
  C  874  1  0.69478200  0.73009800  0.41225600  1
  C  875  1  0.69760700  0.76686600  0.41295100  1
  C  876  1  0.73155800  0.78245200  0.41466800  1
  C  877  1  0.76176800  0.76068600  0.41623600  1
  C  879  1  0.75771800  0.72403600  0.41486600  1
  C  881  1  0.66469800  0.78746300  0.41001300  1
  C  885  1  0.79830900  0.77388900  0.41802900  1
  C  889  1  0.72175500  0.67468700  0.40512600  1
  C  891  1  0.73544100  0.81774300  0.40985900  1
  C  893  1  0.77695900  0.28257300  0.91225300  1
  C  894  1  0.80688400  0.26127400  0.91222400  1
  C  895  1  0.80419600  0.22450400  0.91299300  1
  C  896  1  0.77028600  0.20882000  0.91469200  1
  C  897  1  0.73998200  0.23044500  0.91620400  1
  C  899  1  0.74387500  0.26708900  0.91469600  1
  C  901  1  0.83720100  0.20403400  0.91009500  1
  C  905  1  0.70350700  0.21708600  0.91802300  1
  C  909  1  0.77972600  0.31644600  0.90478100  1
  C  911  1  0.76664400  0.17353000  0.90986000  1
  C  913  1  0.46682600  0.46863200  0.66354800  1
  C  914  1  0.48799600  0.43865700  0.66320600  1
  C  915  1  0.52476100  0.44116800  0.66309500  1
  C  916  1  0.54068100  0.47502500  0.66420600  1
  C  917  1  0.51920900  0.50542300  0.66618700  1
  C  919  1  0.48247500  0.50170000  0.66546800  1
  C  921  1  0.54477600  0.40796400  0.65985600  1
  C  925  1  0.53273500  0.54186200  0.66773000  1
  C  929  1  0.43334000  0.46567100  0.65562100  1
  C  931  1  0.57578200  0.47851300  0.65864500  1
  C  933  1  0.03561400  0.52210100  0.16369500  1
  C  934  1  0.01435200  0.55202900  0.16337600  1
  C  935  1  0.97760300  0.54932500  0.16321600  1
  C  936  1  0.96188700  0.51537600  0.16434800  1
  C  937  1  0.98344000  0.48505900  0.16628000  1
  C  939  1  0.02014100  0.48895200  0.16555500  1
  C  941  1  0.95739300  0.58240100  0.15989000  1
  C  945  1  0.97001500  0.44857300  0.16771500  1
  C  949  1  0.06904700  0.52527800  0.15572600  1
  C  951  1  0.92684800  0.51178000  0.15878600  1
  C  953  1  0.03760500  0.46959300  0.83956800  1
  C  954  1  0.01625300  0.43972800  0.83971300  1
  C  955  1  0.97950500  0.44248700  0.83895800  1
  C  956  1  0.96393800  0.47644700  0.83726900  1
  C  957  1  0.98560400  0.50671700  0.83571200  1
  C  959  1  0.02223900  0.50272900  0.83713900  1
  C  961  1  0.95897600  0.40952400  0.84187800  1
  C  965  1  0.97234600  0.54323400  0.83393300  1
  C  969  1  0.07123800  0.46682900  0.84733700  1
  C  971  1  0.92869600  0.48021700  0.84213200  1
  C  973  1  0.46458400  0.52149800  0.33943600  1
  C  974  1  0.48585000  0.55143000  0.33959800  1
  C  975  1  0.52262100  0.54873400  0.33900300  1
  C  976  1  0.53830600  0.51481100  0.33740100  1
  C  977  1  0.51669800  0.48450700  0.33575800  1
  C  979  1  0.48004500  0.48840300  0.33708200  1
  C  981  1  0.54304300  0.58175000  0.34198600  1
  C  985  1  0.53004400  0.44802400  0.33400900  1
  C  989  1  0.43089900  0.52423300  0.34714400  1
  C  991  1  0.57351200  0.51113200  0.34244800  1
  N  19  1  0.21426100  0.33894500  0.91911700  1
  N  20  1  0.17826400  0.44616900  0.94864000  1
  N  21  1  0.20618700  0.41668300  0.80658700  1
  N  22  1  0.09566400  0.45495300  0.83452300  1
  N  41  1  0.28902400  0.65245400  0.41925800  1
  N  42  1  0.32370200  0.54429000  0.44836300  1
  N  43  1  0.29591400  0.57466700  0.30658000  1
  N  44  1  0.40655300  0.53640700  0.33438200  1
  N  63  1  0.90763900  0.95537300  0.16863600  1
  N  64  1  0.79940900  0.92176600  0.19813000  1
  N  65  1  0.82873800  0.95140900  0.05656600  1
  N  66  1  0.78561600  0.84239300  0.08288800  1
  N  85  1  0.59444100  0.03602000  0.66845400  1
  N  86  1  0.70241700  0.06985000  0.69809000  1
  N  87  1  0.67352100  0.04100100  0.55654100  1
  N  88  1  0.71534500  0.15074900  0.58295600  1
  N  107  1  0.29188500  0.33986200  0.58451700  1
  N  108  1  0.32972200  0.45060300  0.55656500  1
  N  109  1  0.30053100  0.42289600  0.69860300  1
  N  110  1  0.40780700  0.45859600  0.66902300  1
  N  129  1  0.20998400  0.65150000  0.08442300  1
  N  130  1  0.17215600  0.54068600  0.05656500  1
  N  131  1  0.20181200  0.56853200  0.19852100  1
  N  132  1  0.09454400  0.53254700  0.16910600  1
  N  151  1  0.59513300  0.95244400  0.33488700  1
  N  152  1  0.70592400  0.91459400  0.30692100  1
  N  153  1  0.67871800  0.94764900  0.44845300  1
  N  154  1  0.71708000  0.84029800  0.42073900  1
  N  173  1  0.90690700  0.03885900  0.83481400  1
  N  174  1  0.79610600  0.07672400  0.80685300  1
  N  175  1  0.82340300  0.04366900  0.94830700  1
  N  176  1  0.78499400  0.15094600  0.92070800  1
  N  195  1  0.79031900  0.65193400  0.08342200  1
  N  196  1  0.82495200  0.54427400  0.05383600  1
  N  197  1  0.79494600  0.57327900  0.19555200  1
  N  198  1  0.90390500  0.53030800  0.16915500  1
  N  217  1  0.71702800  0.34309400  0.58164300  1
  N  218  1  0.65497000  0.43765400  0.55424700  1
  N  219  1  0.70801100  0.41759200  0.69494500  1
  N  220  1  0.59868700  0.45939300  0.66859500  1
  N  239  1  0.09610500  0.03123500  0.83189100  1
  N  240  1  0.20337200  0.06916100  0.80387900  1
  N  241  1  0.17129100  0.03974400  0.94519500  1
  N  242  1  0.21528500  0.14819700  0.91864000  1
  N  261  1  0.40581600  0.96031900  0.33183000  1
  N  262  1  0.29870700  0.92207700  0.30385400  1
  N  263  1  0.33066200  0.95153000  0.44517900  1
  N  264  1  0.28707700  0.84296300  0.41861200  1
  N  283  1  0.70812100  0.65092300  0.41775500  1
  N  284  1  0.67028900  0.54028900  0.44617700  1
  N  285  1  0.70356900  0.56792300  0.30428600  1
  N  286  1  0.59621000  0.52956600  0.33176200  1
  N  305  1  0.79402600  0.34002900  0.91721000  1
  N  306  1  0.83208500  0.45068900  0.94519000  1
  N  307  1  0.79900100  0.42321000  0.80371000  1
  N  308  1  0.90610000  0.46185400  0.83131000  1
  N  327  1  0.40416700  0.03202800  0.66859500  1
  N  328  1  0.29534700  0.07530200  0.69520800  1
  N  329  1  0.32459300  0.04311300  0.55391100  1
  N  330  1  0.28612400  0.15013800  0.58187500  1
  N  349  1  0.09798200  0.95956400  0.16867500  1
  N  350  1  0.20668400  0.91608600  0.19523300  1
  N  351  1  0.17737400  0.94822200  0.05394200  1
  N  352  1  0.21566000  0.84116000  0.08188000  1
